14
Energy = -100.01736115 eV
Mn 11.133691310411862 11.336095597989953 7.302467742158186
Mn 10.859216282813948 8.223929117409703 7.311133095050474
Mn 11.119991233575472 9.78417655580079 8.975736379306051
Mn 12.023261616294295 11.811850313038162 9.930036751037902
Mn 9.28016406938526 11.405972041205136 9.46789746300898
Mn 10.795012876530096 9.846141842447532 11.18874007098718
Mn 8.78504827208382 10.027814442559285 7.349784266364298
Mn 10.08121682711088 12.012784527462767 11.88292208722536
Mn 11.041564865999081 7.538826675968784 9.867289516701337
Mn 8.927676770148757 8.698845804920015 9.54342469865009
Mn 6.912784129825475 10.23884670378587 9.182627759603545
Mn 9.680456102201791 7.924366258049821 11.966676660207154
Mn 10.151086068142549 9.960623009322568 13.56501891932681
Mn 8.219750843397302 10.136652293128279 11.652573099410018
