18
Energy = -118.13376225 eV
Mn 10.706802073637158 10.683325905569488 10.70535053194727
Mn 10.923330813132734 10.253548010187007 8.507940404098704
Mn 10.519229837282477 5.633278341639328 7.424811365987358
Mn 10.50829191605624 5.796227560499688 9.895891952905258
Mn 10.677594757073038 3.6209946867878 8.787789883615087
Mn 10.897609662515432 2.977954397625468 6.272240907161217
Mn 10.56594429701761 1.2464908764035374 10.153448985932759
Mn 10.456753545250788 3.825064600828888 11.386774670440609
Mn 10.467862897107848 6.660553958486448 12.295570917066904
Mn 10.43133576101324 1.5860840181767717 12.441215712274392
Mn 10.306257031677319 5.606627691700871 14.660732770376342
Mn 10.351350021794147 7.824498017907945 14.474580684902277
Mn 10.530148813941745 9.315699234170069 12.638385577555367
Mn 10.698211204154005 8.254944490708025 10.220809896133899
Mn 11.131607347223696 9.652023172896001 6.108659913474754
Mn 10.784294207399414 7.141252293460397 5.546748964086236
Mn 11.567905759363697 6.660481730051794 3.275112404764929
Mn 11.529361423148389 8.860891395605165 3.960873303596541
