13
Energy = -92.46020823 eV
Mn 11.180396587338977 7.934571254156601 10.212158515381509
Mn 10.805037055950965 7.966488146796236 7.562744063660232
Mn 9.811959369141812 10.068045809750526 11.303531728988043
Mn 9.811306140348263 9.554279611984729 5.717916745722274
Mn 9.589879116390478 6.217689200341788 8.978125288615518
Mn 10.13670784474076 10.347921033164477 8.51787238061632
Mn 7.387658273832906 9.057175639334288 11.005758121784941
Mn 8.937740113376016 8.493064453047616 9.593669318167212
Mn 7.835208257833135 10.459106535914078 7.180372769928826
Mn 8.160611429068203 7.819840333106256 7.1585224443609174
Mn 7.251243743870595 7.018851287311077 9.311735358347603
Mn 7.932241650785716 11.035329502506881 9.736622876340446
Mn 6.308595942342184 9.165234578864009 8.7650222808164
