18
Energy = -115.37298367 eV
Mn 9.668670046348577 12.623085059585012 10.550440184154095
Mn 9.671369048071018 12.03607003166918 8.121653053236422
Mn 8.508539591164986 9.839510068698427 7.842073543148979
Mn 7.927559362557062 6.5840889994894995 10.705740376115346
Mn 11.712125254922125 12.549260387287298 6.6940976244050745
Mn 11.718773748431504 13.726097776415733 11.580943626997048
Mn 9.374814475202218 10.04688773418086 14.069651150700086
Mn 8.262422939567005 7.337051547172847 8.315537402567578
Mn 11.523400285650395 13.489922166032494 9.057867518553456
Mn 10.289424452173277 12.168301813669975 12.974385095905983
Mn 8.261202316904692 8.355998086021918 12.517259181368614
Mn 10.762707246466194 6.437346932972956 4.981344921826591
Mn 9.421763301373895 7.537015943880232 14.715266758075416
Mn 8.7152082031351 4.843373259450054 8.967166671636322
Mn 11.39818250343673 8.690645668375167 4.638646379519387
Mn 13.765418106008115 14.359362283138077 10.112885630147094
Mn 12.544376768062268 13.056963277319666 13.939028402631896
Mn 11.40154422165926 11.253173042819245 15.161559879733218
