16
Energy = -101.54722423 eV
Mn 6.826870695551638 9.652274415161155 4.766986233691372
Mn 8.244637119659254 9.343757343604606 6.8168078730479165
Mn 8.027647247102808 7.7012926174222365 4.921634140703892
Mn 9.58659265680636 9.324392141631101 9.009388228198084
Mn 8.220249652678206 11.232124567736015 8.539630798313837
Mn 7.653256214984973 15.276281417579415 11.381837572727566
Mn 9.113122519706751 13.611846419019049 12.233085007223817
Mn 10.58286014893262 11.894826221068055 13.052183192978482
Mn 12.117614047478595 10.582213773632006 14.353811749371152
Mn 13.006125276386266 8.555403181374748 13.92509653219257
Mn 12.72116089080996 7.0770944590140745 12.074395807454232
Mn 12.317661151881376 5.7111169217582445 10.133553324876067
Mn 10.972966472356541 6.138549638172931 8.31770651223003
Mn 11.12774092595432 7.881825952904453 10.199827892978888
Mn 9.516525895509012 11.30209141541001 10.741488319343635
Mn 6.714761070481999 11.465898938611794 6.275017897462599
