13
Energy = -92.75944844 eV
Mn 7.8418147176500534 8.65681580319777 8.497865308917458
Mn 12.29002655154942 9.173217258835546 6.203860176442018
Mn 10.204760800330671 11.003433816087043 5.828904301301491
Mn 13.698919415729952 10.922747557692954 8.843164094149646
Mn 12.96992256109237 11.591047041548322 11.43505009252955
Mn 10.02681482277634 10.52608165648663 11.67090034307113
Mn 9.353579436259407 11.167988178206699 8.69476936034281
Mn 12.215342136365434 8.66959796122729 8.751212698816747
Mn 11.601817539968382 10.463988893364823 10.021722583081928
Mn 9.99308983761823 8.951734044645823 7.207410822003453
Mn 11.484144254036648 10.779213065300148 7.750100765736204
Mn 11.724857447113932 12.737531302799855 9.264414761473338
Mn 9.875192663784269 9.102964517582382 9.547220921490924
