11
Energy = -64.28718107 eV
Mn 10.745475464805287 9.296553694496387 7.311115187874335
Mn 10.819119015372491 11.640720575248793 15.638834139241121
Mn 10.434683064011844 14.242288463748332 11.636371638202716
Mn 11.937787233062465 10.561811657363386 5.29880801294679
Mn 11.41315005308447 16.52793556632267 11.70124179747003
Mn 11.066633988626467 15.457724239065069 13.788893759140393
Mn 10.950135476127196 5.487857287157621 13.719095892986035
Mn 10.943800522298343 6.6771561616692905 15.85083038225631
Mn 11.414284971758915 12.793145691931 17.800208138604283
Mn 11.971716666960083 12.935945579009216 5.566946629270114
Mn 12.127033270550529 8.204990286683614 5.527121279801867
