11
Energy = -63.72139706 eV
Mn 6.387634805113769 7.789809150687692 11.508308325737657
Mn 10.755472303640813 11.800002876902443 9.334552708940883
Mn 12.807559635547515 11.119830442557923 8.04559843129482
Mn 12.302864594070481 10.732914129655116 5.640385851354375
Mn 6.561951927392579 4.08363256301745 6.32738074863841
Mn 5.509927863012788 6.098606865662042 5.2599175478833535
Mn 5.284847542067177 9.162559702518273 9.847000814380694
Mn 7.716796867021661 5.846071125801196 10.873864671266357
Mn 8.64300703270996 11.991724388962245 10.515708441795738
Mn 12.356329244316205 9.642754897035088 9.879064248425198
Mn 10.099639971944361 10.158246890035485 11.198090801416418
