12
Energy = -70.26560839 eV
Mn 10.520370340717816 9.044825045302815 12.332869380078522
Mn 12.748902513434842 8.928646023168097 11.123905957416683
Mn 10.419997653727586 10.101262715344243 14.658535007974134
Mn 14.315700545120187 10.250969998347527 7.475114354701937
Mn 16.30225323905793 11.94887435798438 13.248589170642063
Mn 4.7466380335845075 12.077751358641668 12.687971307551221
Mn 6.342625001887781 11.30369703632337 14.263754698476635
Mn 16.445173208786276 11.65178363456513 10.878903798695134
Mn 16.023049182098557 11.89977119535519 8.4529111691169
Mn 5.462582508545518 12.018191704187629 7.977680570506724
Mn 4.81680415606125 11.788875312423574 10.351645856031407
Mn 12.048631795217885 9.177838643309768 6.740113505288953
