17
Energy = -107.83843008 eV
Mn 7.928875648605025 11.026047857322125 7.962838351573894
Mn 10.273081590248468 11.261275672330527 8.06362832647706
Mn 13.514224039997597 12.535985055693933 10.559689830998813
Mn 14.409723191471928 12.693680485152965 12.880531722833261
Mn 15.456779800531445 12.036381045257066 15.022978280646823
Mn 13.129489130894987 11.931024679464498 14.944328705174021
Mn 9.909884301690791 10.634378296829553 12.448525427096838
Mn 10.72744379830758 11.473168151095415 14.620934282608296
Mn 8.31686823483972 11.440465287213046 14.411910989033673
Mn 7.445279313109584 10.728473036612819 12.02395914837996
Mn 5.946574197225638 11.405646258989789 13.78626006176139
Mn 5.062101684586062 11.074780656498104 11.686195824330854
Mn 9.06951540284541 10.432380638131761 10.111305245776077
Mn 15.093111014839694 12.174366760110818 8.493949527478126
Mn 15.990628434809446 12.64457765561353 10.886222575323682
Mn 17.477557828479917 12.266426917455668 9.039331019390529
Mn 18.360742233126118 12.346718571063215 11.163393391988635
