14
Energy = -101.05351409 eV
Mn 9.82491436515236 10.543673768399227 11.31553752341238
Mn 9.124200787506446 8.071460193619835 11.569353873586754
Mn 8.332131922894067 11.464954889920227 9.591478971034837
Mn 9.186972993637728 9.150646845988346 9.3599317182222
Mn 11.338259745744253 8.612075339931364 10.439430880348388
Mn 7.264423910722111 9.759531470553341 11.18623769726073
Mn 11.281652077304987 8.073549160242658 7.969970639107499
Mn 6.736916613827617 9.683516687681156 8.641488246694191
Mn 10.916632739359278 10.680030585718745 8.768767699196973
Mn 9.781900932091297 6.731451556101326 9.492123203575758
Mn 8.571911071446895 8.11224726801718 7.4001840427625885
Mn 10.539100156397712 9.686182591888693 6.095950745548812
Mn 7.327044092642673 7.558759132631848 9.799930553189649
Mn 8.660645755486184 10.771987871056094 7.328796930658742
