17
Energy = -110.2641321 eV
Mn 9.882470146600605 9.906639695116622 9.887700532220919
Mn 11.85816718289725 8.942939182009416 8.746156611317522
Mn 13.72473134426462 8.147581889310375 7.404853601138723
Mn 12.235637300610188 9.677896258809199 6.277068020694143
Mn 13.296596463623116 10.753054251034465 4.054969516193309
Mn 12.219084177360353 12.786854890271867 3.4041212944318877
Mn 10.904788109849362 11.519964525598448 5.101188760233208
Mn 10.352533849841409 13.948468097668249 4.296218284648414
Mn 8.643415596050003 15.141859186296657 5.622258253419315
Mn 7.50463194266441 16.653935065924877 7.2027164689525405
Mn 6.355661180173749 17.922525148222242 8.922783809955913
Mn 6.6166583136934225 15.570347067834739 9.398140358247508
Mn 7.250152649845568 12.897208436295609 12.600286577271905
Mn 7.122192006294803 13.180066688940911 10.114365591617
Mn 9.109037485805155 12.157094970357354 8.99272804723772
Mn 10.324452501357355 10.673277133206224 7.4687051386494145
Mn 7.815892371939517 14.106807611774093 7.859704343216779
