18
Energy = -132.61854189 eV
Mn 9.132369563335777 4.368299345334966 8.613851168116732
Mn 10.112884337613428 6.290029414895753 9.71293122694891
Mn 11.068798800899067 8.471010440339121 8.468178753602322
Mn 8.68451182855342 8.405387409591086 10.797030782892213
Mn 10.156272393651125 6.35848626335655 7.121126239982021
Mn 7.506201674970249 5.889011591956778 10.06407821768383
Mn 7.845834461040743 5.931648206629342 7.685266568909338
Mn 10.455157138720905 10.918442191840057 6.977792877126831
Mn 8.644223781707042 7.704385510379951 8.667464588240573
Mn 9.484211364955831 10.183739729208117 9.086803120298425
Mn 8.27279419874475 7.1887387594387455 5.539270532190812
Mn 6.322223935766448 8.083472467073333 9.82435835448681
Mn 9.33763601077047 8.897314863918677 6.7497489740473995
Mn 6.853337020648922 8.180067305870498 7.0798691297511755
Mn 5.575745708661659 6.470847231264762 8.129099787920119
Mn 7.2486229285761725 9.99207784326275 8.856204842049614
Mn 5.061701687709065 9.41302089718331 7.844685139255165
Mn 7.494983459168642 10.41911497412883 6.431920729081539
