16
Energy = -117.35614017 eV
Mn 8.486239891744564 5.763039932951628 4.767083039447699
Mn 4.403386553962299 7.101596531760502 6.929694668672426
Mn 5.338092976956745 9.582540516690736 8.231205258258486
Mn 8.77184830152834 7.429262811758841 8.834089197296674
Mn 7.753492529564582 9.278769903726651 7.007604501256183
Mn 7.824668213514345 9.730457586845867 9.28641389921751
Mn 8.254472913445005 8.582579765286603 4.654657857870281
Mn 8.403341372035236 7.0359106385820365 6.535668488532572
Mn 6.24861017444327 7.089563140703798 5.146134199899431
Mn 7.201334347501296 5.649155169063955 9.334124579883827
Mn 6.359429554748219 7.933395934300852 10.076213248096732
Mn 9.184512146094246 5.129796527334219 7.601803502665259
Mn 10.240447858083991 8.325710228534778 6.675070256672917
Mn 5.752633080428068 9.364509187553828 5.761278777804185
Mn 6.584020279072829 5.3140730082363135 6.786383513439123
Mn 6.351470916706111 7.508955195139837 7.886942563448645
