15
Energy = -108.93860892 eV
Mn 8.054552950501622 9.445139023873606 8.780778178557036
Mn 6.23222586867787 10.074047395199113 6.667135954261568
Mn 6.2775409943193115 7.896665573888105 2.723086045238807
Mn 7.319385392020783 9.810747993069326 4.128346514798259
Mn 4.432787840686383 7.929724466120927 6.803570039115288
Mn 8.69980708145516 7.578308880806079 4.01731807775447
Mn 8.803294471540573 9.166885690928424 6.1792664286084085
Mn 4.781586396674892 6.485431384743845 4.557678148364959
Mn 7.459190315198381 6.548613598032934 9.129729755402629
Mn 5.559201592355668 8.853688763048698 9.127460789109291
Mn 4.821584550195517 9.10473474464481 4.490957266236205
Mn 6.031981449809784 5.886412626348347 6.79484724194073
Mn 6.687136277276535 7.667855555792707 5.1844037347347385
Mn 6.897501947163341 7.926181029012505 7.414687739149754
Mn 8.55215871779618 6.650633047364799 6.501232651205483
