13
Energy = -79.24405046 eV
Mn 9.656012647780956 9.653060421549123 9.637270826707953
Mn 5.632261908904412 6.895012913099335 9.644362258573233
Mn 5.255119666698273 5.210639117036733 3.2737289726602885
Mn 7.062088219666372 6.707350549099036 2.925066695668564
Mn 9.114069136925423 8.061622230925094 2.927861645871989
Mn 11.487298374175495 8.804525015319376 3.0684065069037243
Mn 13.720111397458243 9.627578235603993 3.478525559805375
Mn 14.528855029892185 10.482133162943917 5.445602887787262
Mn 11.912273914828079 10.360754277229054 9.452453179774022
Mn 10.654922823594488 10.29316228112489 7.321900807832598
Mn 8.795711619853266 8.631426569276705 7.4212149315597165
Mn 6.474173216213415 7.808879280978643 7.304795986324952
Mn 7.9690979928069625 7.667472300882875 5.153466161115831
