16
Energy = -102.09681012 eV
Mn 10.147491893143114 7.586710055237603 13.46687091263958
Mn 10.05940349787827 10.003869293815033 13.359519777884069
Mn 10.031200428217746 12.069548226977874 12.118141886335252
Mn 10.335085014082628 5.595831211184979 12.098211480717497
Mn 10.2704331425123 12.71437762499152 7.487635759900574
Mn 10.456386296361623 11.098106873193775 5.671561334709778
Mn 10.596700683174326 8.78026412240138 5.00566722813349
Mn 10.659247912762332 6.426760194433662 5.685833975207222
Mn 8.165289215456701 11.895218118120328 6.376847721380833
Mn 7.8821638920651464 12.579409940214587 10.914214473361968
Mn 7.86418098553475 11.051483999748413 12.785255889830704
Mn 7.921114112255355 8.713230638824424 13.461188967838766
Mn 8.055764165275795 6.393551508635791 12.800110367203475
Mn 8.465655772671008 5.396162586361591 6.360372404235872
Mn 8.427852271238534 7.490309545111607 5.103296531461493
Mn 8.369620209455029 9.899065618247079 5.009835243860881
