11
Energy = -46.49837167 eV
Mn 9.875451432028706 5.20362645853806 10.372078647098409
Mn 12.00912724368856 8.463327130697706 12.978227818373895
Mn 12.311873002883077 13.013409753609125 11.811177662029563
Mn 11.63801421099828 14.456050060771474 9.974897318073706
Mn 10.565629439112607 14.884371596189391 7.886157488515993
Mn 9.343474047560601 14.11538589288125 5.928501039480237
Mn 7.791571702635288 6.005112309684703 6.294051649549248
Mn 8.669014660674566 5.0053630103294955 8.28720428802207
Mn 10.368295992820473 10.090254534954227 14.09097208826271
Mn 10.578489037998944 12.424791262630148 13.518479016235156
Mn 6.291388425750134 5.782126337272976 8.305762833304046
