16
Energy = -102.12085963 eV
Mn 10.671960319353893 12.347110598986102 6.230308805160978
Mn 11.542975226917802 10.28344435486881 7.670803611385063
Mn 11.292523008285158 10.32190704662045 5.0263664357422115
Mn 11.303792749551477 5.733003077163807 7.467436862666065
Mn 11.437056228729306 7.9722577296293125 8.88233079597363
Mn 10.518732103215681 7.923019149995767 11.182264664755518
Mn 10.810292113531133 5.700731906238033 9.867562819167713
Mn 9.88477329420507 5.708833767011123 12.08886504293656
Mn 9.221510564832988 7.483866615603703 13.365218679011132
Mn 7.091755071905277 11.431536906368317 15.173918226853104
Mn 8.772496332187895 11.823460944059528 13.378557443172731
Mn 8.300132554148709 13.9629206455176 12.067398327471542
Mn 10.073044497322778 12.076884063286387 11.321505159785461
Mn 11.210799986903005 10.136838220322199 10.15813005548468
Mn 9.825503155106006 14.139669476034037 7.502006848701318
Mn 9.232886492778796 14.161226972946404 9.811228451595882
