18
Energy = -116.26765786 eV
Mn 7.293619787773944 10.524345171423978 7.359171630672984
Mn 8.95341775897197 12.032671082692325 6.454699604980801
Mn 11.267976333013724 12.62268864201454 6.348509745073074
Mn 13.562038911579778 12.15755394333276 6.989566077636408
Mn 6.378766279514898 8.833119598249661 8.805486653492135
Mn 14.958445959578345 10.612811758410762 8.166337256363907
Mn 7.223790888034904 7.454582705527021 10.730896362704163
Mn 9.092369284050502 5.8233023031515625 11.113846799126613
Mn 11.491195953183354 5.877881347997672 10.943294472920172
Mn 14.060966284590066 12.581552064074623 9.383449914833141
Mn 12.237399232113928 13.798458888143703 8.313206015736911
Mn 9.833338302781733 13.701311145644262 8.076211453728572
Mn 6.252604056450411 11.180353907908657 9.579152129122157
Mn 5.508640459258628 9.357759389142092 11.065547060871369
Mn 7.9101543241585155 6.699299932265213 13.094543620635934
Mn 10.381052845832448 6.618671086666188 13.061911788385402
Mn 12.67053666892553 7.14834283172538 12.74178627227407
Mn 6.069901824947101 8.119657982947201 12.934937063835271
