14
Energy = -85.99907368 eV
Mn 10.404066355581667 10.414691947504446 10.387401261603213
Mn 7.118057078462909 7.695045151108977 7.96965339969858
Mn 6.387746055037982 8.208745657554184 5.849283765451851
Mn 7.107128499733673 10.047964474899041 4.4403591908419795
Mn 8.407231978080159 11.739790053141855 3.3036606566384124
Mn 10.072390781442133 13.274707058864708 4.100411479665234
Mn 11.985014641492759 14.482422461797267 5.078318355055768
Mn 14.258567055812504 15.15703803785821 5.76163483728226
Mn 17.201685012529467 15.160864248062596 8.831809273409217
Mn 14.856396890846593 14.758986458410787 8.287392914366952
Mn 16.026619308799333 13.86109062943918 10.538558493896383
Mn 13.387377220148663 13.486971714497976 9.940428074982238
Mn 11.67140405061063 11.969034280783793 8.862881213913646
Mn 9.467369378114945 11.226680364471452 8.141646996379313
