11
Energy = -68.37316091 eV
Mn 14.58777984855897 9.41439819151458 3.4308789002764852
Mn 13.6360302416918 8.76566691468801 5.547793414053712
Mn 11.868282395017099 9.788369562770384 9.314636794978288
Mn 11.14012435114216 11.925183306072931 8.16438167265591
Mn 10.400110341564385 11.49225879575251 10.524378002245603
Mn 9.780459755664616 6.378765006360807 11.368252518283386
Mn 8.447199392670042 8.00800751871576 12.684917078172301
Mn 8.57979552509803 10.476222299311925 11.928741638844269
Mn 8.443460376135958 12.980913517227927 11.35795153636006
Mn 7.012516877322112 9.7040478045071 13.591747210329695
Mn 7.009705764534123 11.974137973490643 12.98090627123623
