12
Energy = -74.35384397 eV
Mn 4.88410504212814 12.280869717598806 10.418658109121269
Mn 7.003111449768129 11.278948146781664 9.761167804215464
Mn 6.825763863841781 13.167235539167775 11.510416066151631
Mn 9.083222706951082 10.442262053209948 8.709014007925923
Mn 9.090079806563468 12.407127396865386 10.518132032611337
Mn 10.98585935626428 8.778634259751335 8.958610828203161
Mn 10.984953910169486 12.296648507311888 12.195306025661866
Mn 10.944160377960108 13.958268464577603 13.96316970454252
Mn 15.1233122817687 7.7729360728631685 9.78114717951267
Mn 14.97472805647354 9.721455711178638 11.448712181391409
Mn 15.115146927220998 11.546871132672159 13.256351728516512
Mn 16.85273570450615 8.21248357532 11.345098602858828
