11
Energy = -64.77872462 eV
Mn 7.404751880432146 5.944883884745729 12.735402830503663
Mn 9.056389288562405 10.885214829435908 8.55764883145271
Mn 5.680154768432611 12.222299207800182 10.997570759292287
Mn 8.820782245485665 13.195716938496188 7.589595329079645
Mn 10.622286971426643 11.985586755879874 6.666497287699564
Mn 11.061928039207794 6.70089212427738 9.034683807650888
Mn 12.3613280955623 10.529964076924541 5.989651677696935
Mn 13.098119911222039 8.457734678202199 6.4175622145596245
Mn 12.487125006571146 4.675610430876131 8.919948575731341
Mn 5.744970600478978 7.656073637273979 13.312365925062537
Mn 5.672790023618508 9.750650168747853 11.793649330642939
