16
Energy = -102.00475331 eV
Mn 10.06648175581219 10.059257676921462 10.062197267609402
Mn 11.337792519140232 8.350880273478852 8.922583730892818
Mn 12.472731492595099 9.509170485394382 10.705322266788059
Mn 11.066076557885406 11.390045379696565 11.838553214836875
Mn 13.63513125613133 10.840211852255994 12.42814342086625
Mn 11.056475889685968 14.537747328961881 14.641671746275682
Mn 9.831599765758968 13.102024119674978 13.081305150866365
Mn 6.854430793899751 14.226764262865983 11.80229204158362
Mn 8.66800074356671 12.054224065597142 11.12755652773733
Mn 6.461399171745983 12.34970904230384 9.918610168947433
Mn 6.443267865602183 16.334438291664394 13.456612475863029
Mn 7.771419375376318 17.402380268904054 15.19446205253405
Mn 9.18825616568063 18.452102419917082 16.789595120631517
Mn 10.051717712879109 16.46114221405997 15.758051477910684
Mn 11.338469074974483 17.776676075926563 17.322371609047227
Mn 14.626395671454338 12.218457640917022 14.05230056327733
