19
Energy = -140.3183348 eV
Mn 4.693511054168389 6.934097895851487 8.035214321002046
Mn 6.51454512782303 5.601260638112066 7.181115793307974
Mn 4.964201202292057 9.302797150594595 7.24334991680631
Mn 8.19649660036559 4.276570067196376 8.269152018326734
Mn 7.211405014484252 10.194428662332646 6.120279170649403
Mn 9.693645051349515 6.141680512801057 9.778307196871165
Mn 8.981269819347775 8.280152396476744 6.40124027859766
Mn 8.073046383617628 5.979938951331474 5.4135975059286645
Mn 7.038278450318655 10.46193246182903 8.731249104125826
Mn 5.544324870869365 8.413457110916823 9.930169877522395
Mn 5.000225017324058 6.1931724049766155 5.440711036752177
Mn 6.8517458484751135 8.230738298582894 8.092883008785309
Mn 9.469068069285386 10.457354297968758 5.069385135824792
Mn 6.520195899923949 7.852273941574877 5.876438089007739
Mn 7.108625453161496 6.388483613359934 9.525973869901792
Mn 8.883644884309287 8.43312078075633 9.097048127585
Mn 9.097789569820964 10.19933286789284 7.5095353099288005
Mn 8.71554532245655 6.463726218093958 7.715558722504086
Mn 8.22562153568648 8.428789374570997 4.216025091759811
