13
Energy = -79.59897919 eV
Mn 10.380208434666685 7.231360284378674 13.082580951487635
Mn 9.808289235553342 9.436817225610069 12.14725037901221
Mn 9.868633272887434 9.113845947017655 14.770099226433558
Mn 10.52090704358578 6.888696728670456 15.457574740731545
Mn 11.637193818805487 5.335407754949323 11.613151820752677
Mn 9.807646051172256 14.038552390994921 10.459630756495995
Mn 9.866762836866775 15.980958153444062 12.248142564796773
Mn 11.63176448530324 16.83636134234701 7.40170078746615
Mn 10.380310269990986 16.32785515597588 9.741899982573525
Mn 10.434944183310636 12.111398095875776 8.831643431872783
Mn 12.054261864485506 5.913414264295113 9.334541136624036
Mn 11.70487772971095 7.971228678720996 8.197846052943648
Mn 11.69910286062561 12.601864360202665 6.504272730368385
