12
Energy = -84.87364903 eV
Mn 8.324024655544449 9.160921290440047 7.375882654083149
Mn 7.681631509594297 5.953925851093678 5.617885852507951
Mn 6.468136471946921 8.418441069471342 5.3474026438921225
Mn 8.100392955063095 10.296814838209249 5.258698229827281
Mn 5.748266837889118 10.817889360385204 5.4402905077780455
Mn 5.945046645512317 9.696613970972296 7.589640470012805
Mn 7.089385490989276 10.52558884230921 3.2622019931470763
Mn 8.818059908725386 8.020265762707833 5.544908727926526
Mn 7.64985077231568 11.45608618941966 7.290680023510802
Mn 9.584611853307084 9.407527314004431 3.7272022561554907
Mn 9.414013058352392 6.816703329036985 7.563996426673442
Mn 6.899034341159864 7.33987607544253 7.619064404250686
