10
Energy = -69.60631889 eV
Mn 7.240931927915067 9.907605986273802 6.317063494501533
Mn 5.695846454563729 8.227235863317256 7.831199181669687
Mn 7.473294589930909 9.68544701513552 8.74914513493332
Mn 9.620957788350589 9.893497001213545 7.6163378963363675
Mn 6.678414864084074 8.270734631961313 10.399593350590061
Mn 9.193208528626261 7.7319944582842925 9.24638847442801
Mn 7.044535343445499 6.278815664000903 8.894927753821685
Mn 8.086739742676219 7.775066363020535 7.146391102986006
Mn 10.674751419314775 7.614180129297164 7.048412300511179
Mn 9.207726786122755 5.617740713420697 7.663480819304796
