15
Energy = -109.09378135 eV
Mn 10.538392595948954 7.636119943326534 9.569641922303594
Mn 10.765401619473504 9.274541515358761 7.577513232109451
Mn 9.896135339745676 6.747944928916364 7.3322307299331
Mn 9.090734163172922 9.752637403915278 9.487347272916775
Mn 8.650749516247092 10.875784779707155 7.4042443549287125
Mn 9.458747152846941 5.282085365959628 9.45066737157193
Mn 9.12636418425226 8.931865745100815 5.667925254761448
Mn 8.230157148461393 8.325804409723045 7.796127081174438
Mn 6.746449077153932 9.555997229070133 6.486678065786016
Mn 7.504951057633662 6.088141195456817 8.349763300777447
Mn 8.087750859030592 7.523042647617754 10.119794988102067
Mn 6.543145552882394 9.557537830282426 9.186336565995111
Mn 7.485143546257607 7.001452329848496 5.941550148701956
Mn 5.730253390323442 7.597618981054697 7.685210240208273
Mn 5.7658836477187405 7.246739124222578 10.029788994241294
