19
Energy = -122.79097635 eV
Mn 10.06654517934608 10.024360825530511 8.623318301784323
Mn 9.920560948595202 7.794212652107384 4.4142081183453685
Mn 14.848105084533044 11.321893664176898 13.136807867616357
Mn 10.775736910493674 12.126551960082226 15.124544790099591
Mn 12.705391827927103 10.158772097426482 9.459718966861443
Mn 7.656179461993584 8.039043436237133 5.0248991472713325
Mn 6.165699532556897 9.82112053723458 9.14854492580349
Mn 11.83057009778922 8.369656271344834 5.567829991892747
Mn 8.277148370238999 10.635016621470909 10.65194311691097
Mn 5.821761042290779 10.60825649208072 11.23997714141319
Mn 7.101662219832034 11.34876595453165 13.066863342142826
Mn 8.536037704941933 12.003310120925416 14.838439610152589
Mn 10.707332501936293 11.011338711084417 10.603235387839035
Mn 6.722785963681789 8.920468051805472 6.944841980261126
Mn 15.069095879399516 9.605505738476007 8.737038715961962
Mn 15.045554367120667 10.488652064372424 10.921007714574028
Mn 13.119419921933646 11.872367373042682 14.492233715947513
Mn 12.681394550732241 11.188229503748218 12.028917021951756
Mn 9.786730849758815 11.50118885647148 12.808483605611329
