14
Energy = -83.52473936 eV
Mn 13.350529235005451 11.41292445013145 11.689539495496776
Mn 14.06550793935574 11.71079598793199 9.33675005668453
Mn 13.864789292190135 11.287928834192966 7.020891934431108
Mn 9.225250361779654 7.270846770745051 4.2809375082606715
Mn 7.539280133022361 6.088709469506341 5.4830955813808275
Mn 6.858325672935904 6.288348731266335 12.134029838274818
Mn 8.23276389982141 7.570084685946717 13.674902678687378
Mn 7.718111025749639 10.040815013615166 13.828257272964827
Mn 9.650223639059194 11.563481384611311 13.637654829725177
Mn 11.341316892644686 12.756358194331282 12.443392460272007
Mn 12.40072664761728 13.370265129044236 10.357636657148555
Mn 12.02809321936285 12.527402430122198 5.79136007137187
Mn 5.546747199544999 7.399997644998622 6.234512348348373
Mn 5.004770192711465 7.531483634957928 10.905327707787576
