12
Energy = -85.83779774 eV
Mn 9.22449492127263 6.891790618446556 4.634436263698206
Mn 7.645403213583881 8.922906441616698 5.512107609655176
Mn 5.51999299226574 6.431355206026678 7.8478189592985474
Mn 9.40834809465409 7.225469472593452 9.29409203056239
Mn 9.737145803055839 5.540098589631987 7.198979957164445
Mn 7.885842867487626 6.714954544625781 6.408263457344235
Mn 5.895545323335969 6.798234349156516 5.446431329766388
Mn 6.997814947462396 4.581836135284796 6.559128044464059
Mn 9.66900457662795 8.254129973244503 6.9384245485735505
Mn 7.730030068667172 5.603763896667521 8.72638087503088
Mn 7.3128190013197765 8.156190228324233 8.12177034244684
Mn 5.423206379031919 8.81631671277355 6.715495424309707
