18
Energy = -116.93911225 eV
Mn 12.395821944049104 13.366982352461717 6.5146435449240405
Mn 11.818204102136594 13.847426338399226 8.752768376665054
Mn 10.866277343431909 14.164864857111693 11.039378847350246
Mn 10.149605687443284 12.213962657129626 12.329807907433803
Mn 9.933611481292866 10.195254508369185 13.786815196050581
Mn 9.884403929361484 10.538456682853475 16.419654750045623
Mn 10.48728666798547 8.465156752954183 15.433883651184557
Mn 11.747338315507351 7.650176346175721 10.8839666697828
Mn 12.12838029560064 7.227232479514384 8.547391036496949
Mn 12.886771055705426 9.354313088190148 7.184050684054242
Mn 12.500728260302976 7.218624921175304 6.136818221029855
Mn 12.898129534327714 9.02819739095334 4.760673209399329
Mn 12.874020084763611 11.64540753931787 8.25967599005776
Mn 11.60839073577262 11.806465268643016 10.423590423561686
Mn 10.202527316058788 14.626119006414152 13.331288496423033
Mn 9.680801659066962 12.524728261885894 14.775531988209224
Mn 9.770308821628781 14.708567859276059 15.74797872267417
Mn 9.627035205084278 12.891760844072744 17.131527489768537
