14
Energy = -86.26788953 eV
Mn 10.83524998992833 14.552295427640495 15.047306637830989
Mn 11.41950401214174 10.297853961404279 15.000825191329177
Mn 10.077280163392723 16.41728656036735 16.374314897234015
Mn 11.171624942373608 14.797571501589339 12.615928682829013
Mn 11.595672452099574 12.69902160608112 11.170138929191666
Mn 11.645675238666541 10.471282923636487 12.396151214027077
Mn 11.919725252579912 6.091664773617494 12.564185123680042
Mn 12.215568344437504 4.16365539118497 11.124033734932125
Mn 12.365120988610204 6.307472729361132 7.5141002976250055
Mn 12.114034437958217 8.440500644894335 8.520224091864119
Mn 11.7256201554082 10.680927165596524 9.590769781725339
Mn 11.290243740832322 12.906183276521936 8.603970176329744
Mn 10.352221902041947 16.989551889432246 9.07608295902178
Mn 11.021028633033682 14.919983278054385 10.152878832876143
