18
Energy = -133.50032354 eV
Mn 9.878696844613861 10.039192567651757 6.172885808247626
Mn 10.944045878407602 8.127877006593602 7.579986871750884
Mn 9.463444600576828 9.732183081559441 8.848520351659232
Mn 10.078979665085102 7.4997879127675455 4.9947606016927955
Mn 8.750049522243492 8.039805939954471 6.783625743017426
Mn 7.461947414463641 10.284544921156018 7.221748768979583
Mn 7.755702437700953 8.985747621347716 4.924285577755066
Mn 9.238280217630827 7.086580233471254 9.067562884808156
Mn 7.296076731214578 8.557122856539245 8.885155414962172
Mn 7.221473615548119 10.557583080634672 9.854912590224094
Mn 7.635113293393768 6.4873773316530645 5.3088589015257135
Mn 9.699320930500859 5.730211953939627 7.030013042238921
Mn 7.629035215027412 7.5254059722025834 10.93436079375063
Mn 6.084429595381557 8.010840812776367 6.903057517080336
Mn 8.184198063653508 4.994917903210382 9.595882742962372
Mn 7.539167123757993 6.156160610252137 7.604736320237175
Mn 5.090974928721548 8.903364758587776 9.266513717493895
Mn 6.015996906870102 6.492468558312011 9.28281673859881
