12
Energy = -68.8326188 eV
Mn 17.613117954551345 9.629415656828957 10.912697709708436
Mn 17.300529721180435 12.048019444239404 12.265777115213572
Mn 14.334436286875272 7.331389271996561 10.409359279915439
Mn 16.37439499474682 7.75164071808452 11.733654812818214
Mn 12.679979880354445 14.322052831786005 12.178328577909147
Mn 12.611639487178847 15.380463967350178 9.94205479091149
Mn 7.749766616384559 9.623199811490766 12.727821428666607
Mn 9.922103211101986 8.80592550134491 13.210052570622326
Mn 6.231909147302359 13.377162587674261 8.429654126711373
Mn 6.097274389429467 10.254117941796526 10.967620728014596
Mn 5.725095867116762 12.68210497548532 10.597021432580592
Mn 5.58053565494921 10.996231008953158 8.82711021622357
