11
Energy = -78.06414368 eV
Mn 10.635166198334742 6.8785980189069775 8.824100204175712
Mn 10.288479688218017 2.5781732154422223 8.90407799458558
Mn 12.034319241250497 4.439936051949938 8.270870112888764
Mn 10.528234895100656 6.048458495439121 11.387801350386447
Mn 12.370068664229757 4.59323852514659 12.449619479168685
Mn 9.762553202791544 4.883718836300792 7.150024084597471
Mn 9.570983179988932 3.5761303159996434 11.528387635665627
Mn 13.891018562139656 3.440519999409006 10.057651164523481
Mn 11.68624010187214 3.7020769384446495 10.528216654448968
Mn 9.905213771820293 4.821006817531633 9.422736209188672
Mn 12.623897096409625 5.965609850285809 10.091731585755472
