14
Energy = -86.75552773 eV
Mn 11.751806693279654 13.57785800779788 16.03946364945352
Mn 11.155911884530736 14.254700660222783 13.789658117489646
Mn 11.894889669607526 11.369039307901282 16.881743312160737
Mn 10.40249550738093 9.809460198207313 13.186609189437126
Mn 10.051362026915157 10.201468817963695 10.730827530061218
Mn 10.496286009111428 12.502904293911758 9.821288609439563
Mn 10.89674109376237 14.570118948727734 11.408095914610007
Mn 10.413797557705685 12.195219459965617 12.244882788185965
Mn 10.507473323965238 10.379782055502679 8.199660563187177
Mn 10.745878758996296 11.175584598706514 5.465013704170325
Mn 11.101148094110359 7.429557642598254 7.9244330612149225
Mn 11.258434346766478 6.194164135199098 10.009268263314246
Mn 11.545837895380375 5.805696277113147 12.271266453468018
Mn 10.774714955835078 13.53003228984511 5.022900022964232
