16
Energy = -102.13883326 eV
Mn 9.245690585751905 12.327970225131967 10.523761654275543
Mn 11.77422016238699 12.14046093477481 10.950522144568351
Mn 11.834748440785377 7.039829277007216 14.049851821857873
Mn 14.140451800619736 11.42439877104928 11.025777734276932
Mn 14.939691201535322 9.754974348476942 12.792822376143418
Mn 15.782882677935774 12.965369243984824 9.68195706092896
Mn 8.072094418264978 10.116973911912282 12.052977842884607
Mn 6.918819001094736 12.525816337276028 9.371353401454954
Mn 11.035312046577417 13.620965079391452 8.94951783955131
Mn 8.660189055758003 13.711712467770232 8.568090300433603
Mn 10.235979099738453 11.172300574718376 12.52293192128275
Mn 9.640298116527946 6.467029142064058 13.867889649109204
Mn 18.09805024116138 12.670069041994044 10.144698127487558
Mn 13.37531708942404 13.264253448534093 9.366491044974062
Mn 5.9504258969964186 10.691371082738803 10.60169039135227
Mn 7.755648508207845 7.568983864202805 12.976925462355663
