13
Energy = -76.77668836 eV
Mn 10.45147927659545 10.473319627540299 10.470479678673202
Mn 14.803106044560066 9.810051370156565 10.92401066616301
Mn 16.939443950742074 10.600222079629782 11.95076163474001
Mn 12.834334672663383 9.201826580761178 7.005602969738341
Mn 8.568318092598423 11.940277637889318 11.138290195602046
Mn 10.607362476561148 9.734082800165012 8.012862199771922
Mn 14.875513485529618 13.114693835869945 14.841192000911262
Mn 17.15363837674987 9.144606902470862 7.15239446871493
Mn 15.053931522674393 8.960533741526923 5.804842884429157
Mn 13.065444198380943 9.166016681208648 4.533565319572435
Mn 10.649397442323748 13.642337397126669 14.553071879556773
Mn 12.789567054141758 14.054766963524308 15.467093984589853
Mn 18.96246263173362 11.905839002759256 12.638322729996789
