17
Energy = -124.85197179 eV
Mn 7.735317389073974 10.631206474292563 9.300333291288473
Mn 10.210055743768194 10.271733208490089 8.294341071876698
Mn 9.153675878740124 6.390879952899115 7.2607551912450585
Mn 8.61860195125797 6.104397137382374 9.610678134884834
Mn 10.132977075890672 8.65997796571208 6.450137488106045
Mn 6.13022993844212 5.63442276805614 9.871722823682104
Mn 8.697889622122462 8.527418033700313 8.619742232610724
Mn 6.721740689667419 8.185131603593854 10.034824705536325
Mn 6.8351468530704995 7.002161654024163 8.054777173180533
Mn 10.781496111739829 7.583258345998592 8.74640786681808
Mn 7.757262047420378 8.158583732045988 5.993797467314867
Mn 4.86386549105059 5.2646471396565815 7.576030353253923
Mn 8.123719716812275 10.350381899659114 6.9093739664432965
Mn 6.075120779363359 9.240046927405443 7.651280744059894
Mn 5.369872942799194 7.200285817469242 6.173511647118576
Mn 7.152681816261514 4.721286990397499 7.729238796179543
Mn 7.342644973911498 5.834234917814149 5.6209299251110405
