17
Energy = -110.13196959 eV
Mn 12.494461976526773 7.307187022912038 14.226663016043295
Mn 10.912204275297396 9.083320068134016 13.828950737548789
Mn 12.497568499799087 5.460663259784053 10.413774323026356
Mn 10.445215744312062 7.084115824851102 9.774056847013492
Mn 11.361580367479228 7.137604240167018 12.057125781646974
Mn 8.999353349225029 9.01082812249546 8.996955286658398
Mn 8.756225186457812 11.01735590726777 10.50625395749411
Mn 7.833286385952898 13.115021135306996 9.724081734041553
Mn 7.378743894432947 14.938613921083105 11.322218708798157
Mn 8.42438005224562 12.96848855758192 12.247225730230808
Mn 9.598336257329478 10.950394143040477 13.001393153231485
Mn 8.279585290669287 11.23698983168227 7.897421986972018
Mn 7.212318714947295 13.804728545151603 7.26582987950753
Mn 7.894806268008042 12.220531572131533 5.611124403584956
Mn 10.185297791367297 8.160261663944816 5.00210738845618
Mn 11.47520698050323 6.366704137429242 5.700409800474964
Mn 11.836532904622365 5.724663742541005 8.01131869415047
