16
Energy = -100.38896746 eV
Mn 11.693074642565884 4.308481045812456 13.013389124371269
Mn 11.919914584143912 4.7806893824422305 10.662576201583423
Mn 10.97755842120377 7.277283562461265 10.100745707956928
Mn 11.337159530568016 9.721411797167656 9.822599490545272
Mn 10.60076579559989 10.499833229330601 15.285008150738646
Mn 10.464169225267577 12.638956794772511 16.14383728566671
Mn 10.461810093335904 11.317748685357131 11.669071375608697
Mn 10.295804865336029 8.89529628028874 11.964865174269278
Mn 11.148888203959135 12.118923077117064 9.307197638659344
Mn 11.753035888393065 14.54681570493496 9.053472622013295
Mn 10.551199413643268 14.775455900381916 15.315050384642749
Mn 10.687025611783502 12.877086360597978 13.672198414400905
Mn 11.49138545120702 16.33303833572287 10.879733775786908
Mn 12.2607920660442 16.85337601483476 8.654166063642752
Mn 12.64567575768378 15.30939727127456 6.935547856710552
Mn 12.0583500785455 8.092152609326325 7.887873728396571
