15
Energy = -108.89034727 eV
Mn 11.298332897308214 10.731718534232298 10.082544973570073
Mn 10.623761938586537 8.487827846571681 11.489099880664337
Mn 11.451144497222716 9.700290213287483 7.581388258639564
Mn 11.718363962458373 8.142884229291488 9.522664075565944
Mn 9.029187596642013 9.567336830182626 6.663676024252204
Mn 9.299660252993775 10.473891119247812 11.944007425767818
Mn 10.1930799371376 7.434423370066025 7.630643654976462
Mn 9.592621771893226 6.692624633302436 9.955618225534693
Mn 8.191541398432832 8.136348622704013 11.520116901697527
Mn 9.492219159887977 9.398855281776237 9.323503281029808
Mn 7.059492477272688 10.17527547315819 10.606016401464363
Mn 9.832905949446658 11.56018133051157 8.000504429081586
Mn 7.3595928132074135 10.742063536462268 8.13696697817633
Mn 7.609167924140783 8.197054316115356 8.95033121807735
Mn 8.779136079455636 11.822435791643652 9.9950337902173
