10
Energy = -60.15939842 eV
Mn 9.864070685200883 6.014733744942517 11.194591058835544
Mn 7.3818328449341895 7.652824696799892 10.247774900107514
Mn 7.310276415479698 7.63795643483693 8.31646769726593
Mn 11.325949750657369 8.545093676641246 9.16684233411939
Mn 10.34083564025671 11.922369057873992 8.821213389310088
Mn 8.343172914955566 12.014208797071737 7.594795979784429
Mn 7.762253083720231 12.087497200509866 9.803347550237559
Mn 7.898412190497529 8.686897209912571 6.46742073126993
Mn 9.554399422311485 7.049188058930276 7.790680286094594
Mn 8.066900544340582 4.445035605366937 9.629889469089791
