14
Energy = -100.91337476 eV
Mn 12.115704999343547 8.804316064263032 9.7416042854257
Mn 11.258596157460936 11.06374056346751 8.695967837269539
Mn 8.773907017656208 11.90929531226211 7.97225894238549
Mn 9.275020715471447 9.889059682961182 9.249461545045099
Mn 10.531840905783463 8.602986447444302 7.690115779706287
Mn 11.060761912351374 10.48281473383955 11.191213375470358
Mn 9.502892720657977 12.103810138075163 10.423812184700331
Mn 11.13349145622215 6.502599233051687 9.257582164429977
Mn 8.738730684829868 9.907317716733221 11.862969161934988
Mn 7.617106437663285 9.331925415051938 7.90192996735992
Mn 7.243211233883753 10.969080385503135 9.952151207309939
Mn 9.825725669935544 8.210051742677297 10.392486959771668
Mn 8.64260091848884 7.07446002130597 8.619404463208788
Mn 7.197410927820065 8.40511865482146 10.327954267105632
