11
Energy = -77.98142761 eV
Mn 12.171717073242046 12.432382265361287 9.688393952934236
Mn 9.921583970408884 10.146559819400387 7.468024499067371
Mn 11.897938521874188 9.085616754045262 9.235881419897144
Mn 9.733246556175065 12.503496613990405 11.054913415450866
Mn 11.818872564241879 10.46237659779929 11.47318013506839
Mn 10.63941168475951 8.037025312309462 11.43837934991777
Mn 10.552949185416477 10.933618552818006 9.520628538049921
Mn 7.771278177423969 8.328864496097045 11.13031666335387
Mn 9.436505894975127 8.645570155394768 9.379717513648409
Mn 8.088620551302695 10.74204216272027 9.504460602328386
Mn 9.371733618287992 10.08630506817139 11.50996170839145
