16
Energy = -102.05072595 eV
Mn 9.852926779792815 8.344436885695949 14.750483789697567
Mn 10.937344507509394 7.1368746758146315 10.17837309670698
Mn 10.711267185043392 8.883905853060726 8.495159551020773
Mn 12.310321445648361 10.311843010675421 4.6137104012761485
Mn 12.05060887566655 12.53425706581212 5.513584765923744
Mn 11.233286842088075 13.21122003280816 7.629453087311178
Mn 11.115284112454901 11.981704838361892 11.703636613156672
Mn 9.811258737836456 14.263491865067401 12.131768816892723
Mn 10.058701686777866 12.348888952418102 13.945812593829523
Mn 8.904595283897105 14.430012335695602 14.41318152237802
Mn 8.812960623856101 12.74916594240485 15.985126314918892
Mn 9.365722389175154 10.4498554493282 15.716349391940549
Mn 10.896209169121502 10.068062659714577 13.274840825518188
Mn 10.933181852870954 9.616510762414197 10.804120289107322
Mn 11.571550744213786 8.419294793935464 6.196233455018156
Mn 12.437297569823102 6.240916715544542 5.659314521521472
