19
Energy = -122.69992695 eV
Mn 10.70550182795912 13.208141907947343 13.542279351552992
Mn 9.946539066736714 13.82914631905924 16.089063809301095
Mn 7.561888931355848 13.931161872691 16.330541437403305
Mn 5.929112921147796 13.434104587815284 14.720337979826425
Mn 6.391393850205661 12.715236374185451 12.418622626894447
Mn 8.909541656616708 12.704385255259098 11.81066290993405
Mn 11.394519687502246 12.287081251243753 11.273254194406539
Mn 14.65910915888315 12.988856842666484 15.117891791452815
Mn 15.345758547560886 12.065389767925236 12.835625094633219
Mn 19.338725127245862 12.024891605887293 14.466057258794223
Mn 20.09454318585688 11.25442297805531 12.339998486402175
Mn 18.660639807573343 10.866384182685332 10.507500603192245
Mn 17.75284537515691 11.735399313291914 12.59686396871264
Mn 16.32221466430768 11.248383662918519 10.57133170483527
Mn 11.98552454685648 10.963269140169837 9.12348570174049
Mn 10.145145962001022 10.345657620751245 7.724234832422715
Mn 7.8971615971163756 10.70341661925396 8.219651552666871
Mn 7.0344396875197 11.786012929974476 10.240519574467402
Mn 9.576544811166412 11.558057376639944 9.719038931030386
