15
Energy = -107.95212987 eV
Mn 13.123363309157137 11.096081135679666 10.471243611367976
Mn 14.725354126533333 9.835336519429676 11.843686435340913
Mn 9.424270321299302 9.58408338147947 10.796462877660515
Mn 10.980207696083372 11.431420768190511 9.443709944942123
Mn 11.8950917165681 9.835645342905071 12.079379408785313
Mn 14.766862040562376 12.696258459576638 11.354824727490136
Mn 12.760231369645682 13.4672955836021 9.570714994078676
Mn 10.201853653585916 13.72255795965356 10.422794211955797
Mn 9.755405108637834 9.415185863788913 13.356469725229237
Mn 8.120693296688298 11.25522071695961 12.36068009013325
Mn 8.465817627489459 11.75080623212782 9.743759717224018
Mn 12.209020466919966 12.896487015288523 11.70693261244483
Mn 13.35456174007837 11.45850505487243 13.092948825274114
Mn 11.11531590114664 11.606745897247013 13.97216578516157
Mn 10.337306715078412 11.632415367223055 11.742749237103796
