10
Energy = -69.65913619 eV
Mn 7.774108097290704 7.336658521623337 10.645679786279718
Mn 7.622386083364441 6.03988390521446 8.562070234563903
Mn 6.031908181840781 8.810025445783317 5.499248554788691
Mn 8.255924771724569 9.081569049902559 6.659740600964819
Mn 6.42226378155918 8.435615110728984 8.387555188854721
Mn 9.586716859680234 6.785907071538538 7.185467836525434
Mn 7.150447951060823 7.1027106264614215 6.68283896490834
Mn 10.008662678788095 6.388525925198981 9.750654868790862
Mn 8.895685516899277 8.453602084589589 8.801245126442357
Mn 8.535199523862715 7.535893522051812 4.780669540689851
