12
Energy = -85.95294464 eV
Mn 11.22226102945285 9.57275709401444 9.294914465322984
Mn 9.42532232929584 10.832971661665574 10.575798057783324
Mn 9.8541193263623 11.119706748334142 7.885633567836323
Mn 10.282719539346509 7.456959329726046 8.751422268560773
Mn 9.859415665443361 8.317636215153149 11.154653978290387
Mn 7.404365033219313 9.18587512124744 11.078867567002014
Mn 8.56819535700732 9.299445858739112 8.969082602302343
Mn 8.168521513363192 7.197893397726536 7.285891000847829
Mn 10.150475487926151 8.860562373903695 6.835560809538843
Mn 6.330621380088936 8.470665420017509 8.616996387851074
Mn 8.0325208533828 7.056737688802411 9.852714648130645
Mn 7.765792319408831 9.732268158028571 6.780889182429214
