21
Energy = -156.00033727 eV
Mn 10.980295477672133 6.623487948020012 8.206915461223184
Mn 10.309455880980982 7.3379951447418215 10.414518923347806
Mn 8.466294983826707 6.983683973142639 8.175633820819824
Mn 10.142301156441663 7.770630497445341 6.306943514578111
Mn 12.439423787434633 8.289463762295913 9.658372694942564
Mn 12.152162257818036 8.724814037752155 7.042420025082371
Mn 9.748565834445255 9.091036623666296 8.714720488977608
Mn 9.004380526427635 8.756279373025107 12.156791577004864
Mn 7.98516371586428 9.016155438651056 6.474021454366818
Mn 7.793425438739396 7.511670376824398 10.54044205913729
Mn 12.089671919597464 10.461150165930727 8.644976670490845
Mn 10.924837549059816 9.862316664019348 10.868065798759002
Mn 10.21012158914408 10.411872929826721 6.767832342005898
Mn 8.35069189790317 10.300213568835145 10.495381512458716
Mn 7.26791052241912 9.070742699420665 8.785382586598587
Mn 5.317538076000917 8.497026703393578 9.735709297995307
Mn 5.553497787312871 9.756397894683406 7.40560070048679
Mn 7.846526674274243 11.183713851782116 7.751134673801011
Mn 6.445401466761896 9.277299190436121 11.797481501655454
Mn 9.908964563993385 11.602324138899515 9.202488694123856
Mn 6.104272040429566 11.031088449090714 9.788468787438482
