27
Energy = -203.359903 eV
Mn 9.271023103384525 12.709645354440918 9.876952551435053
Mn 10.608605538518711 9.55597873817833 7.396912645099189
Mn 9.273561192845014 8.357237073864553 9.227314494995072
Mn 12.636298840489003 11.50022027075448 10.925408200238893
Mn 10.03799459003313 8.48068446517852 11.526269656811605
Mn 10.391062075843463 11.923944019276048 7.997815870658086
Mn 13.027140584445522 10.783004916730512 13.338022299089868
Mn 11.636047801815236 13.435157153735132 9.772741306024951
Mn 6.927069594911851 11.535188513359348 10.057874967077773
Mn 8.605867252413466 10.544669736790977 8.782660435792419
Mn 8.773928052698931 9.943535503793935 13.360334466176262
Mn 10.465519080625134 12.610830347215872 12.073665082297632
Mn 8.967822401981332 10.662627347152505 11.139616682738552
Mn 9.210201159534648 6.39144909724532 10.664913984992305
Mn 12.669633906267507 11.44002924230064 8.241711025994924
Mn 11.283815455593478 6.542293090122658 12.242327336227358
Mn 11.041542806028495 10.087325121002202 9.753122610864198
Mn 7.565097905968955 8.799049375087792 10.955227892453523
Mn 8.951527360539917 7.278855988013711 13.123306974742658
Mn 8.0691597601564 12.17311403135572 7.280095354699331
Mn 10.978315318420757 12.335624739407205 5.893479579146316
Mn 9.817825104141173 14.210863458274416 7.865971772949474
Mn 11.090133347069472 8.554681529255706 14.003483113048382
Mn 11.478292137071135 7.4578383172935485 9.689205596932464
Mn 12.442391699310706 8.763201653079587 11.754240752043009
Mn 13.330480751884524 9.351468052210247 9.671286724505363
Mn 10.931549136770851 10.42120652269226 12.53953801766237
