25
Energy = -185.75289659 eV
Mn 15.243158396594769 11.670950478468466 10.803620509005272
Mn 13.25424980341126 10.919810346027639 12.53959509546024
Mn 14.33972501935293 9.133165445598575 10.933773203983256
Mn 12.986291481349628 11.140874113853666 10.050789077999555
Mn 12.567364451610233 7.277801826863608 10.179446796253734
Mn 11.893748817347138 9.080822251004047 11.488980765103332
Mn 12.697395250817337 9.233141882590564 8.727579012257483
Mn 10.897218379257676 11.410408759894073 11.170323236825435
Mn 10.930474122323808 11.113443518220876 8.45748075591695
Mn 10.555850957651371 9.071616950572235 9.742375345710396
Mn 9.467538998713279 9.57704560179633 12.335384534734018
Mn 10.168670199821262 7.061930983408792 11.149857318840564
Mn 10.547302054497512 8.51947583422684 7.28506830074847
Mn 8.936794957928063 7.594425982086788 8.918433698126913
Mn 8.338337952543412 12.136737209522442 11.591618920418913
Mn 8.745055058550474 10.433428771201235 10.18808968034187
Mn 7.979230033682606 8.133887486069202 11.135793870077366
Mn 8.641051706498772 9.947825336405339 7.911663953348613
Mn 6.650836690394749 10.220070768581026 11.759465507313859
Mn 8.747063125792799 12.3147053833488 8.496856969944869
Mn 9.823936946498398 10.90421029807103 6.209704730813264
Mn 7.772800085272711 8.260738194326878 6.71353335986745
Mn 6.630303506525233 11.644426062857763 9.6213661384669
Mn 6.788374448573045 9.069944622587172 9.229984730838929
Mn 6.777426643174543 10.948928708276132 7.036811734715342
