23
Energy = -171.26175421 eV
Mn 12.583280053944577 10.133378172102743 10.645354522720032
Mn 12.814517231572454 7.533197838122653 10.2684603752268
Mn 11.030173218251077 11.16359886128758 8.630045503461208
Mn 11.265566211285552 7.578727765888809 8.250876842663748
Mn 10.384542168996 8.158851444928226 5.9727608860920816
Mn 10.730526540619726 8.848138067435606 10.19481867652327
Mn 10.401297891073392 6.314474875783903 10.216254720466523
Mn 9.703450877627377 9.358797368970903 8.08951591052609
Mn 9.450512955212076 10.727599233659937 6.258366791298689
Mn 9.665028680824712 6.035083507658523 7.35209836143159
Mn 8.52504650980635 11.707174579992666 8.399798792383935
Mn 8.027998433165036 6.435763600884632 5.340244284888146
Mn 8.68917378256454 8.215978883247354 11.399943193846797
Mn 9.10654668138187 10.603505507517843 10.486260938253805
Mn 8.602996028377476 7.2848996250387845 9.1132100088802
Mn 7.109809599658005 10.147493332933168 6.740071839796929
Mn 8.106692753035992 8.082061634435247 6.82178204606214
Mn 7.485667164458142 9.312159583731262 9.143862513060958
Mn 7.021016355272894 6.049696546208354 7.842782460165685
Mn 6.618552276149619 9.79609382843886 11.235186102903873
Mn 6.46487174438282 7.238749599274667 10.231942243098056
Mn 6.070946542569484 11.14678108319944 8.834462299398172
Mn 5.735973158928863 8.35102869770261 7.80425739273767
