26
Energy = -180.66812151 eV
Mn 12.98841981657581 7.799363683298828 12.252907868776783
Mn 14.895311488290037 9.488853283453134 11.633037127680955
Mn 14.0171064487957 11.928683826124741 10.742451337832726
Mn 12.536192311385973 13.834638096757384 9.748714276607714
Mn 10.705158414483247 6.322054732239591 12.759887207213211
Mn 10.130075991764706 13.904345449529238 9.362357777981666
Mn 7.728895637179065 14.458436579632883 7.629797497385582
Mn 8.853612321540762 6.403504431410589 11.00154744644829
Mn 7.117226884753204 8.445911552532952 11.98229708402481
Mn 7.812388412847057 13.167295506052021 10.005022757783548
Mn 6.523938244513912 11.027877173970802 10.937771503060118
Mn 9.072796895501003 12.60137990982819 8.011443100204936
Mn 11.485926591521176 13.137469613469008 7.419570478274287
Mn 13.577085182564108 12.04892217006783 8.271996305331045
Mn 13.774357858331694 9.931039575602433 9.329495481512703
Mn 14.062291439698464 7.565820387241118 10.146430168027845
Mn 11.63902784579075 6.3102801282211916 10.572492788009935
Mn 10.221335791009922 4.299405715772723 11.284596795394416
Mn 6.601386951351234 6.336578119047814 10.679168418049638
Mn 6.756720489391774 8.680008203011718 9.609665854968616
Mn 5.214834018396592 10.465842008297756 9.093938218103157
Mn 6.392475603521346 12.302306857691912 8.260604228108415
Mn 7.951203645308284 4.290212848984581 9.998954634380507
Mn 11.409299909610127 11.619961532722643 9.444211190126877
Mn 10.472996676518555 13.286870760087334 11.400996021199228
Mn 8.33347811367597 10.653264381693207 9.346037864776848
