25
Energy = -187.87659964 eV
Mn 11.593350692798175 12.868835506025864 10.28211286450115
Mn 10.114676595592918 12.563647823228706 7.919776056434648
Mn 12.483408917893396 10.549784291702858 11.48422787058489
Mn 11.757906939070804 8.504412061991907 7.244118938035788
Mn 12.149877843174606 8.14319967458606 10.085238417811155
Mn 8.808679725141449 13.240976505221058 10.853282487884487
Mn 9.632949594723224 11.304340177715694 9.722754688282295
Mn 11.757926849474588 10.5571062064042 9.143050110678313
Mn 9.455609784992436 10.26875840664203 7.358954097537738
Mn 10.347929485919336 11.698694726363096 11.979666064817804
Mn 7.481666647398251 11.447101875519012 8.800265234798523
Mn 10.410075422277345 9.495601049539024 11.22329003645625
Mn 10.13535770799338 8.654910104536263 9.044121590484446
Mn 9.306408106244993 9.413195652418995 13.142457124776065
Mn 10.812205732412632 6.282321596416884 8.716335782566016
Mn 9.50002658659895 7.535443548979394 7.236198591974645
Mn 8.623292247110433 12.002021646615887 13.548754489219641
Mn 8.969746302603518 8.677657462676436 5.341311099492
Mn 9.71716830023161 7.311950500829531 11.213419355439052
Mn 7.448456495776325 8.8698533798239 7.599837557591565
Mn 8.103670255081871 9.298969322252335 9.813755047232288
Mn 7.830270695178157 11.002747356455469 11.492050486269788
Mn 8.168691744993744 6.884549855503967 9.258311724587035
Mn 7.438475606385845 8.423614188212321 11.772114686343937
Mn 7.612278670153211 6.514536526930327 6.50250134780871
