23
Energy = -172.27162124 eV
Mn 7.628454566512004 5.708067476464382 11.01068658665092
Mn 9.3061310874753 5.5781610684443095 8.935172197838495
Mn 6.860540846633216 5.407083205987403 8.540214991780696
Mn 7.746075929354044 7.653536386709447 9.147672230140264
Mn 8.334387191719623 6.580932589797303 6.721363336185932
Mn 9.70443500361494 7.115031004405517 10.722935291602417
Mn 7.451761750049073 8.289888378043724 11.237171647464846
Mn 5.506656647338282 6.822836230640847 10.165022640076861
Mn 11.137225791774046 6.504985012772137 7.3901789567466505
Mn 9.842696324693017 8.045692625385348 8.304759839104415
Mn 11.712166373116156 8.18441026089936 9.846360488012767
Mn 5.939308745224552 7.688282622979083 7.677300239641254
Mn 8.000518618929766 9.030289985365885 7.030179445758626
Mn 10.00780251062769 8.580453401340872 5.806124592594766
Mn 5.5109243741802 9.242393337900836 9.799419465725412
Mn 6.8157541552866086 8.21263342507384 5.273217955503348
Mn 9.597422693443534 9.609359039710382 10.240705554553834
Mn 7.555408703806633 10.708461649520267 11.298982456008826
Mn 9.780141672779205 10.469579013195444 7.882190834801522
Mn 5.926181866060148 10.15570286099591 7.0759165933119945
Mn 11.862384394997864 9.149854282213079 7.531915564148768
Mn 7.4837055654408156 10.278334994191015 8.995235519625101
Mn 8.212982511695525 10.611291963677258 5.443621318435547
