26
Energy = -195.86503503 eV
Mn 5.12396648496571 7.628221738111146 6.5791987279247435
Mn 8.442177184979721 4.900554429174888 8.675491706024845
Mn 10.996717631424692 8.251467386883384 7.934789340647709
Mn 7.370256419229457 10.751019222447379 8.048645384812316
Mn 7.4929149596084095 7.071250108936413 9.037305657428734
Mn 8.446982152649383 7.081680423156011 11.349505711508275
Mn 12.509549077226986 7.364299209308238 9.419715827714164
Mn 5.750327083234844 7.905008153752542 10.771998068298263
Mn 13.01054580934111 8.727282396953523 7.079528350120548
Mn 7.010810831332025 5.7980472991793235 6.496698848776554
Mn 5.857382490087916 8.841429361503524 8.505178760073598
Mn 7.39272282366049 8.369511128198845 6.543401518928104
Mn 5.5109206040796 6.044566606138751 8.716942099421974
Mn 8.817597539066341 9.065577673790095 8.227254520007934
Mn 5.591112332991526 10.272408240398349 6.494567252543177
Mn 7.725970648585294 9.160802080466942 10.218243088467016
Mn 8.872157742498587 11.268178812165711 9.883156053398432
Mn 5.96748465135654 10.776949896554793 10.069129887414555
Mn 11.293299742832197 5.935951779900492 7.430150742775038
Mn 10.065731491056145 8.489529304396612 5.8116382489208185
Mn 10.422797508271518 9.050878239103533 10.292894047171872
Mn 9.843671910730542 6.815511293792583 9.455610869447371
Mn 9.032899144624496 6.766023494475494 7.177662095635352
Mn 8.462953958340785 9.911609104111319 12.2249025790339
Mn 10.447351659726767 10.59400238155696 7.567589026960384
Mn 8.279731247121168 10.473322901358175 5.85250365656387
