29
Energy = -214.62316323 eV
Mn 10.547918201961188 10.221503759963245 7.010314067564729
Mn 9.808931945509288 9.999527849477847 9.178305187588823
Mn 10.771075612356114 11.244439829260129 11.06736011617275
Mn 8.3927432662777 11.837514886490242 9.94272998587127
Mn 10.078471835757712 13.713287075900501 10.263688982348208
Mn 8.694268374968727 9.904827927768876 11.531138661666988
Mn 10.189869192749905 8.187542437126977 12.89408050175455
Mn 12.231924842263398 10.278845673090872 9.015278001233526
Mn 12.304677613634556 14.138537438155033 8.628046792351704
Mn 8.781467067908169 12.3666356894577 12.371936353152222
Mn 7.590660856382394 9.063110326520006 9.549234547191578
Mn 12.002576861666169 9.17201018242083 11.277549601198052
Mn 12.506235779908298 11.786052408664668 7.032771340797332
Mn 10.735807037532675 12.159641140320943 8.7125799418735
Mn 6.656219018323279 10.77086003960039 11.921552502385238
Mn 7.919231659746512 7.353197827860368 11.650333004345484
Mn 14.512630621473894 14.302514754435826 9.946980938676592
Mn 12.607693599401209 9.088482895765942 6.765905560606187
Mn 12.302180934088163 14.690893214229304 10.892943861321596
Mn 10.281102317373414 10.5966321516425 13.391448224392224
Mn 12.834246080199309 12.260611255864859 10.499448438676549
Mn 11.188362040949235 13.08242716262129 12.511235491285543
Mn 7.963961190942189 8.949805557688855 13.568546123011142
Mn 10.073075597067563 6.022037746829227 11.720858670197059
Mn 8.940411034130655 6.617015828767906 9.334243086611394
Mn 14.36223297943015 9.813989390295761 8.307799430161989
Mn 14.121609403206136 12.382352591476405 8.42237884732241
Mn 9.947151424592057 8.155358449989725 10.543498248278357
Mn 11.48694751667951 8.044835326735031 8.767571413355142
