27
Energy = -184.33216631 eV
Mn 12.420371492341975 6.832204948079663 12.930622427825208
Mn 11.455365082963386 7.507813624061476 10.91853566664763
Mn 10.154683781383461 8.378801831444845 8.885838314821937
Mn 9.148143954147745 10.68952355059051 9.007757404640136
Mn 9.355929207856892 13.026794221414644 9.160644740321372
Mn 8.585529647821906 14.787935526971005 5.752308547270628
Mn 9.249572963830735 15.501219263680763 8.135278535320696
Mn 10.231363770015271 14.92070037095566 10.35501367485782
Mn 12.38520719023398 11.76165680796274 12.305616655196873
Mn 11.227953325860378 13.965578819979832 12.0029215058113
Mn 11.868612008783007 13.29463844660005 14.404004129116794
Mn 12.801977677774552 10.110169190977965 14.186061721967494
Mn 12.179055898191953 11.867750682628342 16.641287349877736
Mn 13.431349258398347 9.62949129717527 16.387995081038362
Mn 14.450803919036732 8.25994846607582 13.227560747954163
Mn 12.673361672125798 9.240602463193746 11.866629023909914
Mn 11.092401781214836 10.131083727526114 10.481846513932284
Mn 8.78204483791261 8.61598569021058 6.816504295851135
Mn 8.466518961011232 11.27828708471521 6.645382747410516
Mn 8.31195561669635 10.019934700685505 4.591110225683498
Mn 7.990276317961293 12.62511135274002 4.650876502689008
Mn 13.506538887693162 11.850021073526452 14.599920283145266
Mn 10.562350824420715 10.358805112134618 7.217225330558167
Mn 14.710732631341463 12.63075371393319 16.397644049050257
Mn 11.501055180022366 8.227397821407607 13.81767318668939
Mn 11.512980801277227 7.838921479613135 17.472443033063062
Mn 7.651946456405279 13.273373397649346 7.365058913901918
