23
Energy = -172.06962045 eV
Mn 9.742106722021376 11.470005166579732 5.991372357112739
Mn 10.986595301526389 11.130508292770779 8.017911485674261
Mn 11.196704533140453 9.23961753460628 6.31824480284107
Mn 12.507960949820959 9.227563312923554 8.783828349334948
Mn 8.92110110176715 11.753502556783053 9.137720210593484
Mn 11.2751384703203 7.000773449832668 7.790695205073465
Mn 8.60951388056977 9.988002313529261 7.269843077393629
Mn 10.227209497446802 8.965209093953387 8.61964477223269
Mn 7.136842633153938 11.746338601908292 6.599316650276519
Mn 8.998986938595134 7.695241973142553 6.558987132680266
Mn 11.029414551611746 10.565573641693385 10.473415863706586
Mn 9.22537709177296 6.627848116983986 8.998759880869942
Mn 6.427579099448761 8.952466280025387 6.810503943837639
Mn 5.677955178986033 7.458745610378611 9.2902150020435
Mn 9.157458065184098 5.028046201758795 7.287461939306865
Mn 8.71855300437158 9.61395689856446 10.36458852892449
Mn 10.55825430424173 7.896424939476897 10.67196804878342
Mn 7.646074144255025 8.349230042930797 8.791588983937594
Mn 6.388713381516681 9.592287412761756 10.890364284452977
Mn 7.01328094930663 6.419007374720473 7.244921176618015
Mn 7.304449558484701 5.230124719311338 9.35817238580845
Mn 6.729238074668831 10.61616274309004 8.746898473860698
Mn 7.795108467545152 7.296631313687807 10.99155058944323
