27
Energy = -203.29864193 eV
Mn 11.797016842976822 9.815658030646922 10.51088000445818
Mn 6.952838812672096 10.757079907802064 10.225206419735523
Mn 8.845654866480407 6.334996855940493 10.636965211948144
Mn 8.431160382335365 10.377129472371069 7.832770582700343
Mn 9.053251425728599 6.145048709800021 5.712644055229201
Mn 9.201605090564913 12.338071230431623 13.30925948906962
Mn 9.381314116238684 7.933163943227766 7.045614706053104
Mn 6.404663460237126 8.7914074766604 8.745310508461886
Mn 10.118691218356911 9.60775988143047 5.662925941990014
Mn 9.877734311889201 5.744997513199707 8.209193118278725
Mn 6.928805723004092 12.324162917202969 12.151583265697468
Mn 7.51418482202344 6.503188374727557 8.094368629706386
Mn 8.723251310143464 8.274335111985078 9.171373089496555
Mn 10.823880400595492 11.816426390808063 8.921222173291785
Mn 8.67901447358736 10.388023638164197 12.205042977694308
Mn 8.547548511463553 8.13381915090445 13.292008735212514
Mn 6.425023471520501 9.882517655425119 12.804219364833152
Mn 8.823187871542565 12.594271364795205 10.621840027979536
Mn 7.3969680009492285 8.48673293401946 11.083956604074599
Mn 7.305246721107601 8.457406326519054 6.2263618135925896
Mn 11.582633526802578 7.298101277375512 6.723313665566048
Mn 9.954687639250995 8.360090767648652 11.373251189585613
Mn 11.057612834886436 12.035823653496847 11.530677367483424
Mn 10.811959539895696 9.98393865692648 13.076358945134967
Mn 11.058580739337279 7.479389324871508 9.43960673406844
Mn 9.47684071562232 10.333630789274983 10.039251985932692
Mn 11.017055331052829 9.526255717278827 8.045403414292286
