28
Energy = -190.41241109 eV
Mn 10.591499476513922 11.472160090977138 5.312428350956043
Mn 12.717818675155337 11.151675056020574 6.513102455580887
Mn 12.222563094058815 9.349953227887687 10.935169977687234
Mn 10.132624155787266 10.47043986570759 10.129723973428247
Mn 10.051407623178296 9.044981315196749 12.104645590545083
Mn 14.377060366758668 8.652743523928846 11.5200497468902
Mn 12.51348345639099 8.092321942813447 13.22131131338259
Mn 10.896479275743726 9.120540032413954 14.782304491087555
Mn 8.629764342582876 9.849265209486038 14.022576597905582
Mn 8.050109186150694 10.807717074494802 11.360158335545027
Mn 8.343092319479403 11.715263908905595 9.017466017251433
Mn 6.633776780770002 15.296852117514305 13.631137466988797
Mn 6.452568106382143 12.001828024040263 12.701353517157738
Mn 6.08733258874961 11.450237151177559 9.975239717753864
Mn 7.374850133768827 11.713439291845187 6.95856752786486
Mn 9.132568022826792 13.180931387104124 7.153110211263672
Mn 10.347393889738845 11.125069729197172 7.61631043113174
Mn 14.319072468630589 9.14659246593285 7.288743519542228
Mn 14.279551777700835 8.039762111415769 9.447247568827294
Mn 16.608244422996158 7.7527869108363845 10.997433649618428
Mn 16.44142833715655 8.557046365669452 8.546137763641056
Mn 6.966630876730315 10.568826450566053 5.0580673268547525
Mn 4.343455481349805 8.547118756092972 10.938302704165563
Mn 12.021600537711858 9.46751103057672 8.471299496428994
Mn 8.800703583902544 8.324132673736862 16.009186715915725
Mn 15.227525033338559 7.6823641346827864 13.426225005201177
Mn 11.374977413137067 10.730550498604988 12.948236580788157
Mn 6.721996521043918 13.525301433390847 8.376615094104974
