24
Energy = -177.23292364 eV
Mn 13.73721489744846 7.862503833766212 13.606929450888934
Mn 12.125626405196508 7.114125128248681 11.908898278758713
Mn 10.934403507912885 8.72498646894334 13.36231352857773
Mn 10.555058196063861 6.2521526349986365 10.1491045552195
Mn 12.763552388694523 9.440638479124619 11.53552874240762
Mn 12.01393641208846 8.087022602078756 9.426279589269107
Mn 10.31234249046702 8.607435130918436 11.176056677415707
Mn 11.127260922449885 7.0230174089158846 7.382379412859619
Mn 11.307830979029484 10.298923104255314 9.73002310819159
Mn 9.473091391271577 7.836683170590004 8.85643307585116
Mn 10.69004373909122 11.017355043710142 11.867558408311686
Mn 8.991153080159943 8.394194521969808 6.466568646380298
Mn 6.218239523685674 9.33188636003177 10.682176803522719
Mn 11.142886240358443 11.809642069743258 7.082906640301816
Mn 7.232691734255401 8.835963058914624 8.449345957923413
Mn 8.439301565617873 10.787210452291117 7.274532452082896
Mn 8.120576440934553 7.621601456806086 10.819913918198944
Mn 10.694160711816115 9.559179826623708 7.617744985070242
Mn 8.280090601402499 10.023920233364088 12.012883634634168
Mn 11.654510900072504 12.688188907890048 10.163611397204374
Mn 8.853087120637403 9.942844740368708 9.73550025279062
Mn 8.881427998697728 12.416901440113783 11.007041731116141
Mn 9.834721270450686 11.859220026039862 8.977592459871627
Mn 7.133399266575524 11.408229153563038 9.49107406659945
