20
Energy = -142.67513659 eV
Mn 13.686400932542853 10.64673024115998 5.385889694965989
Mn 10.2386394337459 11.646394450619962 8.201272700455032
Mn 13.107291318889985 10.127682527322277 10.775458586800669
Mn 12.655752723526387 12.34813668992539 9.54675959556514
Mn 6.72625421740542 7.706570823511449 13.314749587475031
Mn 6.586058483767123 9.502395645318662 11.325672759743231
Mn 9.618376083690654 11.123444729490998 13.317062913518187
Mn 7.832543833772089 7.944906108709554 9.543240337715433
Mn 10.95069041933606 9.195143042043965 12.169324118380095
Mn 8.181776216787265 11.054969662433097 9.644253887770873
Mn 8.84348431985392 7.2169773214797175 11.754138873206069
Mn 9.096450083414538 9.406979768289682 10.82869665360437
Mn 14.315684205735602 10.653541713288817 8.27885056630302
Mn 8.43257721576404 9.264054388853795 12.902225396036277
Mn 9.964573905833609 9.203260866948662 8.52767065983313
Mn 12.516810310408257 12.05803309934924 7.032249450423205
Mn 12.170592090535182 10.089290749416985 8.444941298552974
Mn 10.753332920543896 10.912275284920138 10.371446060045534
Mn 11.298796325614218 9.928232547064455 6.218262504157229
Mn 6.671978483672402 10.447252452373144 13.76336895837949
