24
Energy = -176.98041092 eV
Mn 13.744419621066575 9.378587893567317 9.277976237634336
Mn 12.680567464514276 10.269024528034263 11.44923932810475
Mn 12.02360782104745 8.307776371231718 7.598625838918049
Mn 11.50807897175494 10.509292181059857 9.025686284061985
Mn 11.9072724638618 7.936298975743209 9.957359047377278
Mn 9.725142151060222 7.264276702181158 10.810598651444781
Mn 10.602897674914171 9.630883961368841 11.11522399895707
Mn 10.008697353544598 6.80634801095292 8.344272519369623
Mn 12.022517675229501 10.574266839809255 6.75190983331426
Mn 9.200107062433592 11.325322230487327 10.115833549080177
Mn 9.512766065870595 11.048708696691337 12.577781832381799
Mn 10.093034777552571 8.798331060425811 6.487959976190036
Mn 9.82891921313373 8.929138562714208 9.051181228693244
Mn 9.830292437215366 8.28741681027845 13.017438012837946
Mn 7.682848615941565 9.562718609243237 5.575607986729798
Mn 9.335931806871232 10.776331398315856 7.504713495503893
Mn 7.5639899199019105 7.475181674744284 9.529413742398255
Mn 8.201980018092543 9.21730284139486 11.414757463765373
Mn 8.077129663387788 8.409392430327184 7.505740929499077
Mn 7.49177759558781 6.9912215771038655 12.046672550740244
Mn 7.4897822908710285 9.971888542040675 9.175303085077866
Mn 6.7081266781660185 11.059354166068838 7.367756361076891
Mn 5.875154444896028 8.806607009914122 10.55356302202206
Mn 5.771823710646776 8.6279426220434 7.745003469299866
