26
Energy = -185.60554774 eV
Mn 14.852742553701091 12.683823902682025 9.477693366519565
Mn 17.229483970673794 12.765859288874774 9.608992153132519
Mn 13.280277310291655 11.659243510345872 11.652974829168222
Mn 12.325199801278783 12.318769371317257 9.697766999201415
Mn 10.557734607796204 10.838249799279367 8.054920263631157
Mn 10.905938991196873 11.08869134475255 11.049397045286106
Mn 10.98099985609334 11.202087696375518 13.366476996376095
Mn 10.04125769165376 9.054927480177527 12.402218796782023
Mn 12.31568676872945 9.624851606666054 9.773986702186605
Mn 7.7723063204332945 8.94707068925087 11.775383449012077
Mn 7.2975881569240295 7.415707550801996 10.224869553087899
Mn 5.828535248465315 8.22229245403634 12.757338158307505
Mn 4.884383680338679 7.612875250790646 10.292587129981897
Mn 6.168798112436927 7.596684779763365 8.01054198271374
Mn 8.365762615578918 8.622756763098431 8.62788436867023
Mn 7.4544053980783564 9.812250284706192 6.7547056915098524
Mn 9.97139129829981 8.335237675018316 6.808609910468207
Mn 12.49399326048339 9.149970252720689 6.865189423646006
Mn 14.636021606750706 10.522840927695325 5.656573180766287
Mn 13.361062204313823 11.215601778693301 7.830517474963088
Mn 15.443044867107625 12.516124465792691 7.14324055517632
Mn 7.762407235216464 10.1374647378392 13.763828273952829
Mn 9.575604212510916 9.21233364916657 10.056244752691939
Mn 8.63468093781208 11.216639103787621 11.449664222484488
Mn 6.607526651471372 9.745989443131913 9.816773539298893
Mn 10.762054546175849 13.245022914644409 11.51944090710438
