27
Energy = -173.3504521 eV
Mn 10.381412275290971 13.919436033849856 13.686238613075544
Mn 8.000483884639356 13.805012682389492 13.140923238408854
Mn 6.2074551989289475 13.051954052740664 11.73469135679813
Mn 5.303818890039536 11.833100527410291 9.806673700422529
Mn 5.566300906740559 10.467901165282738 7.876585623281508
Mn 6.937510993680453 9.19445138624319 6.295854914192761
Mn 9.008108376581237 8.3638991803793 5.449933654510387
Mn 11.44501557472446 8.168853183755276 5.593887859603927
Mn 13.587511913199265 8.57740194362582 6.574912640499152
Mn 14.944744960520492 9.620048117519197 8.305074570277887
Mn 15.28540750667215 10.921337976447967 10.307628145352327
Mn 14.451607447299333 12.29921068680921 12.085417621607903
Mn 12.692988024849432 13.389297800049473 13.369045631651591
Mn 11.373047155604684 11.936846197253262 14.91087153463198
Mn 8.93486239949735 12.126439138460405 14.764584742938553
Mn 6.783993006702847 11.711780464494538 13.774463402144223
Mn 5.432795718904012 10.675437300642537 12.058249207127034
Mn 5.051515881604164 9.352213864334013 10.070435908646685
Mn 5.924418763896598 7.998588513729526 8.274620432306394
Mn 7.688318357919396 6.897779743256945 6.987901872767776
Mn 10.004765086466165 6.384175554017103 6.664166656987133
Mn 12.383140617906996 6.48735311856532 7.221284862999384
Mn 14.162386169042653 7.233469687308241 8.61658392043015
Mn 15.073318827167329 8.454609364562996 10.549177969795137
Mn 14.823856665083207 9.823513686214824 12.486895100493674
Mn 13.4412349525853 11.095222609736474 14.076468484888188
Mn 8.871578514696637 9.985660801050578 9.073156044976642
