26
Energy = -185.4495833 eV
Mn 13.682539168684755 11.381025715084448 11.468066843104898
Mn 14.548837722376193 10.541670951978656 8.96027265541886
Mn 12.954636001839479 11.468744756561481 7.2086283404386045
Mn 11.838385821740069 10.732054186902731 4.853326691790012
Mn 11.25412377034492 11.47099878253284 12.503564789783086
Mn 9.770282597675727 11.062805586720799 6.056304721347022
Mn 7.300928226590657 11.254221437811363 6.729711012764276
Mn 10.001823155621715 9.317825192657184 12.612313806509256
Mn 8.89164593626593 11.4612858513138 12.909303961097487
Mn 5.9081941611976845 10.619654445971104 8.75446089556834
Mn 7.030051613059235 11.649790603858625 11.079051806379423
Mn 8.341196782695555 8.857711071941031 6.082717183357624
Mn 10.780388638900707 8.905627793136155 7.156643097243413
Mn 12.94682611279189 9.255893578417478 6.487843400794682
Mn 12.014618055085874 9.84119406579774 8.880153507868945
Mn 13.967541517843713 8.705620748091363 10.64399511662661
Mn 11.96670073640917 9.503075631594257 11.42348619047614
Mn 11.471434613717015 9.640911050777229 14.349694231534205
Mn 8.462865365760678 9.521351208860748 14.476069738079024
Mn 5.790212052024685 9.099346716441799 10.954278484955216
Mn 7.697492116825962 9.633909008748986 9.590172207030477
Mn 8.978334150878046 10.11864270608171 7.928076402898022
Mn 10.036499357830468 7.378319739689539 13.829265905085508
Mn 7.48237702749393 7.712770410987534 12.889592685994051
Mn 9.948094495781438 10.485235703136885 10.19533826584111
Mn 7.878638508839467 9.598545268272948 11.920658292645152
