29
Energy = -201.0680476 eV
Mn 10.243085634503355 8.468823946901878 5.05081648744351
Mn 12.220725718875789 8.01328847449876 6.4111799221275
Mn 13.819530956372336 8.314951279030478 8.345354180170757
Mn 14.028705601306138 9.559037819317684 10.419220463870474
Mn 14.737645952854871 11.215267918806514 12.156234553910899
Mn 12.536158126734893 10.976348562103212 12.560949918051023
Mn 11.995301500427502 13.290773445952127 12.713055495218446
Mn 9.846660223398626 13.896882501220919 14.096418240902816
Mn 7.83503710762003 13.916697366676406 12.327198285877724
Mn 5.6018424315621544 13.419197406147996 10.734434126527342
Mn 5.6032491323993545 11.952450551751683 8.403136224124534
Mn 7.23836862991816 10.391442341021126 6.965400675651904
Mn 7.968655785621729 9.312223878717774 4.837557268129499
Mn 8.754257093341645 8.292534044130765 7.094133876467561
Mn 10.264145910386477 6.378479438185071 6.612653049507989
Mn 12.146041037758323 6.296739854916665 8.399502507690714
Mn 13.9644268205519 6.934938975553242 10.343272695870697
Mn 13.062066817398136 8.65004676569623 12.350236586241373
Mn 14.483780724261084 9.600365699596875 13.883378137024417
Mn 11.875555024037274 9.618179222411486 14.400608670736604
Mn 9.988507384313085 11.508766994911534 12.812723776552701
Mn 8.05546614665132 12.16661608036334 14.146494232636723
Mn 6.754218693406775 11.55969902101047 12.028420397152864
Mn 4.65052579530528 11.034420515908645 10.504567612277796
Mn 5.465980686116177 9.368149340487738 8.521064094824247
Mn 6.385745600498389 8.143030710515259 6.394466501089312
Mn 11.185439050230192 12.0567076245731 14.792608816851292
Mn 8.251239388995815 6.812384083127374 4.969119917614833
Mn 13.663590779089647 12.014475381836979 14.551908064263587
