23
Energy = -169.19508612 eV
Mn 8.375604719832149 15.157136807028179 10.9202891217633
Mn 8.578207653898891 10.085213221007507 9.098789133969671
Mn 11.559749380770054 7.689452904271008 8.045671547185863
Mn 10.089642166452414 10.140093327033176 7.170742834229988
Mn 8.414598072058473 8.50090858003314 10.871940351835676
Mn 9.532058875486065 10.81962412423956 11.288122645729949
Mn 12.280762660570408 12.639955110513228 8.596549751088517
Mn 10.82982090842618 8.868445693836373 12.047745068697848
Mn 8.274155152565612 12.49705244901743 12.586876447779742
Mn 6.350849794887463 13.382975036573194 10.695911806251194
Mn 10.454196030474147 6.992378544308753 10.298355394561137
Mn 8.528686753591511 12.933546030710097 10.34646416176581
Mn 9.078494088209759 7.879306948512068 8.344952246014154
Mn 12.802529539546395 8.299562064769646 10.39565218385473
Mn 7.082948650026359 10.851288961108695 10.768200849474205
Mn 6.858222576234417 9.18494286948362 8.0280175411131
Mn 12.096789148320797 10.872275850402081 10.747250276676475
Mn 12.457706890197871 10.082597794452953 8.27720633475819
Mn 10.787456284433807 12.992856294333889 11.244511866736486
Mn 10.75122043506877 9.192725775617644 9.709034883881966
Mn 9.942020705620676 14.165198538883127 8.951967648666585
Mn 7.894839860007787 12.122125541586069 8.193322040678401
Mn 10.363847821896487 11.649004631994663 9.099839168912132
