24
Energy = -180.10416439 eV
Mn 6.928120203846719 10.18390368423682 11.485426673986755
Mn 9.317662816326232 9.340221708893571 10.705049787221865
Mn 10.340511634842517 5.891952864168465 8.671329681310384
Mn 5.444999636916032 10.940407174697722 9.572091636566359
Mn 9.582199575310954 10.21621742086765 5.8768075676069484
Mn 9.325681314704614 9.959582098145376 8.305364101867776
Mn 6.508371465658512 7.080434024577887 8.703457142860856
Mn 8.321040811231887 8.801845810061453 12.933650927401175
Mn 10.836913415904588 11.124136072467593 10.080627115106275
Mn 7.212872000533084 10.932524141909607 7.3151302162482885
Mn 11.239410476272365 8.442926814828372 9.442204779983433
Mn 8.849540561998147 11.40074978226876 12.107669755456396
Mn 11.594913314541428 10.30426603798215 7.62939928810452
Mn 8.198732757888488 11.605189700378487 9.78051690600827
Mn 10.550900030877417 7.929609607100038 6.93329342004493
Mn 9.80073763897403 12.181857716086975 7.7921377763595565
Mn 6.148576500996265 10.860627410650812 13.448609177270496
Mn 5.261439897464239 8.490831317798348 11.016018353128448
Mn 8.068205491456402 8.491569838420899 6.9962621326886945
Mn 6.478830700574604 12.50872031789649 11.315398124280142
Mn 7.1293619229559635 9.416162133447749 9.214272790445685
Mn 8.970429783636865 7.639401467339569 8.983163485438592
Mn 9.705483114582686 6.916550839211652 11.273601501107915
Mn 7.499176215603701 7.740914496965376 10.8597814966742
