20
Energy = -148.22541403 eV
Mn 9.633444477283465 6.052168711151263 10.186786744981582
Mn 10.817115987544756 7.946979559192957 8.975289273022518
Mn 7.315414123586788 5.740984456230226 9.724506476082833
Mn 9.089849458930574 8.921835345111235 7.719611767782348
Mn 6.960472372392371 7.63350978123863 8.342783135196003
Mn 11.229993037286356 9.945598652250927 7.198419045865626
Mn 5.075846340164196 5.976064171677808 8.72167654789804
Mn 9.056279223161972 6.3467319515784935 7.832796653414959
Mn 8.356542869334154 8.237258888243963 10.12281942052089
Mn 10.670591684145368 7.638842788253904 6.500542821334823
Mn 7.071520570803135 9.957437804947038 8.158919967412208
Mn 7.717741451949226 6.659430137022466 11.909736561775752
Mn 9.62103500426712 10.33664258377906 9.391363506611288
Mn 6.910185594223395 5.515855466431806 6.999625939196528
Mn 9.05420501407038 6.338033365668907 5.277575140707755
Mn 5.73344346984014 7.975014862070261 10.226797852251469
Mn 7.582736683907858 7.907143642503482 6.112884512932005
Mn 9.437478103396248 9.1790918522012 5.199048541513526
Mn 5.171212165199132 7.921846521884921 6.990865055939361
Mn 5.437542876991616 5.80265211142896 11.251946085546766
