20
Energy = -141.90104102 eV
Mn 5.723670609543682 9.416269548043946 8.703471251017238
Mn 10.914298190718792 9.970743679628153 9.276367638260666
Mn 8.03293970546604 9.931587621359139 9.270640608621823
Mn 14.21496462672888 13.435721924407773 10.836219245107959
Mn 14.211503998402398 11.229348168580481 9.541103418384916
Mn 12.190717663393922 12.693739408186955 9.128658016603739
Mn 9.691138667646548 12.082435505677733 8.616200642220305
Mn 10.7651866334581 11.781596308229636 10.685754321845756
Mn 12.824193586564427 11.194233721014417 11.421969290209567
Mn 6.8739557836321294 8.34585738598128 10.73244875038066
Mn 8.292736670777812 7.659416581330533 8.78617926436803
Mn 8.143385954844684 9.24238943542932 12.695972277051645
Mn 6.334042480239777 10.578674962859845 11.26933611985011
Mn 7.207850118275129 12.061817283445787 9.23469192022799
Mn 11.67936775507319 13.669553280849792 11.62650525154706
Mn 15.37339378657032 11.442841896428583 11.954519180304558
Mn 8.503328012457294 10.419929965197944 7.128648142081241
Mn 9.492538262579535 8.676487228765497 10.68920445682975
Mn 8.735438644741222 11.051667189483853 11.117250778951073
Mn 8.43620759491042 6.644833320291468 11.471567187987183
