23
Energy = -171.68743554 eV
Mn 11.896405735318023 8.679923000540432 8.47818102542564
Mn 10.362836151383096 6.043543372433077 9.36141699193633
Mn 10.837232968617705 8.10725827734736 6.053140706326768
Mn 10.329079488401316 8.36682742336457 10.479571413270966
Mn 9.62628322351891 7.941816631774782 8.246581739581195
Mn 10.256983002095394 10.338080576251558 7.314318324976614
Mn 10.985362591328416 10.877059406322507 9.69611798015918
Mn 12.342717151957176 9.282208968843749 11.124210225562473
Mn 9.117175915185173 10.048138891019715 4.967628231080757
Mn 9.363313878487679 10.232359748979489 11.575665311354634
Mn 9.455925539971519 6.008284370055283 6.622547670763147
Mn 7.40768883142133 4.414914395167298 7.331201045929244
Mn 8.46760860267118 8.437026241254182 6.417508522554456
Mn 8.866997618766021 12.267435830300442 8.711273170467724
Mn 8.824714187922622 9.990893736908065 9.242187137555014
Mn 6.847244791860945 8.578852255001323 8.13679431622332
Mn 7.935703027567844 7.9167202096824125 10.281612327956937
Mn 6.379873725988383 9.181097719729813 5.517517208594031
Mn 7.978136849313461 6.275302354382949 8.60329638578697
Mn 6.855833606541795 6.7012109280022925 6.346258055381654
Mn 7.664920303515636 10.717650812039263 7.104804629395856
Mn 6.708756276655242 10.493743233035028 9.738373240918486
Mn 5.652121149627027 6.390071965105849 8.571353792869617
