27
Energy = -191.49151292 eV
Mn 10.739547907705504 6.555094839944424 9.971111542424943
Mn 9.926326495248482 8.597968789958829 6.87583664174199
Mn 7.035002696122969 13.588988836583669 9.1023953863432
Mn 7.137206455521843 8.584171183061615 10.757009184567755
Mn 6.538102364651492 8.93192238864211 8.838087377099772
Mn 4.274073229379095 8.316192971619149 8.710518774814059
Mn 8.806469968623553 10.309887549252473 8.257906554119277
Mn 7.912726480738255 9.364008378993063 5.485866884277675
Mn 5.428901552369929 12.922680916318063 7.292032747740002
Mn 14.581851078253868 12.304559184255634 9.765889565071266
Mn 9.49698353144527 4.42763984461024 9.483333187315024
Mn 5.504710388229597 7.945160913194545 6.500926690173916
Mn 10.296483620027349 9.302119224693724 4.772512751581899
Mn 5.97491466784005 6.744944731551378 9.81859477262653
Mn 12.228361852778546 9.098311035215113 11.90372901410758
Mn 9.77425759852342 8.933728168601924 11.112452228664145
Mn 7.956649096428669 12.194470470212051 6.6422305883240815
Mn 7.812340804517177 7.5901556572931215 7.1608646256157265
Mn 11.242581788723442 10.552424280915872 9.849202133422354
Mn 8.382024205490122 6.498365879865349 10.926383338143749
Mn 6.225616526176451 10.366665956784757 6.6426059020078405
Mn 9.122748946737829 8.21793376208835 9.141215870324958
Mn 13.838922553254854 11.143855550824254 11.934419796638021
Mn 9.070293747289789 6.76587209112097 5.29087528751729
Mn 6.642673193184125 11.44560226191811 8.554488168096878
Mn 5.563954445358906 10.628814183329638 10.458503829908787
Mn 9.651261334341147 6.220814794062763 7.890123638968437
