21
Energy = -155.91430105 eV
Mn 11.288565319633333 9.164001404790353 7.636496223469731
Mn 9.346329311019835 8.107256303262773 4.871037213432583
Mn 11.154074876030466 6.431365726077767 8.042162330910891
Mn 9.301232578907047 7.779280730853307 7.303954631758235
Mn 8.850535354195092 5.659572035186633 6.412923080267162
Mn 10.64364635694393 8.806500037434834 11.676618726451785
Mn 9.372354321245927 10.083439606808804 6.383008121304835
Mn 10.387304632574123 8.068062126679234 9.600940856703271
Mn 10.206818959519973 6.243972647616815 11.057185886754125
Mn 7.35590660531299 9.872400804957417 4.724423054181831
Mn 8.832093901700773 9.629985445376505 8.774965794982995
Mn 7.249305781711058 7.529446033822337 6.025874545039169
Mn 7.033659683562869 9.694489471516055 7.129350588818635
Mn 8.093286622479495 11.742269756756926 7.830088959992983
Mn 9.61851305466402 10.768808049814021 10.482919811119485
Mn 7.216563078053708 7.886364232579677 8.728306460067872
Mn 8.239922139549503 8.123694752392405 10.916929852064142
Mn 8.773142212004261 6.189974082253387 9.07301106448272
Mn 6.701978502334299 5.695836803555503 7.7784077816520405
Mn 6.416591526753955 10.009992726657009 9.408065492996267
Mn 5.209034932845284 8.171493873008622 7.461071032353385
