29
Energy = -204.61815348 eV
Mn 9.134557530091817 16.7906879321586 7.3813074759831565
Mn 9.06200817435855 17.845923548912403 9.686636697343747
Mn 9.425273018133185 13.987260551178506 7.261663862486114
Mn 9.776198491656636 15.32564942052836 9.358219984360218
Mn 10.04419757798305 16.530557508505876 11.57076673846394
Mn 11.18107088095242 12.74595619662353 5.881763822590251
Mn 11.744679096999345 13.396338721129073 8.41100402352836
Mn 11.358709454444279 13.93906553769821 11.00755987987011
Mn 10.288369433620039 14.656941668711815 13.259764883082791
Mn 10.615207860045894 10.351295198958374 6.502861060574064
Mn 11.545993312334113 10.674872604639186 8.674633617830464
Mn 11.625472950980441 11.676608765124671 10.580584513553047
Mn 10.60047388623624 12.203306655319007 12.83410720291271
Mn 10.977860131525851 13.318839494347484 15.316688847363594
Mn 11.201423806404438 10.764900800763845 15.183612157667897
Mn 12.373828898476175 10.695476384048236 12.667906987370273
Mn 12.52979827041151 9.16779327571193 10.454663397400322
Mn 11.12229450277706 8.490628599662802 8.237610123789404
Mn 11.296679157046274 6.753401328939659 10.066424478974723
Mn 11.489282050963139 7.867678587887114 11.956933770447801
Mn 11.279657351115473 9.024803639518284 13.80082730278493
Mn 11.262235942933707 5.389491984770264 12.207076079135426
Mn 12.100184272168004 6.608460837182203 14.211691454944525
Mn 10.55039335210753 7.553633300552162 15.947711686515946
Mn 10.171020542460626 9.932691199048284 11.365945635366717
Mn 9.655952408589721 12.442733549756808 9.553357136669572
Mn 13.42463213977974 6.608750539344053 11.443800644996125
Mn 13.491784685513883 8.400399933617836 13.191792079993503
Mn 12.65789818732189 8.651666631480444 15.5666274118678
