27
Energy = -185.85962395 eV
Mn 9.382080425119998 10.975794796016759 14.064723382348575
Mn 12.068881888604775 8.760627019250176 5.781469772817373
Mn 11.06523393378687 4.855903707762491 11.367437141768102
Mn 11.142111179585054 15.483967051920775 8.589719965276364
Mn 9.317194263900095 8.486700949189053 14.729059915899551
Mn 9.754112338824806 12.018949067855795 5.881641020978911
Mn 9.523529165470245 5.632281869443236 7.042902408220226
Mn 7.859238151708562 13.102607028462398 10.542003654426379
Mn 10.379068425608645 6.483342980425908 13.755044975993858
Mn 9.441199989833738 14.408411474665815 6.864640920568647
Mn 7.1677108537782575 11.883094272637154 13.170105683052297
Mn 11.654142966674357 6.545461140633822 6.6630850703053985
Mn 9.513042179730737 6.155253172728498 9.671530662898581
Mn 10.124196214292377 14.658039262052412 10.962305269197028
Mn 7.604764541360377 9.388061807305577 13.335331144306767
Mn 12.165463706784028 11.292168035660183 5.441205453408155
Mn 9.281614635445045 12.69709057685049 12.453875041137788
Mn 10.224456931463243 7.279616040014145 4.771573470215095
Mn 11.609068707457217 5.195971007908948 8.665406109667039
Mn 8.817123050757196 5.628570570689273 11.90008286367632
Mn 9.275678163542732 7.865852598380126 12.042002409876503
Mn 8.889551836725882 14.912147222746032 9.053708874333056
Mn 11.60586118421295 13.220549028628549 7.220490178390077
Mn 10.499753978050034 9.940456610984866 4.204324619607848
Mn 7.732662231926343 6.780507856778489 13.803170175855888
Mn 6.868794143422563 7.094499466325959 11.607202988715027
Mn 9.746683954158513 12.932704049488303 9.02383446631592
