29
Energy = -218.84630524 eV
Mn 9.53339075644759 9.217522612080044 4.5828849009572785
Mn 6.554266414421432 8.69213316859425 7.068293123381435
Mn 7.860194091309985 7.658361598137312 8.994279095743822
Mn 9.496504253221607 4.720929011545257 6.445846747671529
Mn 9.220333770810155 10.967490544129458 6.98928673752839
Mn 11.73640816852547 6.1745293015035125 6.492953045810276
Mn 8.809112229622562 8.705987162477792 6.808130953215258
Mn 11.261068610064877 8.806329931413776 6.710951339426868
Mn 8.742522170026023 9.100457105533211 10.968994386342064
Mn 7.057812316477743 6.657683626214043 10.896408234559178
Mn 6.6329795604903214 4.492204667463214 6.709726636751897
Mn 8.26510488171218 5.1872663343985685 8.91941020824383
Mn 9.668717107862912 6.9836156044387945 5.395104362029281
Mn 7.442009423198858 10.264679456968295 5.359463203081182
Mn 10.001346423366426 9.067187478753354 8.860236365490545
Mn 6.299049008283833 8.969232516064809 10.579306527059105
Mn 5.7841794843552785 6.617815115272292 8.458163764396598
Mn 7.880760861198792 5.489505699349502 4.654065169668458
Mn 9.987016187341716 6.820993811169383 7.822047488784708
Mn 9.663048119338043 6.897317199525309 10.26661702617094
Mn 7.315762799378191 7.851502468910837 4.7953171231571625
Mn 9.433581870318244 11.317878267924982 9.651394351945992
Mn 7.745365185954236 10.002099071223403 8.777437160436268
Mn 5.000206283079137 9.176599490560386 8.583521720590467
Mn 6.387818651648639 11.18575876271371 7.373121515528857
Mn 4.494784397773253 7.38638025401236 10.520937913676459
Mn 5.543001193193711 6.7019830816183035 5.917959001671833
Mn 11.846034991585322 7.50595087904937 9.070119202620807
Mn 7.757047981822251 6.393511048919206 6.945917729824705
