21
Energy = -156.25714237 eV
Mn 9.777146355822621 5.474199418941439 7.599431524843146
Mn 10.383964095257596 8.508911647913884 7.499485297577536
Mn 7.8742415073697645 7.220974088866378 7.177800942165295
Mn 9.544277818164487 4.906470508606128 10.12408423900137
Mn 7.260334202948374 5.5096106046198825 8.897005476883622
Mn 11.394264676873693 6.710134797662142 9.691287067547194
Mn 8.354834715459326 9.17184946999741 5.823065623803645
Mn 9.162581304176399 7.080389508994465 9.183841311583098
Mn 10.105856176604846 10.837818281156272 6.393259419527419
Mn 6.188591780724423 9.397163838107316 6.831651614415513
Mn 5.3627185638741794 7.403591917767792 8.034780838399515
Mn 6.98258191870836 8.004255532387592 9.593902691878496
Mn 10.137216795777176 8.972957545976497 10.134441362195735
Mn 8.502515844365801 7.18496353222467 11.437915376383224
Mn 8.289486883225017 9.473793755672535 8.267237405626672
Mn 9.99826744824095 11.00840549822506 8.80928216662319
Mn 7.706085999134781 11.465408219200878 7.150840742880016
Mn 5.950283147200268 10.211514922869375 9.083780425319643
Mn 9.889113002366674 11.398856237860032 11.291791793873143
Mn 8.026748177852737 9.805055616144951 10.82662145294819
Mn 7.835293311119703 11.870130952707113 9.601375714628604
