26
Energy = -181.4137833 eV
Mn 12.637286101343191 7.174902828882643 6.338712882004274
Mn 10.816972666605317 8.969613127630057 6.855091116142071
Mn 8.72274019171336 10.41634699147548 6.769487613496914
Mn 7.596560886943567 10.55470038023595 8.84769720470327
Mn 7.550578515169131 11.355736461133644 11.132441354781964
Mn 5.536725393701362 13.445458590843318 11.156571822327313
Mn 6.873005270944121 12.625500747161782 13.211905652765035
Mn 8.752594322226004 10.802625203932749 13.281478166055201
Mn 12.360823317424186 9.671402946338304 10.900266222513434
Mn 10.824519900322079 9.163905797192752 12.996154316644136
Mn 12.387386075141809 7.365708429880563 12.634001460802754
Mn 13.775507025593889 7.677867565877148 10.454826205182831
Mn 13.902792053694949 5.617717394149145 12.69882341810324
Mn 14.834656327697063 5.30991698113591 10.277694581122152
Mn 13.447554241146657 5.633266490822973 8.253751303908333
Mn 12.218259196266134 8.307923266388583 8.765278902598787
Mn 9.940833029385022 9.56893719566337 9.109800688654802
Mn 6.771688940864643 12.153921385061977 6.995372473531792
Mn 6.8976331366389125 12.805062632246967 9.23845151612293
Mn 5.536049385976147 14.088142523883057 7.726018135881253
Mn 3.3244517454508498 15.129382022180074 8.216123365250391
Mn 10.789778263940123 7.725532161932405 10.75767094377974
Mn 8.081286515989765 13.644873905868424 11.09162489824598
Mn 4.739478209970393 11.968277670252943 8.931911271102166
Mn 12.576093374317097 6.056494138029384 10.591023496157986
Mn 14.44043280049229 7.664313071188953 8.062248262769321
