28
Energy = -187.89341066 eV
Mn 9.471191159405997 9.642793243736921 7.386106432449133
Mn 7.393338325416389 9.535226281287144 8.765046689890623
Mn 7.39065062346506 11.524707523434257 10.315601607186816
Mn 10.76776435138759 11.678065749227832 8.076597754268045
Mn 9.480401613000025 12.847577192195875 9.883265785947746
Mn 13.309831560143273 11.582656845774128 8.199052963142023
Mn 10.720331009721141 13.905501287843382 11.834632051226071
Mn 6.5419071337091035 7.2757638876241995 9.613768459842838
Mn 10.723415444483297 7.487833880993353 6.827125518674618
Mn 12.00236616715057 13.090400194869746 9.786781274601733
Mn 8.412435942907567 12.925502676798303 12.185185938893515
Mn 8.401269461892731 7.39020753728439 7.8811330473763075
Mn 12.0007301323877 9.67231674601605 7.123312134220125
Mn 15.635515125962025 11.057848245814126 8.869209096459121
Mn 12.078678324293572 14.273763860853421 13.885558494294479
Mn 6.301223993156309 10.599044270427216 15.092649849986678
Mn 12.079288359414463 5.414541108483828 6.98210937456286
Mn 6.311515586718376 5.126082623273556 10.824329198619964
Mn 14.581531343338938 9.426678577347754 7.522657874997084
Mn 13.313728964644945 13.908177309072338 11.90441438361036
Mn 13.303926591120616 7.4243370099679735 6.8556933546961565
Mn 14.583933308190039 12.766104647118407 10.122329497700507
Mn 9.803419015082634 13.74080769845837 14.251854557840758
Mn 7.734785608117461 12.421220066446443 14.694799483769662
Mn 5.573930516666777 8.99579167562362 13.555929112735793
Mn 5.568677793023096 7.039323634220517 12.029484363140703
Mn 7.744028726590682 5.092870151170587 8.960595669789512
Mn 9.79539828321969 5.187422021037825 7.594512041147639
