28
Energy = -208.80169077 eV
Mn 7.089160009574544 11.794824993381473 7.221237403585312
Mn 6.478067908500054 10.691385694126339 11.710356357399851
Mn 10.62032924632361 11.749869485169324 10.913722931997492
Mn 8.73662649654349 7.877550867097297 9.1664428852793
Mn 9.553042939265104 5.437999846172644 9.413456979639923
Mn 11.543338270254837 5.6585375450022735 10.911024210104967
Mn 7.795639947211321 8.112172593309422 11.89183516852458
Mn 10.721450750138759 9.516304734835128 9.67348099994815
Mn 10.908772851069621 9.79479619800885 7.3451496827162925
Mn 10.044577934709206 7.579911000398746 11.101582094229931
Mn 8.497095840432227 9.817844047433667 7.940791122051037
Mn 7.370281233601991 6.255681770079484 10.270831849962061
Mn 7.154531590591589 11.237307615051575 9.49204206432464
Mn 11.921725814879123 11.72604340449296 8.71945282200307
Mn 8.30446580164706 12.896816767461297 10.839216597171514
Mn 9.145476722238474 5.590051169894996 12.006454254658578
Mn 12.335585392073652 8.143485724823346 11.200813823627241
Mn 9.74738575221557 12.156923414337173 6.849182367726185
Mn 10.425586406458697 13.764244010633135 9.165135126960635
Mn 8.704344359613268 10.030088854796562 10.848035603962293
Mn 11.304491748974923 7.337458241774442 8.806037951995444
Mn 12.529474975839126 10.590639106981442 11.245402650118201
Mn 6.619335372112693 8.93610118690279 9.791093874648146
Mn 5.850466876563872 13.0523811291674 9.479014374824834
Mn 10.356253988484498 9.611575560301757 12.490031171585226
Mn 12.96194549627739 9.499237278687813 9.048466369723426
Mn 9.413274142824331 11.664929572321508 9.030592495288614
Mn 8.050760606134775 13.726485192520684 8.431269636485077
