22
Energy = -163.96783745 eV
Mn 9.38891839358822 9.103802459431789 11.333560163441906
Mn 7.055260723933823 9.013007617690109 5.711550973613962
Mn 9.561358827761314 8.731733962745006 6.254274642997569
Mn 11.845161358498501 8.932800280815734 7.6060485799292215
Mn 11.27057878717741 10.653124465749837 5.597491533892137
Mn 8.414710911223533 11.101727961936808 10.07791609104907
Mn 7.332143647911032 8.927284824000209 9.632004181844104
Mn 8.675507126993098 6.836457299034236 10.137421510699774
Mn 6.085907613785482 6.79289538447468 9.471537894158503
Mn 8.463271529918664 6.544586682234671 5.750246817394142
Mn 6.980961955065646 8.321394982376907 11.783169896697904
Mn 10.178496347342298 6.742628970023628 7.857285200307887
Mn 8.644969678530837 11.31033237850557 5.780526249150924
Mn 10.901344903146239 10.877481719408044 9.821433667799875
Mn 7.864148955766829 10.189997569777365 7.738281749747722
Mn 7.8481079900365405 5.37423496935711 8.0673889027462
Mn 9.727898855473294 8.863199302079206 9.051338973513054
Mn 7.817969722947082 7.699309629570904 7.71879736699523
Mn 5.9485840020503 6.538878329346252 6.718107464183953
Mn 10.169583585018575 10.73152116955612 7.639215606698897
Mn 5.705714939452951 8.771006416122747 7.858652646974688
Mn 9.227021280490376 12.623750558446883 8.217737997724228
