23
Energy = -169.58878578 eV
Mn 12.368523167347922 10.752690100045346 6.818588261536532
Mn 10.282604964871126 11.834301817542528 7.319702429667749
Mn 14.177324539270257 12.077065141898416 8.068690831390885
Mn 10.541518176964036 13.536931235705254 10.77995513891132
Mn 7.882024171825987 10.86726591438727 7.217977421798262
Mn 9.940685744684265 7.119577786746453 8.660304327291918
Mn 12.343760876018065 8.400036530875665 8.696825517670458
Mn 12.156836848499363 9.738042563180807 11.259789550659207
Mn 13.054990362575841 12.27121644580255 10.713567834308124
Mn 9.294293809924264 10.706966271990488 11.827248161082972
Mn 8.456937987093854 7.823146849241295 10.908446646204638
Mn 10.188497275067727 8.467053191605428 12.50511193468867
Mn 8.581303714755302 10.584435768131051 9.40210951283874
Mn 11.875914041610757 13.12048372663361 8.57883453569349
Mn 7.763666225849904 8.569821400660333 8.601716551952928
Mn 6.984067070292676 9.812189532911388 10.865864891470645
Mn 10.164752214870342 9.571138774726382 7.790250528966019
Mn 12.485770063764532 10.742993772414636 9.01792869465169
Mn 10.57374746135373 11.419426250937118 10.039867566156621
Mn 8.97807708600933 12.952636147738144 8.900557093224617
Mn 14.43772410224267 10.0261882604617 9.797662491685852
Mn 7.852530494422139 9.01053995587037 13.202222132864444
Mn 10.294148247950336 8.88626925646816 10.088569534297177
