31
Energy = -236.55996207 eV
Mn 8.575451334231223 7.104906951615791 4.825358991682427
Mn 6.9737205103262925 9.330542650482355 12.099264663374122
Mn 8.534113024716303 4.925038114977545 9.31729416554411
Mn 9.039700048256952 10.446560933965396 7.71181194762038
Mn 10.116944155740018 9.086709397293985 9.20336141354029
Mn 10.247061374191608 7.959432736669914 6.819747689324035
Mn 11.21294618319145 8.105462098235785 4.776403430037455
Mn 11.06495002026713 10.225557920502885 6.131880475886958
Mn 6.507612168334461 5.705459111164919 6.154172400089487
Mn 8.883028739069525 9.505524371931319 5.204009674427409
Mn 12.18939758902837 8.454936615504364 8.00554736305447
Mn 8.939096883184266 7.176220620152146 9.247086741668316
Mn 6.990062089826563 10.74459058174729 6.068789722457656
Mn 11.176924259027434 11.276256119226561 8.398779435151555
Mn 7.5132793015090105 9.110068056399111 9.52614790302708
Mn 8.883200891408025 10.903860705420408 10.350014686908002
Mn 6.399394953546228 6.9532752654537004 8.414066347499334
Mn 7.26463801642511 6.967986682036563 10.965947179588518
Mn 9.275506213637069 12.08888162282411 6.163437049657853
Mn 9.345620494589484 8.501370495011976 11.473055174843047
Mn 10.444568384073513 5.730889991607798 5.731216270872159
Mn 8.449937035328936 6.163148199975755 7.104911033469622
Mn 6.246572309025604 10.988424451674561 10.287055253871635
Mn 11.502146273166826 9.923994583557024 10.707840751657944
Mn 10.764710510119949 5.949677446692092 8.169179664420692
Mn 7.370542402269682 11.974972109620921 8.214218067443932
Mn 5.799556304185686 9.72676280504863 7.939512214370321
Mn 11.281708319431978 7.205090742934263 10.176843455981661
Mn 5.33479463411204 8.537924672412098 10.266133224029486
Mn 7.926101263782963 8.48942246578446 7.291024151902668
Mn 6.366576006374074 8.189578830751167 5.688359931349146
