30
Energy = -227.46682629 eV
Mn 5.166715148853128 9.0609887181782 9.683774702151158
Mn 10.770017364342305 8.282365829403632 12.903223220160374
Mn 9.965066282198855 6.414020567800381 11.221102659271873
Mn 8.422530551009466 5.67422367235498 8.863395275471543
Mn 8.275873166722274 7.900095479639254 7.684420756288954
Mn 9.86228316217928 6.489683008103811 6.654101413513801
Mn 10.610610015441972 8.933767731557884 6.458514585172112
Mn 12.516228281502087 8.455688347624328 8.115292932854215
Mn 10.375474252245452 7.569734044071415 8.856920401087974
Mn 11.883049441492902 7.90271030681936 10.751122494044866
Mn 6.898988089451219 9.489764538142769 11.552498756728143
Mn 5.930811241242295 8.899857674772308 7.100826882757624
Mn 8.231478568237387 7.642473090841625 12.718715032197233
Mn 8.125319010817458 7.485782255201872 10.267810979045253
Mn 6.129207022153981 7.021087927318045 8.714737708294589
Mn 7.340382147483446 9.506079754620782 9.181356035190529
Mn 8.135754178053263 9.013392064836497 5.638556216178671
Mn 9.4993214635773 10.052541215390224 8.16888927929237
Mn 11.751844005911103 11.070044387297617 7.33385955121627
Mn 11.325627044934865 10.523916103538983 11.84141286938188
Mn 8.97598885254543 9.975606504436389 12.997218728969345
Mn 9.424929198989236 9.227600694873525 10.815559053382874
Mn 9.618154986232165 11.164895541201618 5.807361675815238
Mn 7.435924115524458 11.096436674696132 7.366945687588087
Mn 9.589838362400695 12.343592462270399 8.011194045210095
Mn 11.325881189874055 12.196501256038118 9.765773031216842
Mn 11.359978024648523 9.879183143836595 9.556513473606396
Mn 6.113891213424845 6.945575740989271 11.262423199446465
Mn 7.040423182404462 6.474399494958522 6.429706461978295
Mn 8.739450394159663 11.397900276245117 10.364074604371355
