32
Energy = -221.0485059 eV
Mn 11.271296174143357 13.196042027911261 9.900645697901195
Mn 8.942393581002271 9.458906163186318 10.685454346448168
Mn 9.926461579958481 11.658548713212678 11.569919325386127
Mn 7.903649613264672 7.7678034030119525 12.457352790027826
Mn 13.367793235853563 14.002051146630608 8.48578765723608
Mn 10.658199942089663 11.490078942973305 13.906753846213826
Mn 9.473152367429826 8.97390090485773 8.36030828036199
Mn 10.552293541430151 10.254454346874693 6.570606322094564
Mn 8.273571650996258 7.157878863544058 9.736171817103278
Mn 9.750178132722178 9.509909084838776 13.01356305516117
Mn 13.162988657766764 14.753714916570857 11.105369648663403
Mn 11.563742762692382 12.613310248937795 7.297355479617717
Mn 11.339015311894652 13.62245656941901 12.58831948003124
Mn 10.080512726313277 9.908614414556135 15.663173182969349
Mn 8.079622772613588 5.343134928667271 11.359777830405715
Mn 8.647077960785436 6.597920810210214 7.44470850440056
Mn 9.845034693165587 7.989894333014277 5.996705513725523
Mn 11.219295301222942 9.104287665145199 4.325224449974883
Mn 12.177435290830049 11.434660714937142 5.113439536020438
Mn 12.510346138024575 12.909004877673427 14.544696269661125
Mn 13.411433806172393 14.996040866879735 13.662103389395822
Mn 15.234889816270465 15.89384827405762 12.115883152794066
Mn 15.215119343847135 15.133776486559412 6.95608182062116
Mn 13.663499427057918 13.330207143558374 6.075103860377977
Mn 15.042455289867204 15.50783701607164 9.484640189611751
Mn 8.20297132121441 4.661165996909376 8.83142568622756
Mn 12.000642567833843 11.640068108795358 16.459391097582518
Mn 8.230592614897578 5.711793125319973 14.178158591635313
Mn 9.42443165719266 7.668449650822277 14.470793522619498
Mn 7.930788509516364 8.946322124063665 14.877565212548355
Mn 11.246506457088635 14.479389833112085 15.193768773859894
Mn 9.766521236787195 12.466492650983483 15.913754767872692
