34
Energy = -228.04356437 eV
Mn 12.163674315944606 13.601670513317785 11.457388499648957
Mn 13.144444862434732 9.547550345056923 12.613791014979709
Mn 5.82385399144715 10.851631384133462 7.112086991341459
Mn 8.843857543250731 7.709003206625156 5.116101890514749
Mn 13.461150464222973 8.261272986002467 6.528074076656235
Mn 6.074883541376532 11.469989402386958 11.299038885429015
Mn 7.424200678047422 6.15191245087543 11.062480614429338
Mn 9.06180474195937 6.202974929872909 12.973274876052162
Mn 7.524507573836352 12.34007029991355 13.017793699133023
Mn 9.341220996379045 8.504246159007433 13.89366262387944
Mn 12.55363309921294 12.555469671518612 6.783966604584376
Mn 6.536854349393681 12.532308890009265 8.800227898737631
Mn 12.441857642358343 5.945908835768111 10.152734825330832
Mn 7.125901023702947 9.99188495363142 13.185257924618025
Mn 9.6691575037449 10.003814867509051 5.075224895054294
Mn 8.279562361337401 14.184299131970539 8.593800648102716
Mn 13.60047089582953 11.730988541572538 10.996060690050316
Mn 12.57953456906652 13.204514558325311 9.096075580496263
Mn 5.776760048725153 8.53016923434911 8.075032953459258
Mn 13.915744386827551 7.892919214556091 8.845634825473391
Mn 12.268719438279671 10.267669768073747 5.876371589183671
Mn 7.801006151785543 13.452504973593623 10.84821094233148
Mn 10.235905297829003 14.100477236922291 10.02284521582073
Mn 10.642482045808082 12.133748235200752 5.48177695063641
Mn 6.221491612710306 6.324442900066315 8.974756593845946
Mn 10.033613418359499 5.306893824947761 10.981655298807247
Mn 9.454993570562804 11.078184410161024 13.846716212710968
Mn 11.89098438657991 11.73213034702233 13.021309347110382
Mn 12.28410233666771 6.401440566196859 7.535278586727571
Mn 5.0674160981463094 10.553443892064458 9.313744857724199
Mn 11.403333014702206 9.71653451240561 14.256151343465515
Mn 7.400432896009 6.890194383899936 6.936728271775278
Mn 10.8449028995762 4.830232073590392 8.749243334785254
Mn 8.468126696255634 5.382401132586946 8.841872327320958
