33
Energy = -222.7700157 eV
Mn 12.935845797635393 9.865025918182416 9.699075397340847
Mn 12.888288257516725 12.158300692541516 13.294736007439719
Mn 10.5243106773196 11.285429932493383 14.02420111624048
Mn 9.584325244096386 9.62854983470689 12.350949789177863
Mn 15.873704576982803 12.942018139777137 10.409097997110877
Mn 13.721613689641009 14.310924341833791 14.542365593929183
Mn 9.340610862099403 12.497174184159574 15.71596250654509
Mn 7.080176009188757 9.177921105532695 12.55014132593965
Mn 9.363364438757046 7.952484022575179 8.445275875647061
Mn 13.767498723478985 9.643579738572818 7.283794088206655
Mn 8.199947713077453 8.310350828580882 10.53923937689818
Mn 11.46650859287388 8.577727630555676 7.865497678407945
Mn 15.090892123836404 11.220126646736002 8.756376974447617
Mn 14.980260135883332 13.578432168374341 12.552949678401248
Mn 11.654138843795204 13.30795583948876 15.297001920750475
Mn 8.110813532028477 10.573844982615833 14.252155663997756
Mn 7.689384531158344 7.217998964339921 6.686696626457013
Mn 4.7404325011400825 9.18885296250428 12.673039530150543
Mn 14.317186905971038 9.912337339252552 4.687802885979658
Mn 17.474299979917554 14.55650620684934 9.274389776941506
Mn 14.27473016078439 16.635780040061885 15.464832748217685
Mn 7.7668334741217535 13.963492403433117 17.222444092787295
Mn 15.629292143841463 11.269134446372526 6.445136039620297
Mn 16.73405907757007 12.843548166328574 7.944903611687035
Mn 12.253647815513627 8.688808152151969 5.511500986848497
Mn 10.041375124022785 7.723470529043473 6.043055837693624
Mn 5.731454674492663 8.177131918904495 10.661351430276536
Mn 5.660937747629003 10.46870515102557 14.367634470181919
Mn 6.827763949626159 12.018816386896912 15.883072065391547
Mn 10.064103370293857 14.502072753368516 16.80100573389569
Mn 12.33986741857467 15.448072607343331 16.225204858881437
Mn 15.671265074383692 15.707107809225342 13.521344577033746
Mn 16.711806346934896 15.059542974721284 11.489118544983851
