35
Energy = -269.73480238 eV
Mn 10.179878783407096 9.999418703841478 10.009761602613318
Mn 12.296660584044325 10.351306709061662 8.933116019551933
Mn 11.532769198323958 4.441964477662645 9.259290301689601
Mn 14.10134465067316 7.547153022589174 14.367290538774258
Mn 13.565648552260392 8.224041061667613 8.235690123342255
Mn 10.525183166450805 10.89081154991183 12.871887670245561
Mn 9.99347989489319 6.4144565320928795 12.676263039334955
Mn 10.230537974921923 8.795725435046664 11.80892655689647
Mn 14.183221253907105 4.665484294589949 10.666190990274691
Mn 12.846655566575642 6.630848877265004 11.96934919559715
Mn 13.596504084743874 4.492034762521631 13.383810099969342
Mn 15.799295954658785 5.754271159195902 14.516885626787413
Mn 12.496905131467352 10.6332988365558 11.574343439910711
Mn 11.794824849828334 4.642765641734548 11.632772020308257
Mn 10.873389329068257 8.06102406010596 8.486630840107459
Mn 12.942913573084388 6.305978018401558 9.470399433070288
Mn 12.397662045994144 8.518453876786745 10.40015754502228
Mn 14.962982520539436 7.436665786528352 10.343140893416024
Mn 9.363762803540174 4.826414243908661 11.074671886056903
Mn 15.027041430961363 6.294699176702485 12.394484698862154
Mn 16.256797442682647 8.244233536454166 13.147557794518141
Mn 13.004405215095373 10.06218992727854 14.207531404373194
Mn 8.334388394224286 8.056906634913704 13.0332568902038
Mn 10.82743135912123 6.676171835670915 10.36719221901778
Mn 14.537902504142897 9.930854746364691 9.997470361594624
Mn 8.721982066081965 7.576370102241311 10.319072126292603
Mn 12.105909777355173 7.9341521408758275 15.735064809753007
Mn 15.212029876867897 10.781684377401772 12.304953358457228
Mn 14.158289886161008 8.821466452742316 12.254328668151683
Mn 10.602344731688287 4.220893229629662 13.706305089077166
Mn 9.793783944102938 6.670192496658773 15.03341302749359
Mn 10.194100195516116 9.174061629979953 14.500003652703809
Mn 13.427588819552279 5.540533037339177 15.835955074088993
Mn 11.931199855525476 8.355343868972907 13.056219871373187
Mn 11.993802745570644 6.114918211462064 14.090914352458109
