35
Energy = -243.73135244 eV
Mn 9.365009711754736 9.367663783848833 9.358633303358456
Mn 16.625324919560637 11.169683843407922 11.64901390992745
Mn 15.616661662095062 8.33713832321514 8.733981132058195
Mn 11.855082382603703 10.550490219476716 12.793849438347312
Mn 16.597674065346094 13.66395524439213 11.094648446253219
Mn 11.825727189408369 14.640887238667872 11.881780282064714
Mn 16.922855983385986 12.758398373015325 7.034443111843933
Mn 9.330091667085897 14.223847691814973 8.279161344206052
Mn 14.482686474703304 10.607323238871457 12.977271441751872
Mn 10.193791747324262 12.610958084938988 6.565244493399326
Mn 17.448309327216293 14.417525589691351 8.858427775678962
Mn 15.569935454751294 12.809387933767638 13.167823432467369
Mn 9.102484773457588 11.783706646421564 8.802255525182355
Mn 15.422443326186674 8.901820265236484 11.256227954140066
Mn 14.979447852476817 13.205473647115936 5.44189659042555
Mn 16.934601339340833 10.287470149397015 7.597664109190688
Mn 13.624388627939481 7.548799357329531 7.55776875418084
Mn 10.657192023535062 12.69851081571832 12.81269221643466
Mn 9.897148202110198 11.013535501290683 11.168581868940057
Mn 11.220062811993856 15.442935281331476 9.48351471736481
Mn 13.188390907633183 16.223752559925416 10.662715610834203
Mn 16.16455198381276 11.101069670252377 5.409186365477189
Mn 17.483480102374838 9.567297522960363 9.939880077816593
Mn 11.385317369979377 14.87253562507653 6.988351744982698
Mn 17.71438307612074 11.99197848450524 9.416183246171514
Mn 11.448596657508967 8.2371016375045 8.43628040229415
Mn 9.886012453848346 13.503965958566802 10.624321930208406
Mn 10.216113091889449 10.125194514160352 7.119196438030249
Mn 14.4379763170389 14.707107872747883 12.06663439914632
Mn 13.255211458886158 8.617464055063271 12.346414723738189
Mn 14.995723357447156 9.150042476929594 6.330483683990891
Mn 15.37192929103294 15.54012767941382 9.787535072200399
Mn 11.252334195111525 8.798564503242414 10.955109871050738
Mn 12.371266856687265 9.071362237325165 6.127956105311741
Mn 11.250311740157944 10.974508733881484 5.055508282242165
