33
Energy = -216.58997248 eV
Mn 15.806282141660105 7.632522021631238 10.468203925007215
Mn 10.51760033833924 5.038831033744328 13.707909432456535
Mn 8.163783553836282 5.307347429022057 13.359098165456164
Mn 5.219905029604005 7.621554399478151 10.507886850814826
Mn 10.491545287164016 11.778883440320108 5.305111649764665
Mn 12.817850869561354 11.387540436765686 5.777008603727456
Mn 15.713939015024504 9.141335714828699 8.597123554160932
Mn 15.601561164400948 8.628227827242164 12.860612913897333
Mn 9.273552984484528 6.691912150988573 15.257900300968007
Mn 7.0022933686463595 7.373588037799126 14.406752900153244
Mn 5.431128889001269 8.598767263220847 12.880565638717304
Mn 4.8628028130534116 10.132924830771197 10.980684828957413
Mn 5.418164079354952 11.676255241991415 9.064640105143477
Mn 6.974985471943978 12.906405893459878 7.521006448213117
Mn 11.750091865770305 13.590268289058077 6.6564844312667795
Mn 16.155993595391752 10.151255277264172 10.942935914345451
Mn 14.749047895004791 10.508075667929404 6.892990851117591
Mn 15.587205961630715 11.68697745133016 9.031328338127906
Mn 12.846880463364139 8.891247602821062 16.116042951237763
Mn 15.794197972203753 12.66655965972417 11.402798834661796
Mn 6.277126376566533 9.771331495604977 15.020214887440504
Mn 12.861999605847277 14.96341331239606 8.549629343920662
Mn 14.682807350381367 13.995570904499607 9.762232861364359
Mn 6.329133728115231 13.983313469938441 9.773254636913551
Mn 5.302823986391905 11.152234287552464 13.300122699870347
Mn 15.726313608889344 11.160644321185009 13.265990466742272
Mn 10.485480809350136 15.246627255083665 8.19957697188412
Mn 5.215535071967617 12.63843672494644 11.437162359917432
Mn 14.772350977507159 9.782338408413624 14.985137229443747
Mn 14.049258285584873 7.399641628786334 14.394404344785945
Mn 8.139317698297148 14.95043055348052 8.552663441095616
Mn 9.237648643192745 13.58992240385259 6.665931122431897
Mn 8.179899029316958 11.386955159493732 5.792285884522664
