35
Energy = -267.27508328 eV
Mn 9.687786980880169 5.7131905282828255 5.760838093283476
Mn 9.413019846745913 9.611561437458516 7.8847817439573475
Mn 7.713438328528869 6.9583487796090004 4.997687325962341
Mn 7.222457411261304 3.6524179739435123 8.680768842431968
Mn 7.165676351807682 6.163780048639004 8.940796318205354
Mn 7.708597272677788 4.609820369644254 4.3491803951758445
Mn 6.0133183678113795 7.226491120668925 6.853397012728003
Mn 7.339652583294902 9.292196890280787 6.393895243310438
Mn 5.393297570819847 8.322949765958858 4.906731862251746
Mn 9.477283134194971 5.129268860743505 8.3186665397041
Mn 6.302370650349406 6.597177822357065 3.1658858878533187
Mn 7.589526018071514 8.949548729906532 3.827327708156439
Mn 6.982917563925225 10.979639631676473 8.066581144697151
Mn 12.10293171580928 8.375061462298586 8.734280992483537
Mn 6.266715510507473 3.229601786003732 6.145968096991328
Mn 12.081309143379318 5.729173761284151 7.258170913334348
Mn 5.066779958675419 4.94890123990167 7.794948073169539
Mn 4.862749189628678 9.417962531263909 7.360302838357288
Mn 6.649661973735467 7.6476100977956145 11.006136182456732
Mn 10.471214663772948 7.361571258238663 7.539715064107113
Mn 9.669010267912258 8.471966647506163 5.372607846061614
Mn 8.926306109408388 3.363827089939866 6.525382578453355
Mn 7.556113575745383 1.3837449339814993 7.260249673814929
Mn 4.06587521439768 7.561228002528562 11.259642478450186
Mn 7.404210236816846 5.249200628826436 6.760870853716954
Mn 5.463533292553467 5.321708655771893 10.46761404207555
Mn 9.161670827929106 7.517571689497572 9.711428228715134
Mn 5.144743577965904 9.665070121788512 10.012926085828694
Mn 4.990151199008316 7.277424757488646 8.992191114119612
Mn 5.364596622836304 5.479409236819564 5.230443916199895
Mn 7.929692362797259 1.9757196571330797 4.696790382078856
Mn 8.353267593047175 7.306707521846277 7.274571997166845
Mn 2.956000893461613 8.546705486270435 9.01995442962732
Mn 3.6924934396162845 7.104151773149564 6.777473151241961
Mn 7.076423962806993 8.684821796241922 8.801860258091097
