32
Energy = -225.65655857 eV
Mn 9.944321675507467 9.133485748086569 9.03157366744805
Mn 17.623710636914826 6.9489434106504815 12.808617156447786
Mn 13.811382961536927 12.543753592114092 13.052052504055599
Mn 14.065598279482577 6.42307208238224 9.81237999507425
Mn 11.077058659561173 9.895825341900672 11.129420123083436
Mn 16.657359223068266 4.943673135381775 12.539137133976054
Mn 16.13130458607498 10.020867707693053 14.92447629877478
Mn 9.96531359004846 5.260880892244599 10.722946412771778
Mn 11.638946092019243 12.207690636333327 12.342210410272282
Mn 15.010137888642166 4.052201084118616 10.975799384094596
Mn 9.420365917124224 7.7499055602405456 10.766505047291782
Mn 17.576245817685997 9.431959458911425 13.073767786471654
Mn 14.562286784219518 12.13765121951341 15.39209831904026
Mn 11.508227389969077 6.214684690852019 8.774087931042109
Mn 8.374615969923633 9.979589047499102 11.319326136234999
Mn 16.087867468541802 8.187035840364233 11.260024425986932
Mn 11.65896614510205 7.353862168952966 10.682058853800742
Mn 17.12926273166812 5.219404417080591 14.737293960133263
Mn 16.372757692582024 12.048530763456085 13.411847812761152
Mn 11.933863137463126 12.468284757774425 14.773457279107967
Mn 10.136507154244178 10.587520246981274 13.317092020473389
Mn 12.431143404263064 4.644266336188432 10.592164102128095
Mn 16.684670739584007 5.922236322008867 10.219415781992701
Mn 14.781397143768956 6.289948700658784 12.396518578222775
Mn 9.592641394766527 12.133992455475463 11.130413078070703
Mn 9.156134426540103 6.577408037693767 8.705363340846718
Mn 17.202828522022667 2.9585769803430164 13.143149590531968
Mn 18.46047529334937 11.258360450856927 14.547743973511677
Mn 16.827233996480125 11.684404293715179 16.24829372322172
Mn 18.315248355271493 8.809638193637896 15.6194994055727
Mn 19.302060817822937 6.8310082996761645 14.320125131924128
Mn 19.063382294037766 4.815896188420368 12.684849419436082
