36
Energy = -276.79389207 eV
Mn 12.080017950444972 13.348010953406298 10.597907307588047
Mn 11.092804890286354 9.740497624135946 6.306169339188864
Mn 10.532876268116402 11.770992575213901 10.051398350845702
Mn 8.711905220716677 4.122678623867533 8.590627009584127
Mn 9.538965265856188 7.534659637924088 13.203359656568209
Mn 7.2910991397239115 7.879686088839017 6.501416505096224
Mn 8.98546320847685 9.985636289288424 9.604349025176957
Mn 9.187145968231428 13.387711100142138 11.198878380515284
Mn 8.611811002263684 10.08675542633335 5.595308898557791
Mn 8.098736862253421 12.151115573398984 9.305721472150614
Mn 11.427772049843947 7.460377876080865 7.551725799594784
Mn 8.713284323386377 6.391521666767451 7.967600303180175
Mn 8.718131831680399 6.033281054638911 10.746459851645085
Mn 11.202804743273711 11.770412453022745 12.494142655218617
Mn 7.1641191177279095 10.05853143205463 7.873629862626967
Mn 11.264456847202304 7.086653782274454 11.531139146132258
Mn 10.347065876333975 5.246183402679885 6.749903773467997
Mn 11.947659331067412 11.8369258205475 8.043567820306897
Mn 11.216230819609777 9.696199961479376 8.913498028842094
Mn 12.63711512907306 10.578536368230667 10.694487962374271
Mn 10.158356209711693 7.734313527117301 9.563365757563032
Mn 9.658170924754181 7.448778263660148 5.555195557679087
Mn 9.209822441675819 8.722255186246306 7.597395785662174
Mn 10.708065318216036 5.436119530040857 9.292809458826229
Mn 11.90213883510524 9.303653791861706 13.199012104578793
Mn 6.728982239890398 10.358801442236539 10.592293932818418
Mn 8.815652045206779 11.046083669975216 11.761654744356438
Mn 7.868462722810034 12.46968430793147 6.899996491705111
Mn 9.703399878425099 11.185675768139083 7.591653218010945
Mn 10.599882986796873 9.428671765100386 11.349697213321218
Mn 7.429485175564883 8.032874492213649 9.247224034646287
Mn 9.968526786280432 13.574210933613147 8.482033367738012
Mn 8.415257414847353 8.391242862825981 11.388682989500094
Mn 9.481069774810205 9.945147412128206 13.68189324570417
Mn 5.8315363332097085 12.151571208642407 8.715165752577045
Mn 7.125593907652938 9.303122305089087 13.05005583126207
