33
Energy = -218.74721262 eV
Mn 10.884024941267057 10.69006595142875 10.705586975651162
Mn 9.494231513168394 12.355095587786723 12.382045685945387
Mn 6.078790994427129 13.789897000306675 14.1021178478533
Mn 3.3934269058205677 13.66300442317312 14.203497160573704
Mn 0.478922585953101 12.248994253079166 11.651106335011312
Mn 21.137774269372546 10.00234441821644 9.80311528064615
Mn 6.178673785359226 6.801595860482467 6.464711929000211
Mn 10.391099977068905 8.920214852988563 8.744986653376731
Mn 10.648232280360784 13.249040407710837 10.2430152208103
Mn 4.753064524333059 15.523883916443692 12.982648989266835
Mn 2.6378593982662157 15.177808777463223 12.258457786210721
Mn 20.702290740270403 12.484260059029374 9.7447332657554
Mn 21.062883305771773 11.398217749478956 7.665291238527319
Mn 0.9329748935369122 9.48622144090239 6.033028668619969
Mn 5.318914073026788 8.357045841583766 4.512361556299718
Mn 10.405836266163572 11.35896778169189 8.228521448059453
Mn 8.777995920894996 7.325908709420932 7.174668409486941
Mn 9.846696505031927 9.764139576618108 6.2901443095190706
Mn 8.033745432028532 16.91136817666402 10.627161635715355
Mn 10.510461472308895 12.063025532396843 5.5123559008446135
Mn 5.328348384262903 17.242034235270907 11.366951435404781
Mn 7.069378358023408 15.82271653158171 12.59727944404985
Mn 1.741523487678074 16.3726436032699 10.195422261693652
Mn 6.5390532141479145 10.084714381903277 3.060558045903929
Mn 8.84432869396595 10.99398093253074 4.143505178588119
Mn 0.7244423963260965 11.730857932109462 5.599596954071753
Mn 0.26003742690896414 14.658062532797105 8.773516920521514
Mn 10.842702752086073 13.63053092895246 7.681573470585404
Mn 3.9441232086916327 10.136641443445612 3.430855266761369
Mn 10.346138911837235 15.730623534511622 9.45799565115453
Mn 9.458987045378995 15.020508429931182 11.711290145417768
Mn 2.8389551671488213 8.28018685304101 4.940453675622445
Mn 2.0665625677982704 7.638012213016472 7.353664600116739
