33
Energy = -223.46957403 eV
Mn 8.854305671850517 11.3707599564213 10.61964611808667
Mn 12.005234320477207 9.420970494311815 13.272044023124137
Mn 10.251596164643178 11.362184072640488 12.698158511579855
Mn 13.888156257716624 9.655303363427404 14.69397861239921
Mn 8.495109564236284 12.002217182201742 8.21669249781009
Mn 10.7597164926996 13.410163981900258 13.925416771905889
Mn 12.317113440477762 7.7922874163509235 11.2151640227019
Mn 10.873886856198425 7.817503256873502 9.139834288831603
Mn 13.837413429762357 7.713238374213549 13.289001693635083
Mn 12.478895191009581 11.805093611677833 14.044099175518312
Mn 8.162998911979793 13.712000027305331 9.98170748645799
Mn 9.240688935615792 9.48694538150152 8.876674229522122
Mn 8.897426733647658 13.394957293489774 12.083211225828705
Mn 12.811011777049243 13.81177306426626 15.46433996145482
Mn 15.98171956306092 8.228794708218404 14.4998529295617
Mn 14.223913050769157 6.230160248915128 11.232924917054147
Mn 12.924289997941816 6.159958701254844 9.311782246267805
Mn 11.626700612350108 6.423902608633342 7.012490429413942
Mn 9.885702471602185 8.281295955584477 6.757360817098053
Mn 9.635004970412698 15.832063962212858 13.25090298859914
Mn 8.372303928945065 15.809856751990333 11.109710447361744
Mn 7.480229939822611 15.864950511413099 8.900305659310034
Mn 7.565046035726998 12.237161281192869 5.848906048057048
Mn 10.545414149881994 7.423458243569853 4.554810278169344
Mn 7.594361819045274 14.13697870902569 7.278196363741744
Mn 16.025594750871928 6.519286219168682 12.795732242925762
Mn 11.530364948541582 15.862011271069019 14.749224154827758
Mn 16.029273909360207 10.332516898387135 15.841142209887176
Mn 14.32716573619001 12.034883651841408 15.799848975781925
Mn 10.423774647286207 14.418968698802308 11.597324692109007
Mn 11.123539133214978 10.052334384075307 10.738542057181304
Mn 6.1334322839569495 13.310441072522163 8.57159528473587
Mn 7.031628295174306 9.469893646976407 3.997173203964645
