36
Energy = -244.47331468 eV
Mn 13.216557247293988 9.715588266272357 12.379076271129655
Mn 13.05705755314394 10.716861929836202 10.102453137345943
Mn 12.981336138158134 13.186141325340746 9.834168266125173
Mn 13.05833664788306 14.66350956104874 11.838202336138325
Mn 13.208967187401683 13.663726777783197 14.120501888671138
Mn 13.28713608045184 11.188232706675104 14.392932139823435
Mn 12.105639843727314 14.17503256843925 7.6029000472649795
Mn 12.261998694447364 17.114467212838697 11.610781838836942
Mn 12.57052430821756 15.111384185346978 16.156745778072022
Mn 12.725645710614897 10.177891280453412 16.696204822174824
Mn 12.569553279006161 7.2278046002964516 12.691072249859024
Mn 12.259169369100455 9.216528241259951 8.145255764700511
Mn 12.90869895445434 8.678316236047868 14.701770110845192
Mn 12.67228972563551 8.196050936672972 10.386185631300295
Mn 12.441622924231686 11.703744799531144 7.824604035734007
Mn 12.438841583695817 15.674118772519185 9.570868786617154
Mn 12.675123454087286 16.155916623323368 13.881852372794624
Mn 12.907875385809819 12.654096926074008 16.449314711769173
Mn 11.610158548513485 5.00541423356425 12.998986973502266
Mn 11.832574721551644 9.261801686530207 18.774256564923935
Mn 11.15966400569191 7.8864874279408 6.417617489983815
Mn 10.938126924472083 15.039325843999727 5.640160359016016
Mn 11.162741410596315 19.289740632845 11.430575415396996
Mn 11.610609667640347 16.39982834408069 17.993277841788203
Mn 11.384804453090902 10.191791628347401 5.967466468917792
Mn 11.304078590211583 12.694919023096075 5.684532789882603
Mn 11.608891787552379 6.782575239232503 8.456210890301733
Mn 11.765953769132919 5.775764049553741 10.756434494121315
Mn 11.993311310256924 6.241290918133032 14.951933697630261
Mn 12.071652523933075 7.731205531771281 16.99463905450556
Mn 12.072607503490138 11.599078516153881 18.692618904750773
Mn 11.99439380840541 14.116388445201798 18.42133082432144
Mn 11.766158780685283 17.521897510115178 15.928284732750562
Mn 11.6113354014524 18.530925682163954 13.616443147909234
Mn 11.381854331559602 18.06360106763302 9.416192812082636
Mn 11.307256936665267 16.568485983367662 7.388052740423446
