32
Energy = -217.16399608 eV
Mn 13.452609393300836 8.758204149827526 11.730600788482544
Mn 7.636698070007343 7.164394753659416 6.73929920972054
Mn 7.762239870445759 6.065014640770934 10.774871919301296
Mn 12.469541447710974 7.773043066133351 7.547436280693877
Mn 7.023073578290604 9.545384435796757 6.079209349433489
Mn 12.239525805321783 13.418264715034317 10.41956363944915
Mn 10.188939639239297 6.901902398757306 6.5477451763303876
Mn 11.013025875456185 12.327024520454884 12.32244845625411
Mn 5.200600105923078 10.736601677357848 7.3282244235256195
Mn 8.950959635093119 8.39256642952875 5.05793086457172
Mn 8.898640441537884 5.714461865859275 8.479681214327034
Mn 6.1853624985160325 11.745136618738478 11.500994574281027
Mn 5.802799492530724 7.719980429681261 10.422530134040603
Mn 6.13472875822859 12.423806689887178 9.005780228374913
Mn 9.175434581405774 6.424606808647068 12.730716152099971
Mn 13.20826071545643 10.016313268527238 6.939153702039941
Mn 13.460346111027087 9.382560424613466 9.287060776424322
Mn 10.866472743820419 13.441434516310638 8.280801791776302
Mn 9.470861531495384 13.07909569503095 6.332333552801741
Mn 6.404521517658031 6.090121561082276 8.639783142026316
Mn 9.741816299466034 13.788446395157868 10.571965554010362
Mn 7.2982669114867615 13.72907710423493 10.687054398862639
Mn 5.587981268453259 8.315929777225218 7.8926812358412075
Mn 11.369228574139203 7.435246073906404 12.362114569698191
Mn 12.844411274575537 11.769860008246859 8.623682012836438
Mn 11.619825073733699 9.943679432164672 12.993028028578955
Mn 9.192119636046947 10.825643769343907 5.457200105813317
Mn 11.340634001776706 5.780023028469551 8.356779263730967
Mn 7.191521450598511 7.816005168468667 12.603592206481155
Mn 12.518187429080081 7.086141135889469 10.061978967239984
Mn 9.456306535583757 8.674559383898071 13.614035242969406
Mn 9.701788696440639 11.090769809549618 13.996006986447219
