34
Energy = -261.48582282 eV
Mn 10.703557213523037 7.119349567150666 9.260598733307063
Mn 10.628300743374917 9.640760507574326 7.246496103811367
Mn 10.421201236233047 8.68608557393051 11.84324008722446
Mn 9.483107186230846 11.161236612139632 5.730379363564222
Mn 6.878661609031341 5.945151680045425 11.154414245878678
Mn 6.667215950542208 10.658159694040718 5.632831153727098
Mn 4.985894531610946 6.9626603527912545 6.931853179795083
Mn 9.484229220756978 5.428412543897244 11.075818389858588
Mn 10.292957839941037 9.46363162071384 9.614298616573008
Mn 9.563751479526688 4.847774053410694 7.275176696338446
Mn 6.029491549586675 10.350549294606836 9.188973916640919
Mn 9.84562317681111 7.183070419127352 7.01724871691155
Mn 8.299330119701812 10.239824487041771 10.491991397988308
Mn 5.721486329545899 5.648762779745146 8.813738227977272
Mn 7.417118394418558 6.958143574836408 7.073700135138101
Mn 8.57968583435071 8.961946428722234 5.928202080577058
Mn 10.076769173600832 11.71013912545088 8.540342138936241
Mn 6.317691644501286 8.745446553131307 11.506562511617176
Mn 7.658785189727967 3.9756855244944678 9.468721082583365
Mn 8.559703905032931 8.611152510961697 8.431560394062116
Mn 6.6311288429702655 7.8246676327828295 9.461306910871935
Mn 8.638609461100955 6.379448764127667 5.0318446960022
Mn 4.338462506588536 8.104051502053213 9.144284517458532
Mn 10.71070258987216 8.434536803508365 5.066692830576149
Mn 6.3544163768825 8.93512617030325 7.258793061974296
Mn 6.460348434473829 8.047637208135857 4.979573858021401
Mn 8.279350182931218 9.149363563212257 3.7102077006869383
Mn 6.118910047331482 5.582887385713795 5.0679868544988675
Mn 8.388049832002471 6.081516779463618 9.04148960800939
Mn 8.109594637701278 3.825391887547497 5.125446783458983
Mn 8.597007044034752 7.708724786132172 10.840871214052433
Mn 8.080850124024531 10.710100191440134 7.790097657189503
Mn 4.361126769557816 9.805356029794149 7.144429062568108
Mn 7.132968799851901 4.742783856218857 7.082037848581093
