32
Energy = -211.84580293 eV
Mn 12.257819634780947 13.736457503719476 10.193172080061476
Mn 13.633589193955164 11.70493732210487 13.744020992566396
Mn 13.171022557555558 9.509980789506951 12.645558902199943
Mn 12.254597579900851 9.435753585887518 10.33859885080516
Mn 11.796260945521299 11.546436678877892 9.110901131984045
Mn 13.872823329811379 11.794837736969678 16.313637265641834
Mn 11.116943012456868 7.250317486656673 9.520440905320337
Mn 10.209904404248297 11.472625225619876 7.0729467420358825
Mn 11.122044298006543 15.849787162023258 9.22513760961887
Mn 12.95750226326618 16.025606509081598 13.858915060132508
Mn 10.898107161830138 13.673436191280226 8.022829203691192
Mn 13.669883216020704 13.930579056884671 15.026429046356471
Mn 13.671598745857413 9.586329039777102 15.171025780851103
Mn 10.895405195860004 9.338111863501126 8.17409065113019
Mn 9.754306957286037 17.767234941641757 8.515915096197299
Mn 8.426160131377952 11.411872898588568 5.382063078243198
Mn 12.406768603265514 17.98872712483723 15.196530079991842
Mn 13.733285950638436 11.87498988384052 18.765258594222477
Mn 12.405323310746505 5.520574118920149 15.642952021470128
Mn 9.746030029621478 5.286501863758326 8.938920430437914
Mn 13.180853765231582 16.095321124221268 16.381367701062942
Mn 13.645522427586435 13.954417466212167 17.63663168646239
Mn 11.827512554075962 18.096521127225657 12.903993388793516
Mn 10.901768752530838 18.018194287851717 10.57099535417524
Mn 9.551561302972988 15.772160163613027 7.230766165217941
Mn 9.091117936067269 13.557211955294687 6.143033502561274
Mn 9.089260790018065 9.324508481306452 6.286398339728211
Mn 9.552674515939877 7.191811389122285 7.529121208121445
Mn 10.899935965763346 5.179872520805232 11.01117505273044
Mn 11.8278907515749 5.256001783607052 13.357778653116053
Mn 13.18118321363426 7.494453977173291 16.69667649524253
Mn 13.645824556211501 9.734939557607564 17.790386270104694
