36
Energy = -238.00945214 eV
Mn 7.089982468196782 12.966559152692687 14.084036934233922
Mn 5.902652466723063 11.051515663733982 13.272199459388498
Mn 6.432600480503721 6.806677711080845 11.513778756195695
Mn 8.0757330794159 5.20206951249269 10.818696771454418
Mn 12.774326650273453 4.739689760191478 10.608314256918492
Mn 16.084743110876893 7.822579396841117 11.924270058522172
Mn 15.530248390852588 12.141630159372475 13.717962650966681
Mn 13.763756977550495 13.63852781049168 14.35751065608525
Mn 9.154392786105312 14.085237585083423 14.548212176471585
Mn 6.161566388205076 13.057906402709667 11.67589539023646
Mn 6.9776231096912 6.618493927705908 8.982046595416929
Mn 11.6245122900488 5.144958738610563 8.36631484575152
Mn 13.966130926589646 5.906908787828516 8.691623762111425
Mn 15.749118530395135 7.578386140612265 9.391987805519088
Mn 16.566788118255825 9.762130524293708 10.310664761140595
Mn 14.920800426794436 14.015076954031407 12.074321121307698
Mn 12.79036638653125 15.233532600105804 12.589097085647373
Mn 7.912751504214301 14.70544650336189 12.36402551158987
Mn 11.53330291513209 14.427740037136338 14.687739040608097
Mn 5.645843224914763 10.604777557588442 8.20873177360266
Mn 9.126842704481385 15.896684298355312 10.421753554148019
Mn 6.374555384260481 8.488973663582588 7.3301262567076355
Mn 5.636794059904929 8.569237930782679 9.804903652645756
Mn 8.131203148435018 6.995180670755484 6.7038599771219705
Mn 10.39740345791809 6.204767602266589 6.3899792632330366
Mn 13.816655543299738 15.430631622706812 10.235167075174362
Mn 11.515011509168872 16.085311429307524 10.485964995310475
Mn 12.736866886525755 6.534300698674143 6.512338980412343
Mn 7.149591930524136 14.64145993313451 9.899693336703795
Mn 15.460685326374401 13.826160021689752 9.55578869105414
Mn 5.817744794790355 12.793398301324865 9.141838187100339
Mn 5.340742307573336 10.864525039843684 10.757507596396314
Mn 5.559930792374386 8.860164777476529 12.355788114818374
Mn 16.340764441711134 11.772997939914726 8.710180291629255
Mn 16.261537656345546 12.062458930330243 11.256463145624489
Mn 16.25573987490036 10.036807725311418 12.847556638391513
