30
Energy = -209.28536191 eV
Mn 4.520917807085116 9.700971917088854 12.943824000404593
Mn 4.542026129962069 8.096547564873887 10.994798479771092
Mn 6.460538789835534 10.83638767432921 13.672618922823288
Mn 6.50209273447589 9.10371560004256 11.843549202192195
Mn 6.556059203416564 7.528312515639771 9.660782856293496
Mn 8.468170308861716 12.404196704710948 13.789292840296014
Mn 8.734017613835052 10.026145468522353 12.857259412640383
Mn 8.550741324672705 8.707068733070786 10.627754757831285
Mn 9.025839385869022 7.206895096755594 8.807156364044594
Mn 9.768404002676899 13.609714250768606 15.771311560751375
Mn 10.543138574503873 11.645839407186722 12.79325793264077
Mn 10.779074629941498 10.008068778587198 11.149313932107937
Mn 10.419801505682788 9.110672525556257 8.675656917213008
Mn 9.69652247929397 7.676310779263135 6.233649983765682
Mn 12.376873972551806 9.698083579518869 7.318761946236927
Mn 12.796418494742998 9.812109490587915 9.558881345804297
Mn 12.922471557339941 11.271526999939406 11.848155283049874
Mn 12.207415722280444 13.610228038552233 11.967501401184414
Mn 14.475053427815505 13.38998898454282 11.614423423918327
Mn 14.351221975218042 11.7859766124068 9.839138384989402
Mn 14.683004115405547 10.277726613945493 7.649517826998594
Mn 16.314915829641887 13.974308424162835 10.087307013792397
Mn 16.04869271668122 12.300316798276146 8.208467865928338
Mn 11.57520786644328 13.42628932643661 14.365356979598287
Mn 15.693503852173716 15.32816717313028 12.3094061028373
Mn 7.406028810807028 6.761518618165521 7.181645380372909
Mn 13.791199777339244 14.4486620210056 13.79443693367477
Mn 11.486867618524343 7.515049713606278 7.642059367760747
Mn 9.979279595947883 14.32412598613975 12.940679498280225
Mn 12.092211173142221 8.19170737800894 5.366946956707684
