5
Energy = -29.49782027 eV
Mn 10.297146230839543 9.918479063720339 9.282861750770358
Mn 8.385400680459762 8.168608185642379 11.753031986226828
Mn 8.094314353265919 8.306603169239546 8.664828327229822
Mn 8.08532141062731 6.99639525503308 5.098693630433041
Mn 6.791451031794574 8.267252069265197 6.822348363932535
