5
Energy = -32.3042845 eV
Mn 8.088038800609274 6.637092393179986 8.202613162381812
Mn 8.10673886276503 5.169940664148773 6.0942221663858405
Mn 6.257188979602431 4.8266660704185025 7.949614978726438
Mn 6.2142812653716994 6.87977394581161 6.42995578178548
Mn 7.244193230514282 8.805304273790561 7.466285774209637
