5
Energy = -32.50250746 eV
Mn 8.366158161399024 8.140208275803674 9.096391970032691
Mn 8.692885030911867 10.739949589975387 9.175847664533704
Mn 11.069490434735949 11.19181629892306 10.180947823520192
Mn 9.57524633747497 9.263545305345794 11.132881256524364
Mn 10.61967023486685 9.15604644744529 8.833869728000371
