5
Energy = -31.01841582 eV
Mn 12.80310216641808 10.80863132391255 10.615605198663891
Mn 12.27601445580039 9.364603654879243 12.653238740468465
Mn 8.755051674503507 12.50412144231897 10.374818331985093
Mn 10.251121022713457 10.818475153022721 11.787745805218242
Mn 11.149468109030517 12.250284537190188 9.562609969920667
