5
Energy = -31.06119916 eV
Mn 7.641717567910481 5.388953327487347 5.984278966084804
Mn 7.064050427244243 7.100808293159581 7.895768939400164
Mn 8.382234734693554 7.408493263490256 6.375923494285791
Mn 5.630474003134121 7.134612768613167 9.663314971431872
Mn 6.5620142021059165 8.44017102938058 5.707801779613124
