5
Energy = -31.22149207 eV
Mn 5.004295515130702 5.258224938788054 6.145489734558993
Mn 5.98226193628492 7.446892529607527 6.470423010881956
Mn 7.342070267291548 6.546475220112928 8.137749852928906
Mn 7.944968274774919 8.792478568285546 6.8873555581023505
Mn 9.639226282519568 7.571370068112635 8.43842842372288
