5
Energy = -30.17587584 eV
Mn 9.98550358708878 7.386294934014843 6.083224283699907
Mn 6.2179679274570665 8.397948837824762 10.676628750309868
Mn 7.600027326846256 5.9810860245338935 7.49506168603558
Mn 7.811840910305894 7.815902151253162 5.729433700487688
Mn 5.80438807277682 7.839733310113925 7.4352309141694075
