5
Energy = -31.10626064 eV
Mn 6.930287477770223 7.3805335539500785 9.19752830435687
Mn 9.425319789027354 7.70680808704048 5.876635719966902
Mn 8.003859610331967 6.7768902797285815 7.255315383688577
Mn 8.68025906801728 8.934497142107958 7.946336775849131
Mn 7.603023412210019 9.720758177733323 10.224813416023348
