5
Energy = -30.17404718 eV
Mn 11.77640107970699 6.72895935896126 7.667473492710284
Mn 9.04747194260425 8.189378116929523 7.975461280093836
Mn 7.717715586364086 9.611725961686272 9.09844641129248
Mn 7.026793107359178 7.799784610548076 7.260844802011242
Mn 5.413313065911092 8.630633504789202 8.965814857186942
