5
Energy = -32.54645569 eV
Mn 8.502948903159263 7.662634817789469 9.175875282484649
Mn 7.83095299871292 6.684198673128937 7.04176579437602
Mn 6.0931641379459816 7.436316563851347 8.783927438905987
Mn 7.133262342627847 9.015705626175905 7.2254905527817925
Mn 9.625916275238902 8.41799418883934 6.98404561076628
