5
Energy = -31.53193698 eV
Mn 9.466027194844623 7.245822661147108 7.9643543047053
Mn 7.045676617266717 7.070478683344112 7.923500443631214
Mn 6.297767826823067 5.13720570515528 6.610141752222911
Mn 7.575709451711277 7.201571792424914 6.341191927709284
Mn 5.664886281008012 8.685489898149173 6.687164049463966
