6
Energy = -39.08647647 eV
Mn 7.557731344801808 7.542412094102386 7.7685672471692815
Mn 5.43706949656167 7.137334769263367 9.328563100745592
Mn 6.2097850105246035 7.403113084355654 11.883440352167524
Mn 8.895722465769623 8.067297528984405 11.858196653695503
Mn 7.551796446586755 7.664680935254849 10.070791532258347
Mn 9.660639887053735 8.15437283215474 9.284354257639794
