6
Energy = -39.89937919 eV
Mn 9.881247723082717 8.768216978615571 8.27231492965527
Mn 8.623576247376375 7.124580308464884 9.340908301722434
Mn 8.700217958507242 6.985175185877057 6.812151375680751
Mn 6.668486818454656 7.716862356498293 8.238606482809
Mn 7.918477840925481 9.366897088638598 7.1752110089684615
Mn 7.835977797620953 9.524962419756173 9.728113576822242
