6
Energy = -33.28333639 eV
Mn 9.29587638145555 9.29587638145555 9.29587638145555
Mn 6.839485097322245 9.568169853055018 8.263373702928842
Mn 6.911449340771719 11.345692315103642 1.328115964268991
Mn 5.12685960916266 10.696251511502087 3.071731877225616
Mn 11.564716025404673 15.243644834239777 4.683235047116419
Mn 10.964967685972967 14.11599146397239 2.4379438295099174
