6
Energy = -34.20091523 eV
Mn 9.5875343296822 9.5875343296822 9.5875343296822
Mn 10.58936648745463 7.413687736133649 9.0138300487581
Mn 11.456668188690484 6.112945315477944 11.111880908098097
Mn 11.015444108490026 3.899572979917537 17.255326290038315
Mn 11.456767922572014 1.3983964268522877 16.738841865503957
Mn 11.836833526868114 0.41682042277911807 14.363058456455736
