6
Energy = -36.06319319 eV
Mn 8.624009244013816 8.625102713245118 8.627219666153161
Mn 6.499191457996674 7.4190985331427 8.235647232995895
Mn 5.306988107694064 8.933519666033028 5.0017897667543165
Mn 3.2779336136455393 9.495091604706026 5.448907045175358
Mn 3.738160566078422 9.677431291931411 3.0879643890383015
Mn 1.3740275589056925 10.285062410010523 4.389043908368733
