6
Energy = -37.98310886 eV
Mn 7.473149563774706 7.484865607442476 7.4909896833417715
Mn 6.394840436782017 6.785117809164169 5.178368282430781
Mn 3.15909536571697 7.322551495183294 7.542455759094127
Mn 4.077370458817648 7.122744037228013 10.144410100844029
Mn 5.332387959164108 7.355027613424612 8.233444908808014
Mn 6.765827585409805 7.251109411275291 10.037193145356518
