6
Energy = -38.3544423 eV
Mn 8.928089047967351 4.612532226852827 10.22795176329041
Mn 8.231007421127355 5.630594245253515 7.970833007315041
Mn 8.904110898709007 7.234180165970085 9.986800758684907
Mn 6.301191593740596 7.11758094377179 6.539144902295727
Mn 8.059462608757618 8.071796078304294 7.891849369147743
Mn 6.499886660366291 9.707788601996452 6.9689637377075915
