6
Energy = -34.52631465 eV
Mn 15.28096857155482 12.587092968336957 12.550542013224634
Mn 13.65451075484257 13.544499169363071 14.054089418049939
Mn 5.5969513827499995 11.304566535471709 11.939298799720111
Mn 3.2254518338809484 11.569448575475155 11.297275492220278
Mn 15.723950483827574 9.904141967280905 9.283981000492998
Mn 16.611685543993552 11.206321255806387 10.993354990082002
