6
Energy = -39.55285788 eV
Mn 6.675708839583828 5.677445832997069 6.701309863325999
Mn 4.442402909370926 7.190255373325644 7.363797385992497
Mn 4.6951283177114576 8.983144954146207 5.493027759586133
Mn 6.649592896285792 8.178159716107682 6.710860295620103
Mn 4.4059141917266045 4.797060070109525 6.8544609734943025
Mn 5.006437475092426 6.598415116379742 5.0815983476607665
