6
Energy = -40.00934833 eV
Mn 9.148402683949122 7.8833138384929535 6.057459110680568
Mn 9.000142713621774 8.313889061162417 8.523433847738309
Mn 8.336405066551174 5.958275686379931 7.854106118350321
Mn 7.221083843956826 9.868368569531397 8.547593618124724
Mn 6.811112282964717 7.964733155292311 7.054549968902273
Mn 6.960910944977092 7.489947516179521 9.441351098516005
