6
Energy = -34.2319037 eV
Mn 7.213394698838855 13.254721246828598 8.526045134847886
Mn 9.574651048321375 12.477058202479615 8.498278344514578
Mn 5.7080115462451095 10.954009983022038 11.866785055391993
Mn 7.997459880120055 11.992834965434971 10.410914615860234
Mn 14.2181443696821 5.738744521233073 11.51354447880639
Mn 15.933788544563024 6.239168127657583 9.82783661835203
