7
Energy = -46.80698693 eV
Mn 10.167960739529136 9.54489306138641 8.4365769774381
Mn 10.204304203944297 11.010858806926445 12.403728096909957
Mn 11.03937985616804 9.105440185323282 10.923777482445036
Mn 11.143242891949763 11.469264527408837 10.07653437318951
Mn 12.724196023867444 10.797456984482642 12.018925490905506
Mn 8.696330661391348 10.190596883346867 10.50106287506398
Mn 9.210599785714031 11.858658139895851 8.78106280485877
