7
Energy = -44.75004685 eV
Mn 8.911182217411387 7.888956196881078 5.406962719711761
Mn 6.60013399430689 7.1755578005050715 5.793154322803163
Mn 6.56552771615444 4.914077562899364 6.744206875965723
Mn 8.545646230835406 6.269827819108645 7.207556012389036
Mn 6.8583341856394595 8.91689879293995 7.869149063707998
Mn 8.194994647148578 7.589565482811955 9.600043446360822
Mn 7.049777922465558 9.966627009553884 10.093089879034343
