7
Energy = -46.29678741 eV
Mn 10.532487233451965 10.508883831876776 8.240551593410245
Mn 10.197609792235246 8.275532618749965 9.468457924395292
Mn 8.200830142465097 10.805740752190266 6.992698338081699
Mn 8.192729708252813 9.717513098166037 9.313582727866722
Mn 9.106038990682245 8.459195056418313 7.313712550700366
Mn 7.8756167581835035 7.333908542156247 9.05540735607566
Mn 6.034881962172233 5.800347757730226 9.185568746825258
