7
Energy = -46.63673933 eV
Mn 10.47292854058845 7.454784298637912 11.237215096521986
Mn 11.575967140806362 9.513177507477776 10.028788444957279
Mn 9.780299216664277 10.380900602947836 8.419268892637557
Mn 9.709489681834082 7.9324473067940495 8.838010718114981
Mn 10.323746736867461 12.003957128168635 10.19656289583434
Mn 9.08222404348108 9.622414380801029 10.77186451948893
Mn 7.868162187410865 11.677930093260233 9.167611836278773
