7
Energy = -47.41370447 eV
Mn 8.095306417618517 7.8006073631232855 10.696193385633103
Mn 6.624583831640635 9.619808955693616 7.420808109636969
Mn 6.109564289245053 7.205892174543794 6.58102804587808
Mn 8.403656548320393 8.25798648123885 6.099550894456956
Mn 8.174896146660489 6.524968672680567 8.067977304712663
Mn 8.667753855189801 8.803618078163622 8.517416205211688
Mn 6.333697072122662 7.746259209394066 8.983840675440495
