7
Energy = -45.18382408 eV
Mn 7.68295507358178 9.792629561326452 5.386565690679003
Mn 8.441615810668901 9.365291716880181 7.909464713965986
Mn 9.484089993090592 6.892758115177616 8.48757201535626
Mn 6.880646052130625 7.272540140847516 6.563924091787493
Mn 5.859179650431091 8.153654716037508 8.583544421829611
Mn 7.025423250652112 6.026621076489757 8.769703931205152
Mn 6.980900333478983 4.854440362147879 6.641547851473438
