7
Energy = -45.88363234 eV
Mn 7.824662716768378 9.883414852639579 8.476289129443057
Mn 5.786485373946726 8.901481902855574 7.226436897647234
Mn 6.886475381806638 5.686395225388034 6.529676533648853
Mn 9.22716961470912 5.668114291536357 7.626769404278453
Mn 4.823490172028694 6.950480774437633 6.127917458417947
Mn 7.556126786359218 7.564720273351101 7.512848268300172
Mn 9.656394993272421 8.013596824708605 8.699095112889193
