7
Energy = -45.01710871 eV
Mn 9.092909111300601 7.497897529958314 14.19310405931455
Mn 9.010697766811967 6.583509415056533 11.653024145142183
Mn 9.426834229854496 8.94095266514701 12.330113461767002
Mn 9.731927841334064 8.781202483313763 10.065464392230451
Mn 9.492909889791429 11.129790876789809 11.330471773270608
Mn 9.872076741372629 10.84619263962505 8.656677988273259
Mn 9.665452507032716 8.408737948161663 7.552356965915865
