8
Energy = -54.63421841 eV
Mn 11.841016359362468 8.715425185551968 10.163077109959438
Mn 11.268472085022896 9.697065707279954 7.810496174561262
Mn 9.678487073665055 8.344143053551164 9.084063728707081
Mn 9.499804952220329 9.084952469504737 11.400370030626721
Mn 7.465857559285183 8.8309118150491 9.82500280849394
Mn 10.432931216016726 10.743239737782595 9.901116311067636
Mn 8.724745090368351 10.414014316905646 8.215252530798423
Mn 8.131956597013835 11.172360070246349 10.640021343387108
