8
Energy = -49.9750422 eV
Mn 8.312810016076035 7.259780928574803 12.895194116959846
Mn 9.464584415771228 8.796978887752529 11.077766951655605
Mn 7.318759967730772 8.696925862972114 11.758300603183258
Mn 7.407198759581819 9.556082435393172 13.831676604326994
Mn 8.138582866375637 10.977500947392747 11.744623847737298
Mn 12.0010800651454 11.679430404086684 7.091012218976329
Mn 12.418746727890788 12.2565474971548 4.443723194715429
Mn 12.980812505929219 9.759576937481727 5.407361259096099
