8
Energy = -54.27058966 eV
Mn 5.08900993528755 10.51633214011097 9.89046162749222
Mn 7.343796709851027 9.142585991193693 10.281848463918731
Mn 9.69116262423998 7.94622671295469 9.78811562874332
Mn 6.015826635680426 9.216356530606184 8.069441137271228
Mn 7.598369017159493 8.010127156827993 6.219338507503385
Mn 7.458519003953951 7.017663003273387 8.66826565997843
Mn 9.910854180670261 7.271454632324183 7.375006356012599
Mn 8.37649746909023 8.972798545182435 8.173813711099312
