8
Energy = -54.37892973 eV
Mn 9.99562995566854 5.358569486325614 9.016478481814381
Mn 7.628921722926473 5.2694912707527815 7.933762283036868
Mn 9.18137727550662 7.041465010109946 7.592192439482901
Mn 8.29894807568843 6.403493002103114 5.698824118940104
Mn 8.572537204320001 9.214293833155212 8.298155184666356
Mn 8.072547235783833 7.004130344707783 9.766950917202163
Mn 6.976751749429706 7.591970670032434 7.392347846520514
Mn 5.545836228970365 6.628480326280453 8.938382688421822
