8
Energy = -54.78479711 eV
Mn 12.04128005239916 7.594152850488109 7.605395700006604
Mn 10.812362085247699 9.711391300749666 8.083405282600674
Mn 8.305501601519476 9.189881051604916 8.53726380778226
Mn 9.58377356878481 8.149839184835292 6.802260107837721
Mn 7.275501872682722 8.729825428062538 6.286493672388757
Mn 10.049566377313928 6.031506945764002 7.719164673612412
Mn 10.009853719661205 7.730658293788656 9.411503985556601
Mn 7.667595323120195 6.914376544118682 8.197080265404635
