8
Energy = -54.63415997 eV
Mn 8.48781728063952 11.7078940171361 9.437914149926112
Mn 9.66744474528475 10.799880848549913 11.36922979902724
Mn 11.155634260412798 11.7291794164816 9.671126696999332
Mn 11.996981104784044 10.438780939237494 11.755956126175105
Mn 12.322820041075435 9.405690804296366 9.425938234075158
Mn 9.937295403994844 9.749723401253345 8.968218291480161
Mn 7.960352146081723 9.34460494830321 10.414283914146656
Mn 10.437567952235353 8.513879307462828 10.99624775778972
