9
Energy = -62.24351437 eV
Mn 8.095957617763602 9.182934134211854 7.215663794642097
Mn 7.74437169521537 11.567121813256433 8.26678293407616
Mn 5.100560150013847 9.475009018686686 6.404803516743837
Mn 8.238051273621823 9.754392590981007 9.964731084633229
Mn 6.380734098577346 9.675303590999063 8.526738441666533
Mn 6.976426608437453 10.99412162843757 6.102906008462138
Mn 6.624743307464816 13.375568073783688 7.0398557478878265
Mn 4.798031863294769 12.02288529722377 5.7096442804181775
Mn 5.142143578585196 11.452042084205388 8.025173427899025
