9
Energy = -62.24995727 eV
Mn 9.908614568033784 11.301017124930942 13.604857082490224
Mn 12.047168201296687 9.460615825960984 8.831164145825069
Mn 12.434218780024652 11.124066419626015 13.187729876359352
Mn 8.567541763166364 11.228846601011819 11.417754176015336
Mn 10.316140211966266 11.012604823114364 9.718354685543854
Mn 12.223624975076806 12.191515065410126 8.639233482332719
Mn 10.885073150925669 12.438830498133916 11.534763885599881
Mn 12.553264880950838 10.945633264508713 10.754629482069538
Mn 10.728397747030613 9.784781494496945 11.716662182476519
