9
Energy = -62.37296705 eV
Mn 13.928540297806613 9.868629760252162 11.769640027391072
Mn 12.94451087034281 12.307425714108582 12.47079288808524
Mn 13.116087515683855 11.674280989962808 9.915230346039484
Mn 11.045672711581597 12.718297320892747 10.877974474547857
Mn 10.474710348454122 10.793197469780637 9.385749851606047
Mn 11.66296754494209 10.38276006431266 11.49945254765453
Mn 10.227533441913941 11.679619674691704 13.0065124469415
Mn 9.402797870599704 9.656632071077501 11.517888259635576
Mn 8.712982005729216 12.09152536892126 10.868029540472644
