9
Energy = -50.94093349 eV
Mn 9.320598005050009 12.068048741298444 12.974349194228495
Mn 16.505087915713652 11.367688306367086 10.927708107065692
Mn 7.973542581295826 9.949887541989503 13.493927231429701
Mn 15.359126415716036 9.461574660832724 12.113192807527518
Mn 18.497932265801776 10.87759868493816 9.548884013686267
Mn 7.887255284240445 17.476214651649187 9.488727245276907
Mn 16.31914942647547 7.057869494773438 11.670746491637454
Mn 5.408235482547451 9.829914778548988 13.005978051398104
Mn 6.628810806044743 15.814693782650417 10.668571702946542
