9
Energy = -60.34436665 eV
Mn 5.267731080672256 12.958755100239562 9.517664784253123
Mn 5.559854682438404 11.052391551513587 11.24142681292009
Mn 7.504950458210565 12.83606356364244 11.207350129852603
Mn 6.905136545146605 11.545950573070202 9.341274908127005
Mn 8.27750614431309 9.721048764123836 8.38650196834631
Mn 8.115265960975956 10.188902307124089 10.97939225785052
Mn 9.28638828128762 11.917346579267722 9.425146674486433
Mn 10.303239848903571 9.643719901477889 9.848627414432983
Mn 11.786083951757108 8.55403114127433 11.12797429943906
