9
Energy = -59.7825199 eV
Mn 7.7039988366990615 7.750997995863118 7.718046683492254
Mn 2.4805517685292915 10.446948793865998 9.556491963941697
Mn 4.899027479054533 11.151806455335151 9.571581877056095
Mn 6.46311468089784 10.71080558664273 7.770653874897184
Mn 4.13949931680227 10.35816700588226 7.76894974387245
Mn 6.1419914382666345 12.95277051461402 9.351510072366015
Mn 3.3042598447604017 12.820061338880523 9.076920414007487
Mn 2.2899633146464136 11.60796117151072 7.176766582462445
Mn 4.700301762774124 12.493211314390313 7.204553760386569
