32
Energy = -66.87264033 eV
Ag 8.12519331626625 9.917594222695604 9.048232131281695
Ag 10.011871270832115 7.983050640841387 9.883955028820974
Ag 7.097346152828289 12.471353234415572 9.21738452544288
Ag 9.311923591582413 11.999216740681167 7.504085435430947
Ag 7.364656785854606 11.099376498204922 11.574193668419554
Ag 10.370878794097495 9.439596753796918 7.489613935722683
Ag 8.755005295879277 14.560655115873011 8.646594844735809
Ag 7.651986618160156 8.327468829653476 11.275608884273934
Ag 10.823529385359754 12.090146549270388 9.977129227527644
Ag 11.237077118367754 14.10925838903445 7.43909507381563
Ag 12.214331341515594 9.668755838187046 9.5835220276136
Ag 12.250902443032642 11.532804826168725 7.48664596221946
Ag 8.731707464084977 13.572367141092881 11.270787562105664
Ag 11.036100068416738 14.989524971912852 10.144115496235445
Ag 7.885803787501001 9.477434303213787 13.797669070954155
Ag 13.33686073897041 13.512801002284904 9.166294578159624
Ag 10.094498191256566 8.118483777588091 12.715510680867347
Ag 9.295184551257863 11.86170019466379 13.460624660055279
Ag 12.444884532917252 7.5721500911828565 11.36855738320473
Ag 14.58850490480027 11.00907077654814 9.221105320427993
Ag 11.357240256300583 13.516497133591733 12.489714933696073
Ag 14.520365181208156 8.121346128919127 9.468142730612005
Ag 11.667296929061242 10.581952783350992 12.296009355320349
Ag 13.496195799683104 15.080344180163436 11.490919332192886
Ag 14.024833294656885 12.335321922812497 11.650641098822458
Ag 10.380395003187608 9.726453413939117 15.001725343848824
Ag 14.397196673902416 9.574648223463301 11.77264938110657
Ag 12.769133142630912 8.51959098074479 13.963931843757369
Ag 11.722181297652236 12.155596099191568 14.889658238821005
Ag 13.766942930533528 13.82413905348776 14.006929216093113
Ag 14.214718144155656 11.008635603520936 14.133999827148605
Ag 12.819058664625725 10.006468250085117 16.328756871845737
