10
Energy = -17.91634845 eV
Ag 9.445956851835827 8.161117318803708 9.993851258093226
Ag 8.39655090460851 5.886002246379294 8.775931961214923
Ag 7.319316606949021 8.658379258551724 11.85209562143025
Ag 10.493022243215421 7.332637670245963 7.574583923341951
Ag 6.6550924821388175 7.99308021516731 9.261463588567057
Ag 6.678899277313157 10.093672901191114 7.396694094563467
Ag 7.804929210324906 7.668497344471455 6.705161120234531
Ag 7.964193183428143 10.45999867622449 9.859363152090422
Ag 9.918036384829637 8.49631701949358 5.136672066489233
Ag 9.457793953119483 9.87131248127112 7.60725524701177
