42
Energy = -90.48682357 eV
Ag 11.667283080281152 9.241315113618818 7.618648414563702
Ag 9.07537736451177 10.355386260588938 8.073802133066394
Ag 8.57083292015362 15.9196868256929 8.36272961342353
Ag 6.869537513567388 11.742573085636353 9.182877044607736
Ag 13.917117501563686 10.88424119975608 8.314116774053996
Ag 8.734542173274365 13.140428270503952 7.692864983385304
Ag 11.370858735811842 11.96809723792348 8.072925377602582
Ag 13.38384958068569 13.51485105840312 9.32979157033481
Ag 15.950226243065673 9.341482540071977 9.510855914057041
Ag 13.25745128345598 8.53528236115806 9.89924576641175
Ag 10.518749423875613 9.000165332379764 10.167045543077146
Ag 9.65216957096246 16.165175309285587 11.032887971178539
Ag 7.783090036197414 9.499943940635937 10.453140757260702
Ag 15.432301753545445 11.947346482649523 10.433906908787737
Ag 7.897924804648781 14.0612424857675 10.311533548272216
Ag 10.730612170633124 14.420333262223096 9.169859611462387
Ag 7.39730258122398 11.837631606299263 12.07713592907304
Ag 9.801770280580792 11.89364225673654 10.625879494284906
Ag 12.547221782775006 11.112796579651041 10.855433592625824
Ag 12.533022095152305 16.00908989943985 10.667508224844019
Ag 17.408385190218613 10.345658464191413 11.680685917819975
Ag 9.127934747295301 13.958590079794766 12.84580189660151
Ag 14.770688996326827 9.407286012550635 12.095125024785233
Ag 12.029000905563581 8.797722287731375 12.54691413734698
Ag 14.110588332406198 12.055323818463172 13.121115546204676
Ag 14.668966703474817 14.443111171556879 11.654555765842604
Ag 11.832026070988059 13.65676360292123 11.853372617160266
Ag 8.759068292476554 11.749477105532357 14.570191811585392
Ag 11.145063781994143 15.955692631832859 13.354031839776408
Ag 16.779108510207696 12.89318112067444 12.754371035748832
Ag 11.395755592766502 11.508854066622074 13.562962283011453
Ag 9.349052208821286 9.730867623298748 12.693770056478623
Ag 13.620553838417251 9.622421284285812 14.709321767567136
Ag 10.762311693382962 13.86223117461896 15.158118853504892
Ag 16.31700784014033 10.501187983454502 14.262596560735714
Ag 15.660196413721398 13.02508521925212 15.34317764196965
Ag 13.38777018400526 14.512043227010688 14.255532366334938
Ag 10.773126655862011 9.339883669894542 15.129065423962453
Ag 10.447367799519672 11.596158117465167 16.760430850598556
Ag 15.227860926566319 10.626451123246166 16.816519510608043
Ag 13.027536275621705 12.262677863852687 15.942559012491389
Ag 12.586264551397605 9.835497650468144 17.314467314632417
