5
Energy = -6.74895339 eV
Ag 8.666545169731435 10.173157484878631 7.211571379007523
Ag 7.84302702262973 8.48854780773651 9.748479913157633
Ag 10.2591171931109 6.242026468932901 9.588593348509757
Ag 6.310168586551627 10.555736054589882 9.023036981545365
Ag 10.294984116761647 8.107001611501794 7.947438630886089
