55
Energy = -109.55350496 eV
Ag 7.856596250255545 11.268148331968572 13.209569507166385
Ag 13.824028480021932 17.614132440483637 15.609967746813131
Ag 19.284421758871698 17.646409099775397 13.073057902243958
Ag 11.634047113440603 15.83698038966597 16.4862101312062
Ag 11.204220280632331 17.165689680497543 11.066240010290848
Ag 9.174663109902971 16.34571990543366 14.987872346922732
Ag 19.857254499089297 13.80917519306132 7.4583606166085445
Ag 14.308511231856706 12.165732712243717 15.924338058479522
Ag 12.044407655057615 13.203673543049987 17.193441328705312
Ag 19.271043537562853 11.25742594260118 8.23276889395716
Ag 10.165744434898018 10.26091155371167 8.438622337659002
Ag 9.994371114953797 11.632638778720787 18.141244876478385
Ag 8.598197007215584 13.296090305245723 11.427384619225919
Ag 17.714054556457462 8.656379270927745 12.078288620212316
Ag 12.578133390792384 10.426244898636076 17.626419082970433
Ag 10.753543379903032 11.792762912918635 12.710956513989734
Ag 16.56328291014385 13.780746646183852 15.468283931938185
Ag 8.308458464038965 13.872504679508243 14.174180190942334
Ag 9.804968038603652 9.354479531402179 13.784737745385321
Ag 9.582746825316248 11.744631902317128 15.395184374138438
Ag 14.496920654731229 9.412054341302714 15.901199464956047
Ag 20.110676153647212 13.180422666714367 10.04007022621075
Ag 10.225209420435789 9.226043815310115 16.51244540596878
Ag 10.54386713812737 17.511638880124075 8.46503074886336
Ag 9.822380336944267 15.158558208848179 9.627922180027802
Ag 14.078243126117696 14.901961277094783 15.637893598528057
Ag 11.96795310125999 13.569074622103965 14.446796455160216
Ag 17.15238821193206 7.00298115907309 7.746785809157109
Ag 18.93810305894211 10.412165110719272 13.76048626569602
Ag 10.733041437419695 9.205743841260997 19.243296883152173
Ag 16.705290714471612 10.932011851493296 15.203506099172891
Ag 12.161864803017233 10.632096194296677 14.850684865436719
Ag 9.373155487018108 14.135456837583957 16.871045495382933
Ag 19.04846574758915 12.604406048892914 15.4159527680486
Ag 19.908298805245344 12.864968442384095 12.755081171136803
Ag 19.299420376013142 10.739378457897454 11.049857139906464
Ag 19.82589135435906 15.421892177652584 11.581481053697367
Ag 18.946905902215835 19.94409586472047 14.468326411761803
Ag 11.375592118083127 14.393172636373228 11.86694703270863
Ag 18.1002454368121 17.22417487286218 18.3871142734708
Ag 18.745555013191396 17.60963702003975 15.77230297844528
Ag 16.24512699231036 16.488934562706813 16.369129173336066
Ag 10.691422657449243 12.458162938753976 9.873552563521804
Ag 18.18391083775342 8.895554464855657 9.394579358619021
Ag 9.260505680461366 10.22832378382015 11.013478555489813
Ag 18.67717340099791 15.015152679558446 16.886494192798587
Ag 11.155485899428381 18.457968353816952 15.719993932323797
Ag 9.353273402704893 16.95020080817261 17.608683103838473
Ag 8.430922147027326 18.995873763900498 15.698901605987682
Ag 6.445541113677687 20.691080140452204 15.745081153744062
Ag 18.27884636801748 9.210971791187733 6.690663109981556
Ag 11.94609118548203 16.432987452823504 13.727362810110495
Ag 8.976212999886824 15.9191760586069 12.27706761656535
Ag 18.871017192466006 15.114625806786 14.140622349408405
Ag 9.883160904664091 18.409428568372608 13.24388853096663
