18
Energy = -35.90634858 eV
Ag 10.37689 13.70150145658927 10.921470430523568
Ag 8.02685478474446 12.726925215255543 9.832257547405685
Ag 7.052278543410731 10.37689 10.921470430523568
Ag 8.02685478474446 8.02685478474446 9.832257547405685
Ag 10.37689 7.052278543410731 10.921470430523568
Ag 12.726925215255543 8.02685478474446 9.832257547405685
Ag 12.412860475588115 10.37689 8.393464277227187
Ag 10.37689 8.340919524411884 8.393464277227187
Ag 8.340919524411884 10.37689 8.393464277227187
Ag 13.70150145658927 10.37689 10.921470430523568
Ag 10.37689 12.412860475588115 8.393464277227187
Ag 12.726925215255543 12.726925215255543 9.832257547405685
Ag 11.817603350437917 11.817603350437917 12.36074047372624
Ag 11.817603350437917 8.936176649562084 12.36074047372624
Ag 8.936176649562084 8.936176649562084 12.36074047372624
Ag 8.936176649562084 11.817603350437917 12.36074047372624
Ag 10.37689 10.37689 6.543884759067055
Ag 10.37689 10.37689 14.208404325401911
