16
Energy = -30.64798998 eV
Ag 7.256514450607287 11.898720643611105 10.232284922648718
Ag 7.896147825333209 9.945506606674542 8.19786527683939
Ag 8.46251843703019 10.347283815605522 12.177069436845274
Ag 9.006261737939038 7.857388372427534 10.970859942297517
Ag 10.93314059310039 9.09836605873209 12.635328334028598
Ag 6.520968594827603 9.231567411211282 10.49206808044453
Ag 7.46476790738727 7.203331446253781 8.795931087860268
Ag 13.08348141045626 10.093319199984544 11.04396386295513
Ag 11.944300744536722 7.590801785965575 10.542167160866454
Ag 12.071211211459545 12.008619468270124 9.152598898604541
Ag 9.255976551909894 12.331743386694308 8.393498507534073
Ag 10.217066837124067 7.672623814481258 8.370313277459879
Ag 12.66496679760879 9.220104209561798 8.400514953718961
Ag 10.503233172324963 10.277989877676578 7.102594080040162
Ag 10.39605413210225 10.081387786315391 10.010132880895586
Ag 9.876757596251824 12.694614116534435 11.036177296961213
