13
Energy = -23.5359893 eV
Ag 11.957746398070013 10.514774931520323 9.379074072849217
Ag 10.358016412629054 11.090102948547939 7.1838294541976
Ag 12.05380031821909 7.840722816473302 10.613932648572254
Ag 10.500159125451342 8.391663166135757 8.350437870263578
Ag 9.81151895980988 12.222177704591807 9.72027785171534
Ag 9.916301336788077 9.586706116093959 11.02516345501079
Ag 8.557600794406936 6.457382075728102 7.838171992122386
Ag 7.551593655017767 11.020487268413328 10.785861619200741
Ag 7.676084481406045 11.396446999625807 8.053708268129297
Ag 9.428230357039807 6.82156555206925 10.482135573780665
Ag 7.624830150910345 8.342384425714906 12.019501787001406
Ag 8.44854482579149 9.154660649725988 6.629363357701983
Ag 7.6614268684816595 8.699860174197916 9.252295418740468
