14
Energy = -25.25001444 eV
Ag 6.2311832386718 11.810306751280235 8.267440073773187
Ag 9.01112380271172 12.094253848312455 8.313294584613965
Ag 11.800074476466756 11.852987350863334 8.30190544538871
Ag 6.003035662067755 9.016748755837359 8.268620653813468
Ag 9.052834309412857 9.052705030329983 7.941197838355717
Ag 12.100086112005627 9.073977817925863 8.31721068307278
Ag 6.291290133047508 6.232386653243158 8.241796089671402
Ag 9.082053243280182 6.000530132297446 8.278725261789335
Ag 11.86495460073823 6.285432850994715 8.277244042631002
Ag 7.675535289724392 7.648657656046842 10.047443754021844
Ag 7.637223603245561 10.401388553635309 10.065959809655427
Ag 10.395008078091978 10.425966021498198 10.083446765060906
Ag 10.429715785935011 7.672204440537459 10.069166356087505
Ag 9.021924619710774 9.028497182086989 12.122591686954097
