14
Energy = -25.01601323 eV
Ag 9.29940579436944 11.734380896730432 13.063898344550571
Ag 8.702403273490123 12.05787300417408 10.2523531584202
Ag 10.82408 13.334162397186216 11.389415369594246
Ag 10.82408 8.313997602813783 10.258744630405758
Ag 10.82408 9.047966073930596 13.086066029091436
Ag 12.94575672650988 9.590286995825922 11.395806841579804
Ag 12.348754205630557 9.913779103269563 8.584261655449422
Ag 10.82408 12.600193926069402 8.562093970908567
Ag 12.348754205630557 11.734380896730432 13.063898344550571
Ag 12.94575672650988 12.05787300417408 10.2523531584202
Ag 8.702403273490123 9.590286995825922 11.395806841579804
Ag 9.29940579436944 9.913779103269563 8.584261655449422
Ag 10.82408 10.83513764697589 15.12376080208635
Ag 10.82408 10.813022353024115 6.524399197913652
