14
Energy = -25.6762737 eV
Ag 8.638482 8.638482 10.726851613281875
Ag 8.638482 10.726851613281875 8.638482
Ag 6.550112386718124 8.638482 8.638482
Ag 8.638482 8.638482 6.550112386718124
Ag 10.726851613281875 8.638482 8.638482
Ag 8.638482 6.550112386718124 8.638482
Ag 6.690240024474397 6.690240024474397 10.586723975525603
Ag 10.586723975525603 10.586723975525603 6.690240024474397
Ag 10.586723975525603 6.690240024474397 6.690240024474397
Ag 10.586723975525603 10.586723975525603 10.586723975525603
Ag 6.690240024474397 10.586723975525603 10.586723975525603
Ag 6.690240024474397 10.586723975525603 6.690240024474397
Ag 6.690240024474397 6.690240024474397 6.690240024474397
Ag 10.586723975525603 6.690240024474397 10.586723975525603
