18
Energy = -34.59887958 eV
Ag 13.511150964500093 8.957107729176453 6.980894656924774
Ag 8.863615926095695 10.746430499176778 12.74622938945134
Ag 9.523688784928869 10.714484763527437 9.98743997555951
Ag 9.946212773713055 13.0353648033657 11.62852847991538
Ag 12.046126713076019 12.214903269759507 9.88232088457849
Ag 16.275705782923385 11.140201623847872 12.23198920406175
Ag 14.067065063827048 11.238314588134982 8.286077806617127
Ag 13.717632741060733 11.59388450754123 13.10358963042627
Ag 10.61762610420116 14.919445159027985 13.57499065793076
Ag 14.729024599424102 12.724575052190094 10.55396724824433
Ag 10.624800370669371 13.815008525337028 16.135219411708935
Ag 12.596569066208646 13.961883526918864 11.941585547990243
Ag 11.523354138245416 10.248159244768827 11.899642623160096
Ag 11.135658365410807 11.923992416659729 14.102817134483697
Ag 13.077722331462532 13.787841640175653 14.762034970851367
Ag 8.6448664738803 13.104157204956602 14.22711061407912
Ag 14.114127859403697 9.959976606126716 10.898752173818066
Ag 11.959787210771797 9.501417766816035 9.165300026865214
