17
Energy = -32.70136193 eV
Ag 13.928096137095958 12.658185693734124 13.023558825293891
Ag 12.668951239371513 12.966866363081596 10.607693783579107
Ag 12.902669692617128 10.251103809333015 12.131724329445499
Ag 11.062309187625106 12.975879824113601 8.201022817552568
Ag 11.362019904484146 10.675948793448883 9.62977123238286
Ag 13.460372895493956 8.546620581189288 10.036771017518467
Ag 11.212811024464047 12.191388087870086 13.02677100072993
Ag 11.304318463252818 8.226690371472303 8.262088024525129
Ag 10.505774406034652 9.549330076613819 13.684468729621507
Ag 9.940777523896104 13.304744581524957 10.737808313180409
Ag 11.00844848143003 8.388367571437376 11.197259864404053
Ag 8.873901398820625 9.030138204894751 9.430480662790934
Ag 9.085348324993484 10.774888596937423 11.617088580454425
Ag 10.08895690237039 10.474597657963225 7.141039587425808
Ag 8.653948206757441 13.078076849809552 13.156760691009499
Ag 8.477655582466104 11.742737613745438 9.002375266686412
Ag 8.503967190765124 8.064936348378378 12.123477631310967
