12
Energy = -21.31827969 eV
Ag 8.858593 10.900116853967615 8.858593
Ag 10.261334695787973 7.45585130421203 6.541229531926617
Ag 10.261334695787973 10.261334695787973 6.541229531926617
Ag 8.858593 6.817069146032385 8.858593
Ag 10.900116853967615 8.858593 8.858593
Ag 10.261334695787973 7.45585130421203 11.17595646807351
Ag 10.261334695787973 10.261334695787973 11.17595646807351
Ag 7.45585130421203 7.45585130421203 6.541229531926617
Ag 7.45585130421203 10.261334695787973 6.541229531926617
Ag 6.817069146032385 8.858593 8.858593
Ag 7.45585130421203 10.261334695787973 11.17595646807351
Ag 7.45585130421203 7.45585130421203 11.17595646807351
