18
Energy = -35.88124225 eV
Ag 13.746375674081115 9.382814650842766 10.532864
Ag 11.171310406565729 10.59027670109141 10.532864
Ag 10.592314730142682 12.057801418656434 12.891650171128424
Ag 13.293478272739376 11.78000705023614 9.063214191369953
Ag 11.462068446940092 13.349154154593144 10.532864
Ag 12.011089683736493 9.306005409355274 12.873970229477786
Ag 11.43222472188188 7.79289550405567 10.532864
Ag 13.293478272739376 11.78000705023614 12.002513808630043
Ag 9.78674520516922 9.792985877354688 14.457339778724132
Ag 9.25160701292354 8.843765051441505 9.12035041246319
Ag 10.592314730142682 12.057801418656434 8.174077828871578
Ag 9.25160701292354 8.843765051441505 11.945377587536804
Ag 12.011089683736493 9.306005409355274 8.191757770522214
Ag 9.78674520516922 9.792985877354688 6.6083882212758756
Ag 7.166848332438212 10.047749382315773 10.532864
Ag 8.845160568142454 12.37695130781109 10.532864
Ag 7.948547020263956 11.245290342601034 8.137360033661276
Ag 7.948547020263956 11.245290342601034 12.928367966338724
