15
Energy = -27.43180317 eV
Ag 11.542310814368497 12.038192063002715 12.140494267089712
Ag 9.758184930247037 12.232471044909028 14.370963436096151
Ag 13.504300698784643 11.40203121628377 10.287978899376828
Ag 10.423186726191773 7.303567332729871 12.120382766346012
Ag 12.307549599055346 9.363698407817175 8.669823048520204
Ag 9.925580698027966 9.453962302321147 10.385651230548488
Ag 14.705211995519075 8.981456784812371 10.065855466777364
Ag 8.795323514260502 11.794452185343586 11.846186708148732
Ag 9.853783943869319 9.977388838871843 7.571493989883861
Ag 10.28955456088355 9.808467810330516 13.223666387954301
Ag 12.531184289136466 13.923908974471193 10.12495275909858
Ag 6.53273152097074 12.826285528332697 10.868310801969454
Ag 8.094461199771093 11.344714396373003 9.199153679909092
Ag 12.429548048830874 9.185656832053157 11.573625346752015
Ag 10.875764831942105 11.842422525723544 9.39336133024171
