18
Energy = -35.92658383 eV
Ag 13.433174162686516 11.1833217232018 10.686507579480292
Ag 12.853315549894555 8.636175563093534 11.704778352628379
Ag 12.1582881256457 10.85602122740357 13.154225548496866
Ag 12.441811156890104 9.235876421620022 8.909607927565377
Ag 11.13140573387733 10.234641797418154 6.646180837532083
Ag 11.865322317921297 12.040879820198231 8.597279240329545
Ag 9.93076375926156 13.94729441386984 9.068468212571874
Ag 11.037109833605655 7.228274279659852 10.260815746039162
Ag 10.415740830044708 10.135630358281773 10.793093803995548
Ag 9.574955909815122 8.701517872648907 8.378025616934128
Ag 11.263390301246421 12.876686308936806 11.28691153380123
Ag 10.224235403860979 8.613899254206693 13.039924861186877
Ag 9.59146128725741 11.72489968510008 13.218463587639437
Ag 7.736038174968319 9.98026000563237 12.298458783055437
Ag 7.356770744730714 9.997301835235417 9.52462821541691
Ag 9.106231850747875 11.515422646227279 8.034798059565935
Ag 8.427672469885385 12.287360772689427 10.733347382153514
Ag 8.450915585652975 7.784444780701899 10.84714501037266
