14
Energy = -25.79085137 eV
Ag 9.8336765 9.8336765 13.625928984713745
Ag 8.507154207737702 12.09259163770937 9.494352736306489
Ag 9.8336765 12.17587178002518 11.980706941518477
Ag 9.8336765 7.235346561460397 7.076210001432573
Ag 11.160198792262296 12.09259163770937 9.494352736306489
Ag 9.8336765 12.432006438539602 7.076210001432573
Ag 9.8336765 9.8336765 7.976495611848917
Ag 12.584220243185818 9.8336765 8.767802602296307
Ag 11.255464942103993 9.8336765 11.221098183858125
Ag 7.083132756814321 9.8336765 8.767802602296307
Ag 8.411888057896006 9.8336765 11.221098183858125
Ag 9.8336765 7.49148121997482 11.980706941518477
Ag 11.160198792262296 7.574761362290768 9.494352736306489
Ag 8.507154207737702 7.574761362290768 9.494352736306489
