11
Energy = -19.43815417 eV
Ag 10.034251251048723 11.723395034117576 9.10062046339262
Ag 7.596270936034556 10.441695677891852 9.429234862080447
Ag 11.9935309161412 10.30673814451609 7.709797946352037
Ag 9.137650329482431 11.108025540762508 11.745463595633378
Ag 9.293336400789064 9.777889819014536 7.26046712677617
Ag 7.796872002840198 8.665042125942293 11.643245218371899
Ag 8.191799438880139 7.766533332674917 8.91167545357402
Ag 12.971893966809883 8.723397546813745 9.712295195481698
Ag 10.299937072336846 9.13865797614401 10.319363247101455
Ag 10.8756340888328 7.658870275106295 8.152061469308967
Ag 5.662654880420482 8.543972580405063 9.912536790128723
