15
Energy = -27.80794385 eV
Ag 13.10458681964496 12.095001864364162 8.040310949553383
Ag 12.27327204739709 11.184381326500533 10.442015646745663
Ag 10.794100819157096 11.420436443620005 6.624535106619115
Ag 12.154458222365182 9.493587745272515 8.131822819666139
Ag 8.093035641821611 11.83286851388813 7.064204173723119
Ag 11.58779194906141 10.16250322280696 12.986922796113463
Ag 9.56226749570581 11.059340226263808 11.305038553594569
Ag 10.569305705818799 7.281107131085512 8.468335103421435
Ag 10.956106317117738 8.714104637983139 10.70906402142309
Ag 9.1662010916969 8.759115183273583 13.032710784638127
Ag 9.44283812451039 9.919502317776141 8.47710028790234
Ag 7.29326079425371 11.368467250169903 9.669665904301304
Ag 9.364275617634217 6.523001577696938 11.152974577487715
Ag 7.108979742237637 10.701879470367222 12.456741812830339
Ag 7.9552662978447275 8.782212146062177 10.551603347458885
