14
Energy = -26.01637205 eV
Ag 12.601342380828015 13.142268208257905 11.48571954596859
Ag 9.666031921898695 10.061376596973922 13.663116731992208
Ag 10.496288554212592 12.63530789781131 13.127448669729779
Ag 11.635107053050643 10.514535793748976 11.668774225482684
Ag 11.286217862802527 12.003206972053238 9.376000888550088
Ag 8.961844566524842 11.317839584607375 11.156878292604814
Ag 9.705547847880487 8.524674698000238 11.372345937859922
Ag 8.716338793187054 12.578238614775815 8.62382920818208
Ag 11.50696350668467 9.2166981632775 9.175659669880964
Ag 8.852019707049607 9.859314558274177 8.819865698715939
Ag 10.539893402102138 11.260862679000445 6.854664569875036
Ag 9.054940050958031 5.911818969184321 11.488163983525865
Ag 9.351970050982453 7.103687433432403 9.056426524457201
Ag 10.178521350461104 8.503802138684847 6.802555052158141
