12
Energy = -21.40614206 eV
Ag 8.627242378540288 11.419458159883884 11.234324053120167
Ag 11.487576621459716 11.419458159883884 11.234324053120167
Ag 10.0574095 11.421870178836658 8.704077869995887
Ag 12.525058222699656 10.0574095 9.0433516632336
Ag 11.487576621459716 8.695360840116114 11.234324053120167
Ag 8.627242378540288 8.695360840116114 11.234324053120167
Ag 10.0574095 8.692948821163343 8.704077869995887
Ag 10.0574095 11.393448835219425 13.570808497795888
Ag 8.65445104631534 10.0574095 6.557570862734573
Ag 7.589760777300345 10.0574095 9.0433516632336
Ag 11.460367953684663 10.0574095 6.557570862734573
Ag 10.0574095 8.721370164780573 13.570808497795888
