15
Energy = -28.51290261 eV
Ag 9.940401702400354 10.129076773458522 7.230511018829593
Ag 8.727158949993568 8.141635154793423 9.004685895781504
Ag 12.935513355167787 7.997329142714732 11.386227518257588
Ag 11.751892402768695 9.136868218431491 9.109286710759365
Ag 8.582466570162365 7.151553184951328 11.554446300041027
Ag 7.2707149194175615 10.441676330427423 8.205465160364401
Ag 7.797008977057547 9.829720749655353 10.967227069834355
Ag 9.258512443269682 11.728932103945004 12.338810625304392
Ag 10.569707794449661 7.2691503741359345 7.235666084757383
Ag 10.495263494625705 9.218066567495933 11.642098751586103
Ag 10.907409556378763 6.676845869814948 10.04419615422099
Ag 7.964415686573392 8.430183846901071 6.350074289104752
Ag 8.833516351997439 12.695049738161137 7.670290110999729
Ag 7.554561540611716 12.507597624947426 10.169023314920395
Ag 10.04479279916652 11.279650864206902 9.725327539279453
