15
Energy = -27.8658998 eV
Ag 9.304457372820778 11.820559566557344 8.12970973289056
Ag 9.505071680284324 12.5806819560226 10.896424670534033
Ag 7.261192031927035 10.869007156660233 9.971166458099793
Ag 11.922670614603355 11.791988112753224 9.391284429600505
Ag 13.768198966367391 10.209130816578044 7.997565586321429
Ag 11.138970472512744 9.626141320521096 7.505439467654661
Ag 8.372704072705442 9.039002538856987 7.908408316341391
Ag 8.531952312963147 10.23191080488048 12.509534582040757
Ag 9.890263159916607 9.955589904464345 10.029579922461778
Ag 12.539868044601048 9.058978750961034 10.169445297818827
Ag 7.894962315231512 8.153790306818747 10.655820347978368
Ag 11.468526411198521 10.879811908500825 12.179634174532255
Ag 9.697665194578047 12.433699903884914 13.648205345754338
Ag 10.510655831904243 8.16337459639422 11.994840673451518
Ag 10.358552823930378 7.367926591120448 9.16162794023202
