14
Energy = -25.77071425 eV
Ag 9.356533 12.148033219568891 10.459015759264597
Ag 9.356533 9.356533 11.510494144134041
Ag 12.111301049236241 9.356533 8.000074221681288
Ag 9.356533 6.56503278043111 10.459015759264597
Ag 6.601764950763762 9.356533 8.000074221681288
Ag 9.356533 9.356533 8.68327933470203
Ag 10.753972654617295 11.828624175287352 8.040331266000289
Ag 7.035619902157057 7.994248258107163 10.429545873817622
Ag 7.9590933453827075 6.8844418247126535 8.040331266000289
Ag 7.035619902157057 10.718817741892838 10.429545873817622
Ag 11.677446097842948 10.718817741892838 10.429545873817622
Ag 11.677446097842948 7.994248258107163 10.429545873817622
Ag 10.753972654617295 6.8844418247126535 8.040331266000289
Ag 7.9590933453827075 11.828624175287352 8.040331266000289
