10
Energy = -17.91188611 eV
Ag 9.445956851835804 8.161117318803708 9.99385125809329
Ag 8.396550904608548 5.88600224637929 8.775931961214924
Ag 7.319316606948965 8.658379258551738 11.852095621430182
Ag 10.493022243215425 7.332637670245962 7.57458392334197
Ag 6.655092482138759 7.993080215167326 9.261463588567077
Ag 6.678899277313212 10.09367290119115 7.3966940945634745
Ag 7.804929210324939 7.668497344471389 6.705161120234471
Ag 7.964193183428169 10.459998676224423 9.85936315209043
Ag 9.9180363848296 8.496317019493638 5.136672066489224
Ag 9.457793953119484 9.871312481271131 7.607255247011796
