14
Energy = -26.10829991 eV
Ag 9.951878878290776 10.938604190390299 9.8969065
Ag 11.392302911219362 12.819261717460584 11.372066548561374
Ag 11.418846138519191 10.081410449553282 12.069573452542569
Ag 12.908792029380448 11.033336722067453 9.8969065
Ag 7.111873721500521 7.753351179836581 9.8969065
Ag 7.2292092695546435 10.511864128396507 9.8969065
Ag 8.800427860219951 9.045754695644986 8.056633966414974
Ag 9.141527017500163 6.3758824438431 8.487847033608322
Ag 10.784265162229868 8.194328320997412 9.8969065
Ag 11.392302911219362 12.819261717460584 8.421746451438624
Ag 11.418846138519191 10.081410449553282 7.7242395474574295
Ag 8.800427860219951 9.045754695644986 11.737179033585026
Ag 9.141527017500163 6.3758824438431 11.305965966391678
Ag 9.064464084125976 13.480587845308124 9.8969065
