18
Energy = -35.70754644 eV
Ag 14.972536734941537 8.653590579986197 12.158404781825544
Ag 14.030658939925958 8.824069951229815 9.546327763705044
Ag 11.053347003776032 14.737671139144906 12.698130645688936
Ag 9.641976146759594 9.971430565687573 7.765690123649117
Ag 10.157401484354187 14.93698791609194 10.073591006836743
Ag 9.897542261536309 12.456566805180172 8.916727291593402
Ag 9.827645302922996 10.01094124279595 10.530793910558844
Ag 12.370776928039538 12.39012369736264 13.354037034442477
Ag 13.777146715058086 11.015411020600487 11.350502300243447
Ag 10.425361026219344 10.288558947097629 13.203211986829237
Ag 11.435680166024962 10.924290349818376 15.707845860905387
Ag 12.148370906875774 10.798783577091896 9.034400825384472
Ag 13.199473727584168 9.774678256295102 13.936529176519796
Ag 11.308411660796867 8.116545879572369 8.995454027209732
Ag 12.105528282740416 8.693904145927522 11.593628689831798
Ag 12.189820775798124 13.137348350601133 10.611269419795576
Ag 9.819118596789291 12.801648663973031 14.44560849819637
Ag 9.604499445520503 12.557215821815587 11.695913809106932
