17
Energy = -32.90978161 eV
Ag 7.824776221223181 12.149832109491422 11.729208003008987
Ag 9.839327595114003 12.913546308041333 13.690515665013459
Ag 10.964043752912316 10.3306264493352 14.374646994267007
Ag 10.066679785669418 8.20397043175463 12.633192870353867
Ag 10.314368335607437 13.528489693887261 10.964977167335805
Ag 9.116246734396995 11.446835611458303 9.285445832727035
Ag 10.218879983352544 10.914695248092443 11.882159664348569
Ag 8.013259580240721 9.437423750499226 10.92162292120064
Ag 12.583036088413857 9.554790634089047 12.022246835852766
Ag 11.115067001016774 13.154618629237284 8.265945339736106
Ag 10.913120374993046 8.642924028709942 9.982532392597204
Ag 8.870298383143348 6.865592481230532 10.410584223340322
Ag 8.835469640844297 8.808318115839697 8.235921716136064
Ag 11.13171386715364 10.32639732479375 7.698795848011938
Ag 13.442688751278393 9.414445204797685 9.199927476907984
Ag 12.374736158583964 11.720767002761662 10.219798879432846
Ag 13.501010852480404 11.751316088311672 7.649465749115945
