10
Energy = -17.50949398 eV
Ag 10.816356816347017 10.295961543368957 10.918699004808069
Ag 8.028655133687993 8.535971603106052 7.930144554561811
Ag 7.874301350371982 11.222291736424852 7.191845659164066
Ag 10.673310260447295 8.42050575177386 8.819572673152194
Ag 9.818924590851351 9.675101214047162 6.110601276553394
Ag 9.002526887521892 9.188913943871324 12.72326813082424
Ag 8.184774937547797 10.423978036170649 10.01623639725303
Ag 8.482934039335813 7.68080031638713 10.437283950056667
Ag 10.381474380580402 11.16376640890229 8.410366805456366
Ag 10.97235980874545 7.628327651385453 11.67759975360715
