13
Energy = -23.65343759 eV
Ag 10.783577190783399 7.291957699411331 11.411428580233787
Ag 10.457466088293332 11.77919254276507 13.123020677635422
Ag 11.246036953551512 10.007521737173386 11.040734486042458
Ag 8.422977112934749 7.673899799203374 12.826817351169451
Ag 9.92317432109076 12.401927133720402 10.529556318917672
Ag 8.563996242288052 10.222152439348788 11.865473453448946
Ag 8.530573320689642 8.111568342980947 10.049642397275862
Ag 11.156692481304143 8.375818036965844 8.846144033893184
Ag 9.396866393523151 13.140523342334465 7.963296030017207
Ag 8.531210968012465 10.602273116751999 8.923127772255198
Ag 11.223714761654513 11.103742584104962 8.290035176805228
Ag 8.88591631927254 8.385336248300554 7.278727158881326
Ag 11.264234783490181 9.34205089469111 6.207975035727196
