11
Energy = -19.7951482 eV
Ag 9.673526970284145 7.587764556906813 4.763674912418863
Ag 10.56601169368688 9.439147393873874 6.684873210483042
Ag 7.884007175460513 8.905437637263649 6.423561347781913
Ag 7.505053056370868 6.175017104886567 6.164268711978781
Ag 9.872794395548423 6.845555233672341 7.44155409399405
Ag 5.805426474640691 7.697451393354374 7.819743967444892
Ag 6.695225095625745 10.285319698117814 8.481152589611053
Ag 7.778005457018059 6.199919393756728 9.087870701249166
Ag 5.112476752475491 6.130643916377473 9.9999687787456
Ag 8.99657913363878 8.837019780228307 9.105843149237423
Ag 6.585877685850317 8.371707782161389 10.502472427655425
