18
Energy = -35.9342824 eV
Ag 9.758931 9.758931 13.058487095985452
Ag 9.758931 12.053047464101882 6.667825551270637
Ag 12.846491899920954 9.758931 9.467620808901847
Ag 9.758931 6.739619498288248 11.255161542680282
Ag 11.908288480066926 11.146998220142377 11.713228970694272
Ag 11.233852317209113 11.992328755928087 9.035497595447582
Ag 11.233852317209113 7.5255332440719105 9.035497595447582
Ag 8.322651327994516 9.758931 7.2593708088528315
Ag 8.284009682790886 7.5255332440719105 9.035497595447582
Ag 7.609573519933075 11.146998220142377 11.713228970694272
Ag 7.609573519933075 8.37086377985762 11.713228970694272
Ag 9.758931 12.778242501711752 11.255161542680282
Ag 6.671370100079047 9.758931 9.467620808901847
Ag 9.758931 7.464814535898117 6.667825551270637
Ag 11.908288480066926 8.37086377985762 11.713228970694272
Ag 8.284009682790886 11.992328755928087 9.035497595447582
Ag 11.195210672005485 9.758931 7.2593708088528315
Ag 9.758931 9.758931 10.307407216035388
