19
Energy = -38.01094499 eV
Ag 10.1379995 10.1379995 6.9857897396454
Ag 10.1379995 12.427980620601954 12.90440961202125
Ag 6.909910523760313 10.1379995 10.211919752613559
Ag 10.1379995 7.428050683958632 8.223230953451765
Ag 7.758383966955746 11.524107310828791 7.974309983669431
Ag 8.619280932469659 12.415023711795705 10.541034148670654
Ag 8.619280932469659 7.86097528820414 10.541034148670654
Ag 11.614798445162734 10.1379995 12.287749716081644
Ag 11.656718067530338 7.86097528820414 10.541034148670654
Ag 12.517615033044258 11.524107310828791 7.974309983669431
Ag 12.517615033044258 8.751891689171208 7.974309983669431
Ag 10.1379995 12.847948316041368 8.223230953451765
Ag 13.366088476239693 10.1379995 10.211919752613559
Ag 10.1379995 7.848018379398046 12.90440961202125
Ag 10.1379995 10.1379995 14.623001396656083
Ag 7.758383966955746 8.751891689171208 7.974309983669431
Ag 11.656718067530338 12.415023711795705 10.541034148670654
Ag 8.66120055483727 10.1379995 12.287749716081644
Ag 10.1379995 10.1379995 9.697202766001752
