11
Energy = -19.37798761 eV
Ag 9.779754771749317 7.524022926920495 8.834770089215395
Ag 12.076898298841968 9.123663778611931 8.788398558181502
Ag 9.356266887063466 9.672302578307221 7.074817711422767
Ag 11.762059296781187 10.856335967960625 6.64155555202966
Ag 10.54901081966192 8.892731554737107 11.087035394438953
Ag 10.418905870446515 9.597213930067522 13.811301226446767
Ag 10.460459929220644 11.29539656208022 9.09668031136426
Ag 8.033103433634414 9.509180408586834 9.528488025344219
Ag 10.798573358249042 11.500959720650803 11.834674213580126
Ag 8.152341247649082 9.72237556202643 12.317457422975343
Ag 8.306778775629729 11.981023478551108 10.654891996862908
