14
Energy = -26.00104279 eV
Ag 14.157524918121949 10.515016641028977 10.320125166672755
Ag 11.669838081871788 11.741318170923547 10.252019054092898
Ag 10.407646713502753 12.399152503208246 7.7411145479294845
Ag 9.99495400909727 9.746446700805947 8.303561392495059
Ag 12.640562661029172 10.634494505906058 7.957890766843658
Ag 12.569529435710429 10.291645676314072 12.58523922769165
Ag 10.218269260523419 13.118605507604931 12.091167705296645
Ag 11.84660727994453 8.887716096134536 10.20927514005947
Ag 9.704714379925669 10.494784364390027 12.574874703301559
Ag 7.26346499849218 9.853907570703068 8.863707870389034
Ag 8.869336964429305 11.674343577052099 10.084009984878763
Ag 10.904527094617556 8.093689393862077 12.859834829622699
Ag 9.12174054695779 8.59196154964619 10.634505574446766
Ag 7.092850287047183 10.169559469334262 11.718942341630214
