16
Energy = -30.09081119 eV
Ag 8.640916306221625 10.047218 11.459710941882893
Ag 8.640916306221625 10.047218 8.63472505811711
Ag 11.403269835672921 13.02499320702213 10.047218
Ag 11.453519693778379 10.047218 8.63472505811711
Ag 11.403269835672921 7.069442792977871 10.047218
Ag 11.453519693778379 10.047218 11.459710941882893
Ag 10.047218 12.290366641639453 12.34033610055984
Ag 10.047218 7.804069358360548 7.754099899440161
Ag 13.53501583702274 8.685958482069994 10.047218
Ag 8.691166164327084 7.069442792977871 10.047218
Ag 8.691166164327084 13.02499320702213 10.047218
Ag 10.047218 12.290366641639453 7.754099899440161
Ag 13.53501583702274 11.408477517930006 10.047218
Ag 10.047218 7.804069358360548 12.34033610055984
Ag 6.559420162977262 8.685958482069994 10.047218
Ag 6.559420162977262 11.408477517930006 10.047218
