16
Energy = -30.66366406 eV
Ag 14.429178209042371 11.527665811801313 13.501408402843865
Ag 11.82530216465987 11.581199383158886 12.670241949692558
Ag 10.120467496122368 13.691917464093896 11.947301760298664
Ag 13.106954544386927 9.115794380884088 13.09841965886612
Ag 10.353470738375657 8.957405226410062 12.976026592976968
Ag 7.379149440795157 13.1035602370936 11.548640346995487
Ag 13.960748433080896 10.899509352412075 10.853385899428439
Ag 9.320042470061045 11.101221836197212 11.495795816500712
Ag 9.080025084220653 13.078430967067787 9.322302039308221
Ag 8.907917274913322 8.656687173556884 10.21703998092684
Ag 12.852260942778017 10.150337963698222 8.417521663581148
Ag 7.284366669235552 10.913044762650314 9.716761304637897
Ag 11.694122932364102 12.283892595537584 9.92891415673354
Ag 9.925808568566847 10.602589240013952 8.475666863586573
Ag 11.65022930747553 9.26299880720089 10.642935405767272
Ag 10.912358049552495 8.014436059842335 8.249140221838417
