10
Energy = -17.34605602 eV
Ag 11.921305423310168 10.745944510911732 12.036380727217217
Ag 10.215896899963337 8.709278933955538 11.50144142339364
Ag 11.652782377252432 9.711956501103996 9.30915146376655
Ag 8.67216959473052 6.53910465790748 11.202650714203747
Ag 9.722793866266226 11.30582535478001 10.512484096571574
Ag 10.411145829791682 9.321776039608888 6.951637095531025
Ag 7.369022280532037 12.424249196158316 9.886271129629465
Ag 8.24052430719133 10.40629350018033 8.34995748405225
Ag 9.325940738543942 7.903823939002056 8.983821795919612
Ag 7.758089771628851 8.337731134740475 6.658891628910378
