13
Energy = -23.87208196 eV
Ag 9.296431273754127 12.110533784225892 8.957257240756533
Ag 11.88121439985869 11.658902746760964 9.741416037775277
Ag 7.533560463772372 10.283107976772616 7.827326029549778
Ag 14.488121738031829 11.002455949149825 10.4931011388828
Ag 10.441417229192156 9.726447561894295 8.05573060166667
Ag 6.963948466464735 11.53871523194875 10.324812771148851
Ag 12.421674067939284 9.777174882517931 11.762110375818747
Ag 9.765654146966087 11.448230407451302 11.595048193543999
Ag 8.566399001592977 9.266247828773722 10.1468813434833
Ag 7.463365678863813 10.060956178322332 12.592652593575067
Ag 13.085567453828627 9.328341731351673 8.80523053002647
Ag 11.111199943822788 7.949953965557009 10.11736506973076
Ag 9.983219671638043 8.805643234730168 12.529940402325817
