10
Energy = -17.67374876 eV
Ag 10.791072699491425 11.768901437331756 6.585703705305299
Ag 11.00575777870505 9.181070310803918 7.369266434679819
Ag 8.94068946791809 10.807984476997873 8.50697947987193
Ag 11.649657045483563 11.402893400629955 9.151892404696564
Ag 9.073110647877092 8.049878972018162 8.934256722502504
Ag 11.583982107160399 8.753819691242175 10.079001021961014
Ag 7.466700063594471 9.70466008063623 10.539990251677766
Ag 9.940265075472938 10.83474582043203 11.16671622706527
Ag 9.47749790276497 8.118349618553967 11.75005917631597
Ag 7.157822426695594 8.46425140651794 13.002689791088011
