16
Energy = -30.57890949 eV
Ag 14.19204006820835 11.346782523838375 10.988667821570703
Ag 10.676367657805066 13.229238221137116 10.559215995236462
Ag 13.291445262395673 13.509683635720586 9.456592387149305
Ag 12.02798286722966 11.07632745710452 9.195795862833751
Ag 9.71499453036059 8.525446717929118 11.774959787911875
Ag 12.349734727607437 9.296596941754073 11.50047943794766
Ag 11.011170193490067 8.4372790917788 9.263359447652222
Ag 12.179902552354473 15.504310706226846 11.004460548276583
Ag 9.810604989624235 10.313172378815553 7.508302746401358
Ag 8.23858445323775 8.60072875386575 9.169415448930021
Ag 9.371125170239576 10.885703204113545 10.152141436697304
Ag 10.594789170899322 11.255565415279234 12.617829334385586
Ag 11.23458951508702 8.9026449233313 14.104411808862007
Ag 12.70418390361927 13.226845512288453 12.419098308292266
Ag 7.264389066423348 9.723568574697584 11.510340928102975
Ag 13.175507022577312 10.857001566299548 13.695580870122999
