14
Energy = -25.29107888 eV
Ag 8.927140478319226 12.272172713332303 11.468378283482773
Ag 11.287933076820783 10.821260744418606 11.486644024690532
Ag 13.44852822669401 11.939217448523749 10.11574
Ag 6.782951773305988 8.292262551476252 10.11574
Ag 6.835358700479221 10.97286885239808 10.11574
Ag 8.943546923179222 9.410219255581394 8.744835975309467
Ag 11.30433952168078 7.959307286667698 8.763101716517228
Ag 13.396121299520779 9.258611147601922 10.11574
Ag 8.927140478319226 12.272172713332303 8.763101716517228
Ag 11.287933076820783 10.821260744418606 8.744835975309467
Ag 8.943546923179222 9.410219255581394 11.486644024690532
Ag 11.30433952168078 7.959307286667698 11.468378283482773
Ag 6.790794838533493 13.676784773827084 10.11574
Ag 13.440685161466506 6.5546952261729166 10.11574
