15
Energy = -28.05996432 eV
Ag 9.815659416943777 7.806649754047496 13.536757888265393
Ag 8.753846283289075 8.064486810395767 10.981750439317892
Ag 11.519248515943117 8.459169766068548 11.39823841669863
Ag 13.017174795782182 7.845904233892642 9.113075687033028
Ag 9.582156229757443 10.306795955447203 12.539128506791043
Ag 10.29663837987496 8.172321260914087 8.717256218548583
Ag 7.738248627873078 9.112797050071778 8.648979215069957
Ag 10.030319952454605 12.013418736911012 10.377989629426128
Ag 12.194203404667858 11.132503947965626 11.966350733889191
Ag 11.968762353511845 10.39497278024439 9.337839274806683
Ag 7.521956650062766 11.902554292606169 9.241702571342898
Ag 11.89188968092584 9.384296512900114 6.791231529102325
Ag 9.730452664538596 10.916559363200388 7.703054815207278
Ag 7.773839012735248 12.29601294915744 11.933254757172904
Ag 7.086282228831989 10.98966153093779 6.735674466921854
