16
Energy = -30.58658036 eV
Ag 13.688205685333218 12.209138308001947 14.918272156145846
Ag 12.478418961541502 9.992705765498405 10.917349968486734
Ag 9.878897676564122 10.18146432793186 9.832012024705618
Ag 13.004262364071506 9.926913574626838 13.691607820539542
Ag 8.142983087141674 12.327248941168653 9.884457785994053
Ag 7.724676239318306 10.091267962647144 11.608577017755819
Ag 11.02957550940504 12.9436048581396 10.060735444685005
Ag 12.372998235904046 7.64876262720109 12.457307594246494
Ag 9.578422912873334 12.087366247574039 12.255084427527027
Ag 9.865568412326452 12.254299888571898 7.691777124059942
Ag 13.768828307510594 12.434245050272105 9.982067057115009
Ag 12.41985266360741 12.446721752301464 12.43655291712464
Ag 10.921680968065738 11.571174505062576 14.612721727798137
Ag 12.489716024378195 13.472193680445876 7.722688531567894
Ag 12.114197823415806 10.779160955863457 8.312427416246729
Ag 10.27719371364415 9.47582391091295 12.722695382508281
