10
Energy = -17.68544922 eV
Ag 6.658480136822361 10.715569963619707 8.017386643449472
Ag 8.251472481674341 8.365976529442177 7.8076556001530415
Ag 7.234386423186596 6.661930701298905 9.87475494877703
Ag 9.160470842401924 10.693225122471018 9.062303631222093
Ag 7.013965087819329 9.317183691556163 10.347276906972898
Ag 10.986474833944936 8.969940847857082 7.785361973750182
Ag 9.305049321244672 10.208462181406944 11.80423085004208
Ag 9.628128631482934 8.012911097818279 10.143633366827752
Ag 11.63757821872571 10.075730322979908 10.22611729546057
Ag 13.40228020382745 10.285799257504337 8.21962857510555
