15
Energy = -27.64111233 eV
Ag 7.268968785033294 9.203634459813964 10.623473448888937
Ag 9.878618082815692 9.663700211415042 9.556191512241975
Ag 11.334223520218949 7.638303570658663 8.334613822070423
Ag 7.927452876279874 11.73973983186905 9.590729107470132
Ag 9.024841154863775 10.915975835875614 12.113291640796202
Ag 7.746127491578846 9.51225012519307 7.786562504604076
Ag 11.244250327013056 9.759988838678229 13.329829511978161
Ag 11.661984713619505 11.442223022571056 11.129521169675382
Ag 9.68938589091304 13.406470590149377 11.019421351142983
Ag 10.305233153555207 9.94182985077944 6.833395890722068
Ag 12.142561580580878 8.609886256029556 10.922924612675112
Ag 12.52425314719706 10.250589126546888 8.662405326179261
Ag 8.754166807395164 7.15797048086189 9.209401559086253
Ag 10.513139196018225 12.235763450832595 8.58541457147841
Ag 9.53575834950844 8.06184347058819 11.854756597117408
