12
Energy = -21.05400422 eV
Ag 8.204748033924707 11.725280731763087 11.234939107815293
Ag 7.828449679930679 9.009249583355963 10.51137568131213
Ag 6.07676166935735 11.06804479371658 9.67611600128777
Ag 10.685632014062517 8.779865795500617 9.838574504578073
Ag 10.76563632476307 11.617523567307732 10.201338759367859
Ag 9.362112557185434 6.867365025159251 11.261273038593364
Ag 8.755104201400302 10.721753690865567 8.578406466093867
Ag 6.622311185376968 9.274876812741502 7.6584731858829045
Ag 11.484070715236925 10.421028932663665 7.783174296814656
Ag 8.901675408574834 7.816882953405742 7.993711011084715
Ag 10.768091933647804 5.980451037203158 9.083818230174552
Ag 11.607007227816561 7.74471037793043 7.204578104530607
