10
Energy = -17.50871574 eV
Ag 9.656920113390406 10.649255317572642 12.314604725616222
Ag 10.499097527138566 10.017352165342663 7.537158301316868
Ag 8.661845275206028 10.873017959618723 9.45779381790619
Ag 7.914446267816521 10.46027060392877 6.551797354921877
Ag 11.267525595597142 10.066652966880573 10.117406262269249
Ag 10.701239728067087 8.152994439232742 12.083077245491781
Ag 7.377773426118473 8.567630827134364 8.514596677518899
Ag 9.026442334709097 7.995665793005139 6.318564728720039
Ag 9.983696859791538 7.7780111196119615 9.153090227601835
Ag 8.151505181216507 8.648176333695332 11.088223708695716
