19
Energy = -37.03984257 eV
Ag 12.216570659445612 8.49174999880987 12.807893430743665
Ag 13.433065332731255 8.280797407093031 9.675615568438047
Ag 12.069783566011202 11.527820069767781 12.894616629895074
Ag 9.457502539185004 7.658404539585697 11.994092952310686
Ag 11.162174426925585 6.740821462017391 9.99669664508918
Ag 13.865118198302627 10.612169720364196 11.005252472566669
Ag 11.151857009991385 9.680491417487648 10.713459087180933
Ag 11.30470789979818 8.79668792425406 8.000045560092849
Ag 9.799691578330867 10.021003408569541 13.424873501004091
Ag 8.875761398368203 8.121932449954107 9.26780173480158
Ag 8.030257163848272 9.95248030700621 11.294453267077154
Ag 11.960099337439138 12.397059447412008 10.143287634160703
Ag 9.645556352346674 12.27319371011774 11.733219229230128
Ag 9.744173363711466 11.05926923382695 8.88045278483886
Ag 8.929383492228887 9.570484527220852 6.72406801836754
Ag 6.968285296885404 10.06075328180872 8.690627382941157
Ag 7.409256813901678 12.41632421386315 10.083124179481882
Ag 9.706289743531599 13.780894967963246 9.210515557538697
Ag 8.078520495512848 12.350649883877674 7.21851174966729
