16
Energy = -30.40952673 eV
Ag 11.395691664712274 8.55458485138449 10.047554727691919
Ag 11.525114514899968 7.448204506653994 12.637865396077666
Ag 13.42479039482616 10.352584427584567 9.335506028897841
Ag 10.022887887931505 9.696986748885946 12.513502929756353
Ag 8.679021868369496 12.027715006903009 11.766374722700805
Ag 12.284583650704818 13.442000390720626 8.72697534728299
Ag 10.979245239662282 11.42693837516279 10.106196100662313
Ag 11.276876766295004 12.277495764244286 13.007079331907716
Ag 10.777643296152487 14.072660084281928 10.95593576683381
Ag 8.868218576591877 9.733688399256186 9.744650859610049
Ag 9.077494162462523 7.341010544063066 11.138710674566736
Ag 9.306658396520435 14.253191897555942 13.264815775172227
Ag 7.356599539084992 9.480994408227131 11.985694645637546
Ag 14.90043375107567 12.550864802044128 8.835466220301809
Ag 13.363948026198798 12.618951025677303 11.212341410730815
Ag 12.736061627691907 10.047660784261868 12.130978735665161
