13
Energy = -23.56785129 eV
Ag 9.602154453905262 7.14842168932981 8.07295453354123
Ag 7.503546679324217 8.649721227473538 7.064420621058812
Ag 12.1110890310563 8.113264388370073 8.853312214574109
Ag 7.84396548895604 9.625163117833278 9.65720141212101
Ag 7.522768045586898 11.394510749823398 7.593484783442547
Ag 7.854511477341564 8.521343582113603 12.167297635321123
Ag 10.13650467441278 8.291648940087958 10.655064948112274
Ag 12.77801789367406 8.577941981300562 11.534240086204587
Ag 10.006995312530519 9.886928024284005 7.965969294317634
Ag 9.368720219577547 12.208387098224568 9.471843871245603
Ag 11.664916734690683 10.687249470596635 10.176069711825612
Ag 9.42668835027512 10.734498302498555 11.85873785817418
Ag 10.938269382357708 12.958099335275833 11.682392164216806
