14
Energy = -25.70809933 eV
Ag 9.943263 9.943992960284058 9.579413532469388
Ag 8.447628265771055 9.076626160107292 11.935105998011565
Ag 11.438897734228945 9.076626160107292 11.935105998011565
Ag 9.943263 11.673697657458959 11.93467151045429
Ag 9.943263 9.943717878291782 14.082327633905404
Ag 11.357805117989255 12.390745058024468 9.637242643508884
Ag 8.528720882010745 12.390745058024468 9.637242643508884
Ag 8.477810601752898 10.788808390763656 7.305867237676453
Ag 9.943263 8.250716726795448 7.306368435676478
Ag 11.408715398247102 10.788808390763656 7.305867237676453
Ag 12.772052368608493 9.942172390307341 9.6371219399654
Ag 7.114473631391508 9.942172390307341 9.6371219399654
Ag 11.361088877957457 7.498426389382261 9.636112624584353
Ag 8.525437122042545 7.498426389382261 9.636112624584353
