16
Energy = -29.00005765 eV
Ag 10.53144 12.996515003191996 10.71340462260176
Ag 10.53144 8.066364996808003 10.71340462260176
Ag 10.53144 10.53144 11.870859174232834
Ag 8.524041388647387 9.057014637747551 12.816304568912877
Ag 8.524041388647387 12.005865362252452 12.816304568912877
Ag 12.538838611352613 9.057014637747551 12.816304568912877
Ag 12.538838611352613 12.005865362252452 12.816304568912877
Ag 9.057014637747551 12.538838611352613 8.246575431087122
Ag 12.005865362252452 8.524041388647387 8.246575431087122
Ag 10.53144 10.53144 9.192020825767164
Ag 9.057014637747551 8.524041388647387 8.246575431087122
Ag 8.066364996808003 10.53144 10.34947537739824
Ag 12.996515003191996 10.53144 10.34947537739824
Ag 12.005865362252452 12.538838611352613 8.246575431087122
Ag 10.53144 10.53144 14.4993979825019
Ag 10.53144 10.53144 6.5634820174981
