12
Energy = -21.73137701 eV
Ag 9.312692660107373 10.848517396226072 9.265619
Ag 11.972872936091017 10.10924188113019 9.265619
Ag 10.366945896962179 9.635478931982043 11.572202934768749
Ag 8.024917223401344 8.402166110506606 10.702651086212745
Ag 8.024917223401344 8.402166110506606 7.828586913787254
Ag 10.377065793765217 7.793687490099242 9.265619
Ag 10.031657221341748 6.981012852435109 6.5275657437191965
Ag 10.366945896962179 9.635478931982043 6.959035065231251
Ag 10.031657221341748 6.981012852435109 12.003672256280801
Ag 8.01895059780021 11.064470641519703 6.752724425709442
Ag 6.639854731024759 10.26972415965782 9.265619
Ag 8.01895059780021 11.064470641519703 11.778513574290558
