17
Energy = -32.92711216 eV
Ag 9.647686959550157 9.984423031338777 6.868625112760054
Ag 8.545219710054749 7.552587307082579 8.40587949311749
Ag 11.259529899070062 7.662710930597341 8.058834794726419
Ag 12.390517047838644 10.16241074303414 7.814131307378085
Ag 8.11616802789433 11.953996603360642 8.481430290421564
Ag 9.937065164508109 9.938890455539973 9.585800151155643
Ag 10.789725884419482 12.350894487719254 8.141709581144797
Ag 6.949357356541741 9.646885790829888 7.6096050053838455
Ag 9.642420707743774 12.471748557540787 10.808979338984901
Ag 6.385542277803256 8.439681611148302 10.029827271873794
Ag 12.622896066671863 8.786351501485766 10.249842447062052
Ag 7.8161776134627585 6.146163561034017 10.673931470121374
Ag 12.248111238895156 11.519976482709836 10.435878331733695
Ag 7.364368903558785 10.867154987218868 10.912520713018582
Ag 10.321278693176968 7.288964082886185 10.708642894363285
Ag 10.776224516085001 9.778586419692749 12.19698263383178
Ag 8.281366586372984 8.542230100428062 12.111035816570197
