14
Energy = -25.20117023 eV
Ag 13.464268419481586 12.646935341856935 10.472246609471423
Ag 11.083921 9.596440249032682 12.082413404657713
Ag 13.43950257817476 11.083921 12.800677207420836
Ag 8.703573580518416 9.520906658143064 10.472246609471423
Ag 11.083921 12.571401750967317 12.082413404657713
Ag 8.72833942182524 11.083921 12.800677207420836
Ag 11.083921 11.083921 9.652696330242735
Ag 8.703573580518416 12.646935341856935 10.472246609471423
Ag 11.083921 13.88360896587133 9.711913629402376
Ag 11.083921 8.28423303412867 9.711913629402376
Ag 13.464268419481586 9.520906658143064 10.472246609471423
Ag 15.602635184550923 11.083921 10.046586361813869
Ag 6.565206815449077 11.083921 10.046586361813869
Ag 11.083921 11.083921 14.350030025282766
