16
Energy = -30.71219803 eV
Ag 13.519008118187768 7.2760223829333155 10.299935258111617
Ag 11.691365646528018 8.12245000394361 8.384858488525415
Ag 13.142564563516808 12.343604573281432 12.43277563694397
Ag 13.192523394769381 9.866237510534443 11.132122467434966
Ag 9.825355160368433 9.84689986892389 7.058098252411399
Ag 10.979597554852635 8.098796973597901 11.11445797481971
Ag 10.67457422881315 10.407490102679008 9.601766971038028
Ag 10.916960691187303 10.719409644158326 12.449821895693338
Ag 7.631599513404373 10.54540635940032 8.92055258365299
Ag 11.42755685553699 13.033635589289677 10.316423101773346
Ag 8.953122631486464 8.088849786461573 9.128535860753905
Ag 8.798582018348256 12.35484752243576 10.928011424396017
Ag 10.578456540219813 13.478820816783843 12.891715709807553
Ag 9.573536433555528 12.468319865074209 8.241857780374053
Ag 8.598467380592584 11.58790982812004 13.610775311215376
Ag 8.55282259258644 9.57295383040419 11.456555621248778
