10
Energy = -17.25598497 eV
Ag 12.797497420448641 9.529464910054443 8.580613998728822
Ag 11.155242919124177 10.383868976286104 10.657395238991086
Ag 10.538595165829058 8.057116574023892 9.164046500928055
Ag 9.166373977414578 8.688398730692848 11.552045719874776
Ag 10.415787030315522 12.823221876544684 9.552423617881667
Ag 8.185913184861946 6.721470927211016 9.774745781005866
Ag 10.320864100839549 10.585549006733837 7.894344001684035
Ag 8.451807992554565 10.934225061898394 9.990002964608816
Ag 8.105963375076453 8.937346897464854 8.02040242402187
Ag 6.594972463925041 8.911719506799216 10.406907343793646
