17
Energy = -33.29652317 eV
Ag 11.172884121538958 7.152383160760045 9.493481755406023
Ag 9.366033585503525 12.112159569095873 12.940341325369358
Ag 11.925573002850298 8.994673745275998 11.504864784739423
Ag 10.839111860539724 8.95643465969245 7.3721867099109275
Ag 9.559189980482005 7.506638914991424 11.720480690435323
Ag 13.154194229025029 9.042922285364666 8.946678298555861
Ag 10.08939026065321 9.477634382839774 13.605451492243757
Ag 13.435544211139161 11.198902048841433 10.655045877389352
Ag 8.77459389407391 8.497371951992296 9.217179405383316
Ag 11.773693970058863 11.385746359280086 8.395709885944212
Ag 9.025146084016544 10.966652547596702 7.909564449197622
Ag 12.061696940684056 11.376054633474968 13.047297135737356
Ag 8.128119052388223 9.91849514507051 11.71152279026783
Ag 11.116780425713298 12.778681271060037 10.861883483001366
Ag 8.37030246272205 12.37707307733474 10.376604023864957
Ag 6.7380701462463275 10.355789182154693 9.373474088150784
Ag 10.005880414814476 13.511727968935542 8.439162592692634
