13
Energy = -24.20769583 eV
Ag 10.160996574736734 12.71793100537906 12.417063989607504
Ag 8.302596663612938 8.139699900893469 9.988112
Ag 8.792511727796741 10.458041279322794 11.39885768347813
Ag 8.792511727796741 10.458041279322794 8.577366316521868
Ag 10.160996574736734 12.71793100537906 7.559160010392493
Ag 11.156861324015606 11.566056502707136 9.988112
Ag 11.108503214331547 8.782496864874481 9.988112
Ag 11.293410552303484 10.167168108380427 7.494777386284377
Ag 11.293410552303484 10.167168108380427 12.481446613715622
Ag 9.86190928047669 7.77594366653117 7.696246233714773
Ag 10.236058346593255 6.121931734946495 9.988112
Ag 8.823780180819192 12.997102877351654 9.988112
Ag 9.86190928047669 7.77594366653117 12.279977766285224
