17
Energy = -33.29582998 eV
Ag 8.463529439248425 12.291103746660955 11.789073885138787
Ag 9.863129 6.569685383618762 9.517516965970243
Ag 7.543739386321355 9.863129 6.97634377037573
Ag 7.140321030468535 9.863129 11.6065688610214
Ag 9.863129 11.32525785682917 7.446147647326068
Ag 11.262728560751576 7.435154253339046 11.789073885138787
Ag 9.863129 9.863129 12.237044214950393
Ag 9.863129 13.156572616381236 9.517516965970243
Ag 12.585936969531465 9.863129 11.6065688610214
Ag 11.262728560751576 12.291103746660955 11.789073885138787
Ag 12.18251861367865 9.863129 6.97634377037573
Ag 8.463529439248425 7.435154253339046 11.789073885138787
Ag 9.863129 8.40100014317083 7.446147647326068
Ag 11.981460146030079 11.335856942478182 9.296674688777106
Ag 11.981460146030079 8.390401057521819 9.296674688777106
Ag 7.744797853969925 11.335856942478182 9.296674688777106
Ag 7.744797853969925 8.390401057521819 9.296674688777106
