18
Energy = -34.58485856 eV
Ag 14.133104510552268 11.136297347122571 8.759614255955581
Ag 13.973916643111663 13.73004594804338 10.336014128650273
Ag 13.414597531493284 13.503557432709261 13.009327272053385
Ag 13.094559630203982 11.318495248572265 11.3344543168502
Ag 11.655923183955146 9.763315561120773 9.39492156362582
Ag 11.869665924735067 12.55523525195311 8.918356845524189
Ag 11.177669784860587 9.531589016756818 12.120909082451947
Ag 10.945386135454113 13.175768719536308 11.67561799487127
Ag 11.644744714384041 11.556169931836461 13.996224318127279
Ag 9.07417882143159 11.442069974679507 12.965256437875366
Ag 10.494563161788461 7.358954490421387 10.654717769893171
Ag 9.84591044798762 9.2304487816847 14.435385093721344
Ag 9.646005793219645 13.946378205951875 9.249983150383963
Ag 9.808883326829624 11.225384473298497 7.580085391855177
Ag 9.330476231871277 11.347973517597229 10.274205980395855
Ag 8.46941451172523 8.96770917893729 11.763434811769212
Ag 8.879896705390069 8.96501918073803 8.943694657564555
Ag 7.915340294691815 6.654777135644456 10.089808102636196
