17
Energy = -32.93454471 eV
Ag 11.82098468036824 8.057394541841111 11.18274777731611
Ag 8.00763713024679 11.929242730774238 8.794625266149156
Ag 10.868921072107666 10.264562820817718 6.579861593895452
Ag 11.845842411776019 10.827909456728937 11.20171891495772
Ag 9.435727 7.780555861679255 6.579912762062355
Ag 7.025611588223983 10.827909456728937 11.20171891495772
Ag 9.435727 9.435904274248143 11.858294599490455
Ag 10.878927955826194 6.950616876502884 8.794703576598167
Ag 7.050469319631761 8.057394541841111 11.18274777731611
Ag 9.435727 6.650293316544324 11.202009063642743
Ag 9.435727 9.435496339918583 8.887399770815765
Ag 9.435727 12.19264361106651 11.182974204662317
Ag 8.002532927892336 10.264562820817718 6.579861593895452
Ag 7.9925260441738075 6.950616876502884 8.794703576598167
Ag 6.564368453599619 9.42650637160657 8.794727170746645
Ag 12.30708554640038 9.42650637160657 8.794727170746645
Ag 10.86381686975321 11.929242730774238 8.794625266149156
