19
Energy = -37.83835573 eV
Ag 10.644538719734737 8.600532003010807 12.462156286067497
Ag 12.72909381384112 10.515443049981545 12.71607976380028
Ag 12.914236048269288 8.35124136856276 10.914872891264892
Ag 8.350306773217307 7.81430505700957 11.110954941005597
Ag 8.131226191004329 9.785427568444753 13.085545429477074
Ag 12.290098209588294 8.733052984112332 8.215511099925632
Ag 6.006164686795283 9.407944411198331 11.281871670224144
Ag 10.160825550984276 11.452076992062318 12.27810685930665
Ag 10.678499755172103 7.076289287358151 9.78325889174129
Ag 12.643655566737927 10.990819927408133 9.964541617559647
Ag 10.03639098322887 9.766089646199749 9.800904279748
Ag 7.372254725649011 9.09712900142074 8.852920940244177
Ag 12.193396744879355 13.2000858480869 11.615584478989915
Ag 7.817362351136335 11.366034650784657 10.677726720321564
Ag 9.689850872618958 8.828354301057104 7.210093293662704
Ag 10.061972271363185 12.717091691099629 9.785667984959714
Ag 11.235870909571213 11.245332061588035 7.508926630206952
Ag 12.42744609585074 13.500102664637216 8.734220966525982
Ag 8.487226376688307 11.429264930314075 7.8644815429848105
