10
Energy = -17.68803908 eV
Ag 8.987859776407301 8.219869768225502 7.527316894480773
Ag 6.345841008570076 6.3848007642027085 10.158934989259432
Ag 10.654164235284489 10.471846931684205 7.227140167007261
Ag 9.037215548390096 10.420527008797407 9.599458298900823
Ag 7.636638124219805 10.708861693407432 7.329890013162407
Ag 6.722832072977591 8.864033367991196 9.207117778176267
Ag 11.209656827568217 8.475355286316338 9.093291422876229
Ag 11.672973663777679 11.26765907380857 9.650597890963295
Ag 8.885179255123646 7.441685990374541 10.242337452473809
Ag 10.494552664048731 9.392273291560121 11.610828269068115
