18
Energy = -34.48972918 eV
Ag 13.692809605219598 9.39596083737496 11.363873022649459
Ag 9.129706906260513 10.409253801897686 10.838045283808183
Ag 12.352924443195645 10.1179087655076 14.168288225566554
Ag 11.290441280631468 12.848454572361497 14.146258231394258
Ag 12.00345942291652 11.709090614542108 7.406990910952458
Ag 11.22424740216142 8.500106592014557 12.198832454053738
Ag 10.452321363699413 12.467628411526281 9.643057224176522
Ag 9.779880171961855 7.607393922053457 10.087256698806337
Ag 11.678109619909153 11.357061131452149 11.856799961237346
Ag 11.968968235582595 14.034286191021222 11.546344209423111
Ag 9.659628737897696 10.638084963326476 13.692472096130205
Ag 8.432908273712275 8.344244690161062 12.516106643130595
Ag 10.139362660213427 13.862833394581616 7.326852787609444
Ag 7.12572103411509 10.827547911017708 12.800709362422886
Ag 11.57395883956243 9.756178199348136 9.403066828102265
Ag 12.577041005498797 7.235619990283276 10.011351713911692
Ag 13.480940818265019 11.835937248734105 9.760176370280316
Ag 12.408538663283478 14.237278127398312 8.819783118452003
