19
Energy = -36.73613549 eV
Ag 13.742557841857552 13.232410481038952 10.792235809167813
Ag 11.570905817419092 12.883971458187096 9.10812307926669
Ag 11.425618838177186 14.671717367262225 11.301286622040259
Ag 13.339924788412032 10.55140627509499 10.261402233959064
Ag 11.381797916862443 12.403984145939292 12.898760358282535
Ag 11.620149314686648 10.284358656709657 8.008689126299327
Ag 7.718364159606578 10.472801874386109 10.624161841975777
Ag 11.786907609713795 8.150201581641587 10.132809514421814
Ag 9.04467326716694 11.746416389541956 8.448542022760543
Ag 13.956218177237744 11.388006208629406 12.912362175482944
Ag 7.243127257512493 7.662484579755185 10.132096925209279
Ag 9.623172529525077 6.321687555506153 9.774122357230834
Ag 10.545012356562003 10.71690273444212 10.569836257452376
Ag 9.325458684057791 8.886475423397211 8.738758926991522
Ag 13.385983015752169 14.284966160188656 13.28654349966455
Ag 11.876375343531786 9.557274984427204 12.683603014147735
Ag 9.446327749531548 8.332327204126138 11.727578985349359
Ag 9.147307976512192 13.057626730031345 10.95012602496248
Ag 9.218889148271325 10.772443734665675 13.056850747383894
