12
Energy = -21.67804313 eV
Ag 9.769465441908354 8.468394574447935 10.699476945366046
Ag 12.696283421869063 11.807132144323461 11.923515163265414
Ag 7.9451126811728665 9.634403118983903 8.790845585642291
Ag 10.352384471697158 8.563497781903978 7.997134472985756
Ag 10.247090943303835 11.302888195962694 7.631762858028653
Ag 11.870521856399497 10.106794730752293 9.70836293850775
Ag 11.217670586970401 12.771909288746576 9.684132528814333
Ag 8.608865297906458 9.694031405419294 6.127017585898911
Ag 11.91786977773295 9.192626915098826 12.394926872876812
Ag 10.020840413561361 11.174775107017238 11.67210034882431
Ag 7.54305811722688 9.91415582328239 11.455429939412026
Ag 9.388036251159129 9.171870480971336 13.50155449896945
