18
Energy = -35.18317404 eV
Ag 11.211894286773681 7.325844170331204 10.301539821724912
Ag 12.090570009205084 10.404277610459275 13.79207188217499
Ag 12.28510746342539 9.61702814357951 11.132731232821218
Ag 9.700719488783053 9.536284820463152 12.765352439539221
Ag 8.531271449779162 7.039340188776048 10.705900931019956
Ag 13.783763393688997 11.751815727903558 11.924300030426496
Ag 11.81836524804362 9.492023896524374 8.277310169124142
Ag 9.720527192896506 7.634055066751013 7.927444441737199
Ag 7.2600601718662015 8.600050301703801 8.725872583241467
Ag 12.553930123078842 11.94565334419285 9.464581597349602
Ag 9.531808151585295 9.634821447069854 10.022094293037796
Ag 7.27026460388669 11.356608041242191 9.115356061039932
Ag 11.032650363871321 12.161430208218878 11.848399389841731
Ag 7.110123061095668 9.370136196193556 11.475260323724656
Ag 9.213007743921326 10.365879130616642 7.3236408959451005
Ag 11.36437453943686 12.03990381398201 6.994743061187046
Ag 9.796282894747813 12.5561663062756 9.249910232310874
Ag 8.389968144742774 11.815524986585283 11.635687598145143
