15
Energy = -28.44845024 eV
Ag 11.585749555051837 11.314668133124167 6.698595872254867
Ag 11.757605187544447 8.609283811329684 7.772164966311737
Ag 10.637002176857642 10.773254402216475 9.237230000562377
Ag 9.023205792151632 12.467962221225461 7.8301296239224865
Ag 11.576934906561837 8.584325623365482 10.674349960957118
Ag 9.32075640252691 9.770433927084133 6.95409735072414
Ag 11.133627743867716 11.354472859614141 11.858389596026214
Ag 11.429888835304489 6.227913410251199 9.251882407298456
Ag 8.676353442325189 12.292507038745832 10.706627852684445
Ag 9.203673994223875 7.852655083572083 8.89908315775346
Ag 7.63304081811807 10.249704567427829 9.08633295375332
Ag 9.117017959281629 9.559290728217105 11.53404690728648
Ag 9.555967231858894 6.653011681788259 11.35009904119808
Ag 6.533717149188671 10.630693382070572 11.610113660405114
Ag 7.097102422750581 7.941466747580859 10.818500266475542
