11
Energy = -19.12077811 eV
Ag 7.454566014584627 10.28083925280476 9.102339258922342
Ag 6.255696268640471 8.544205030743365 10.82342883324594
Ag 9.01874467276607 9.049979297963723 11.051276768247943
Ag 9.957600121122534 11.373969949815788 9.578263120337445
Ag 10.031029406291088 7.539473738054255 8.889621547280635
Ag 11.200911060227405 9.796788345150716 7.621309224520805
Ag 12.68143676669324 11.58893571365154 9.194103748418879
Ag 8.952402143449508 11.405781623793873 7.076773589097862
Ag 8.035375946999984 6.5040380840005705 10.52813388295085
Ag 11.743847362349007 9.18357041367815 10.232797777300966
Ag 10.814064703390228 10.955005123665089 12.106329994395558
