17
Energy = -32.9578961 eV
Ag 12.911331071495333 8.900199381067432 10.671931977456179
Ag 11.12621707511217 6.927743015571972 11.376915409336354
Ag 12.45846281146689 11.494924773644998 11.506247347740164
Ag 8.809249198464544 7.758745332569692 12.676396084700677
Ag 10.226057909990542 9.760268989354653 11.277736238400713
Ag 11.752205930615819 10.675792379881333 8.872099751802864
Ag 10.2816265544072 12.643444245932843 10.303184757903688
Ag 11.281517389899365 7.843630986605132 8.717218581793295
Ag 8.763839180590926 7.2901069962999845 9.958093406390871
Ag 9.040217491620204 6.925606108601744 7.267463800664003
Ag 9.746832016897669 9.601757406229051 7.258299690282132
Ag 7.260990667277333 9.35785451580888 11.02650824098052
Ag 8.33254336818476 11.738106494938698 12.00234962239065
Ag 9.93905849835861 12.341643345371265 7.54162362334403
Ag 7.181251680365975 8.849053549359041 8.250023270450592
Ag 7.989234889208418 11.368137727467678 9.288297154149822
Ag 7.513038801626661 11.089621797932987 6.58974767937611
