28
Energy = -57.96067852 eV
Ag 13.948862684635415 8.145507441974948 8.180830238701017
Ag 12.250003627454857 10.352002759847291 7.9978035972708295
Ag 11.265597091905056 7.96018030174694 9.180492385692906
Ag 11.210039612367298 6.873612803013756 11.723755314688079
Ag 13.423599285556765 12.914546479639215 8.643354245867759
Ag 13.52631004962273 8.050430129633318 10.848973157602916
Ag 14.43840289568193 10.519098298828112 9.807843652233089
Ag 9.461242038235646 10.027690902908958 8.47475754633791
Ag 10.64328260281497 12.561569193381487 8.74731260622735
Ag 8.018092841892532 12.407942371990266 7.839350997306161
Ag 9.358887221831326 8.95426844139386 11.115896200597671
Ag 13.4241623909127 7.5636762668432995 13.570226570592025
Ag 11.215686684452606 9.276199070537107 13.249870635045747
Ag 11.626123890545898 10.63548155663224 10.73988925847289
Ag 8.22694408281998 11.555158000779054 10.444839409293762
Ag 9.051736291699228 11.06261679511019 13.006446429179878
Ag 13.926069506350673 10.21698773016079 12.570814385348417
Ag 10.44887546837121 13.026287761484813 11.61725588773682
Ag 13.510490254695634 12.782748676604594 11.350179413144375
Ag 11.782065425609467 14.850832856955552 10.100434129674918
Ag 13.109736323915264 9.842259664593731 15.221620621807343
Ag 8.745398796820806 14.385920398763929 9.758993638734504
Ag 10.447682683246349 10.964471513900747 15.410778536631602
Ag 7.778116578139281 13.600833002688718 12.340111344905418
Ag 12.218554293792558 12.102277970204979 13.705114931452082
Ag 12.20930660216653 14.843565986231544 12.890773047858477
Ag 9.890143927644493 13.663525595205337 14.264368612094914
Ag 9.701691154564156 15.717412336690877 12.055017513246185
