22
Energy = -44.18818105 eV
Ag 9.264208240939158 10.854869562777067 13.792404800519583
Ag 13.352308023608272 12.201021818056045 12.052409230301881
Ag 9.57688999805261 10.459051323516713 9.219545404393758
Ag 11.275450860857875 8.272059161379827 9.896953573007181
Ag 9.737013216229695 12.82527864351878 15.638027326208656
Ag 11.585470186070706 7.95682938150519 12.71327594926131
Ag 10.728670244273035 13.299691636825095 12.996729818258805
Ag 13.7808646297914 8.907647441918517 10.990083612901637
Ag 13.73493924947285 8.494208375843154 8.266917849315233
Ag 13.737794751957727 9.784936804677239 13.538683179860602
Ag 8.434120834380282 11.840044051888553 11.329554866936077
Ag 11.177403369636071 9.28855370882859 7.321620719398814
Ag 9.033645809359939 14.576543726986522 11.224909920257593
Ag 11.347606285709618 10.515397420003891 11.822373762774077
Ag 9.111846028932831 9.031597453806256 11.655474639300326
Ag 7.972965553279569 13.484736020357694 13.589913830907976
Ag 12.882102587117874 10.944953317403714 9.346647276673966
Ag 13.376514810929718 10.752769115134827 6.59457065814306
Ag 8.843355650216495 13.144478068490097 8.813936949754083
Ag 11.938259039775211 11.460423607518335 14.640759161768361
Ag 11.128709875530769 12.147856183596195 7.514486800828617
Ag 11.204851058636558 12.997947835662389 10.249227385429156
