26
Energy = -53.28059083 eV
Ag 7.723410221974952 10.6742396375302 12.673095947655526
Ag 8.381122254078814 8.493736796983928 10.956733072044495
Ag 10.172630102094882 9.303836576261608 12.973365299106794
Ag 6.562744925936035 10.675875005582073 9.930134734894764
Ag 5.850503525164503 12.564725371393614 11.920291157401428
Ag 9.300663282944479 11.07055045990895 10.35991225669268
Ag 10.92108771881934 7.27972901278895 11.001615261627219
Ag 8.511548204102683 9.281340141838559 8.267589712384744
Ag 6.893264641153565 13.636394774666641 9.615057285886506
Ag 10.03984568764294 11.957438061701664 13.790753864534366
Ag 8.560274514427915 13.348301756962435 11.848212590665716
Ag 7.913309659270956 11.918736250151573 7.7767548500861094
Ag 9.122475333099285 6.646043543524994 8.95905247776604
Ag 9.758503802222231 13.606935476421363 9.20270342954925
Ag 12.590006867091402 10.911300864432196 13.292248520704392
Ag 12.773839413798623 8.062513302975939 12.880122393876094
Ag 11.375999634178067 12.795289274587965 11.457879584354606
Ag 11.203155259066266 8.469227624891664 8.471709846926101
Ag 11.801542378711787 9.987066504544199 10.751688904873543
Ag 10.694592657708883 11.177420800752733 7.8923351499945085
Ag 14.967100919021535 9.569733088244437 12.341163663470573
Ag 13.99922727346148 11.748824386483001 10.86856812584662
Ag 12.490991388474876 13.050643524953651 8.883727747880153
Ag 13.634064166283002 7.956061373247682 10.182601747120914
Ag 13.336893593063197 10.343356573840136 8.401431332634086
Ag 15.712818247379012 9.826235440354134 9.710398894810185
