21
Energy = -41.97889106 eV
Ag 13.468890249974441 9.024060556085756 11.983654804213902
Ag 12.873313346748912 10.403570192858226 9.66779075050524
Ag 12.527641986206012 11.92433440764198 7.355589231501613
Ag 11.050944885714774 12.567371521273476 9.68679991537352
Ag 11.899764543837309 7.763375280544292 9.984675526651994
Ag 11.764192200798602 9.06596784584747 7.5098369107902725
Ag 12.494796901739933 10.052937496736284 14.44427090183874
Ag 11.661339046304004 11.25229571005344 12.034250887507438
Ag 10.31329375177613 13.892902512307582 7.388599634458041
Ag 9.8412938534883 9.922597682628387 9.902040956868081
Ag 9.943042394801251 11.127260200296977 7.141297407882494
Ag 10.84239261919319 8.60612720594434 12.738847544149769
Ag 9.785477252935742 10.940659574864137 14.056863480378025
Ag 9.388162220237586 7.118837636345181 10.986905155003399
Ag 7.6988209622572175 9.883738360383198 7.940951903700159
Ag 9.476453744238766 7.625253251123394 8.276334244722046
Ag 8.97937130100776 12.129820934574191 11.646243747145183
Ag 8.351007359846365 12.542947921936154 8.938129297340899
Ag 8.227044993916676 9.410630466234203 12.275784200491138
Ag 7.077399358292814 8.129815778643035 9.930635938897158
Ag 6.724323401048557 10.906741549096262 10.477351366492952
