21
Energy = -41.91769341 eV
Ag 11.621366545060603 11.449388962808513 9.50405934767526
Ag 11.876857006339144 11.4245791801869 13.88263574549027
Ag 15.230230526419737 13.92690336891732 11.536353583361201
Ag 8.898580919183683 11.43259867010104 10.219228501204071
Ag 12.936533927351384 13.924758596642373 13.111532609279909
Ag 9.141178695432977 11.316142247353191 13.335790029207683
Ag 14.362022266868108 11.598720827440644 10.176738496294618
Ag 15.493904544666206 9.462223436301404 11.625174847763313
Ag 13.412634841270473 9.15657071812059 13.483501380827072
Ag 12.771347248948587 13.900368287554999 10.251863680226135
Ag 6.713219674211815 11.643999338792966 11.954734703702627
Ag 8.118732140105848 9.228925241888835 11.766954808916541
Ag 10.752809952246876 9.126022421785764 12.697893383386889
Ag 8.596039066869642 13.69211252243994 11.85414184439698
Ag 10.344040309297064 13.736661690024915 14.027329184984655
Ag 16.945441110322538 11.783141329398443 11.461388071980187
Ag 10.233421452516545 9.02496482893356 9.913854374680486
Ag 14.598768858097937 11.683582243727114 13.118597865227448
Ag 12.850171346606324 9.293060771930849 10.749936424248501
Ag 10.90710813237835 15.303951226160446 11.759221864926053
Ag 10.120060435806336 13.815793089490542 9.493538252219937
