24
Energy = -48.4840987 eV
Ag 13.044250500456767 7.877062874390227 9.273865473828772
Ag 11.78097840688057 12.234791559691669 6.2153856838393775
Ag 12.367800557093451 9.98877149309726 7.743600893382265
Ag 10.511119133725753 7.772430809982415 7.912398184905119
Ag 13.01606004050442 10.38056046701576 10.64180699236378
Ag 10.89934221971517 6.35919017162919 10.347479957735377
Ag 12.400335420462632 8.031189819147391 12.043614285447907
Ag 10.03218585835415 9.890803155156183 6.100979834670475
Ag 12.617728643917067 12.564758011605553 8.891453742865298
Ag 10.427004077154928 9.293258889327578 10.275887872871438
Ag 13.282111451665173 13.002458341297393 11.563617519122573
Ag 10.002000664495734 11.644236965883298 8.270839386270742
Ag 10.706223742832739 10.044313184588423 12.997297907395788
Ag 7.29079042697523 11.869767257575218 7.6386655033065916
Ag 11.275476934936181 12.701078917781476 13.628819102665181
Ag 9.708117376432218 7.395629215268294 12.702359612902416
Ag 10.727214105040705 12.109341429893822 10.980946444983104
Ag 8.217459953240034 9.335939887338519 8.161784559181989
Ag 8.281593896094355 7.461794121668723 10.214576879878747
Ag 8.088206631538835 11.369533950163172 10.257571712110117
Ag 8.666348511116315 11.997730577827006 12.958951591446258
Ag 7.879538488273732 9.346047492857245 12.372776823429097
Ag 6.176384744461659 9.34487497628209 10.081233785827694
Ag 6.03255602722397 11.41482850383793 12.134708248816235
