21
Energy = -41.16998816 eV
Ag 12.718606330844093 11.148540832099334 7.341730298743875
Ag 10.36656187052476 12.173622753312543 6.3120739022622665
Ag 10.512126223998866 9.765888541059839 8.302668712906375
Ag 8.421926138977982 11.794219075717546 8.218195319379651
Ag 9.041130440583585 7.3949130671600525 9.362046086609086
Ag 12.744857140729446 10.620892470632601 10.044666933304708
Ag 11.04155353235924 8.436522299765386 10.82927098560432
Ag 15.347539765279398 9.911774714435813 10.95573406893627
Ag 10.97566951305166 12.613222587204316 8.960682706294158
Ag 13.671905630248709 7.808436934543406 10.58199133617206
Ag 8.562289341966894 9.959279068927513 10.240863345251142
Ag 12.988084815661905 9.57648959468405 12.62966209751715
Ag 8.625486134697665 8.054872849119521 12.192933582289394
Ag 8.904589170133642 12.693982993924996 10.852059046599937
Ag 11.597227983045986 12.87048898932555 11.570399989038263
Ag 10.294412785204223 10.311475477898755 12.73860562491989
Ag 14.194001235536268 12.085968010503006 12.14264363102812
Ag 7.618566844878181 10.83009623131375 12.707360829196409
Ag 12.151462959415332 11.859687134660163 14.10135185813473
Ag 7.0444086354727595 13.535569449271398 12.759461185900358
Ag 9.602334894441 12.941132965431368 13.566901406756996
