21
Energy = -41.9495916 eV
Ag 9.108978391086447 11.218906855106976 7.710193206789042
Ag 9.131555389493078 8.410055660614507 8.27915039536359
Ag 11.836456710966484 11.400066952490215 7.145895410919406
Ag 8.163985108580384 12.36952639151696 10.35447902029698
Ag 9.694844377167396 14.361298167138193 11.43290109665531
Ag 10.627365171698209 9.188314410560949 6.105704129637594
Ag 7.107023868684358 10.066689840517594 9.307735364958322
Ag 13.08726500471451 11.31306501617073 9.541692605991694
Ag 10.7113813060934 12.998660589501954 9.185335343158542
Ag 11.922395349331405 8.892579353180832 8.575837044532953
Ag 14.539217138016253 11.195387404071584 11.858470238445388
Ag 10.223089054109526 10.396773206840333 10.281570656054718
Ag 7.892109570037837 9.853588462614736 11.9758792438846
Ag 9.755832148004037 11.866035381125165 12.699809295910413
Ag 10.384826989364067 7.590574211002391 10.7023629290786
Ag 12.154505205959216 12.888004956376596 11.618146666090071
Ag 7.474764746976545 7.556956297966046 10.351870321580899
Ag 10.389189836800808 9.146326305857912 13.047641067678692
Ag 12.366184812172067 10.902834371148366 13.542116714864692
Ag 8.589499699845414 7.107722696505224 12.823484267606775
Ag 12.696709555269544 9.140391805280334 11.316828922303507
