27
Energy = -54.45307551 eV
Ag 15.593254467817589 13.163437900650752 10.643154170292824
Ag 13.616390116072237 11.25946198935288 10.631613979525772
Ag 13.070869917783305 9.234463140568106 12.572841702175335
Ag 14.180634888323755 11.804938357034395 13.301973502288359
Ag 11.664076122953649 11.456022321231675 8.595256909813289
Ag 12.965962979591213 13.781251463372456 9.63132404458484
Ag 12.289642189920906 8.873039819218349 9.92820173601896
Ag 13.744813759809777 14.34700502887524 12.21939310940297
Ag 11.030244781794734 6.557792910050112 9.094883211968128
Ag 11.943368874143019 6.739814575609337 11.767251659772008
Ag 11.953142698625692 8.398747833897579 7.126228198688771
Ag 10.526989466170354 10.632290537234077 6.189286230908967
Ag 12.044389863235923 10.642348501137642 14.721994788469349
Ag 11.219571373297663 15.254104370554915 11.66016509027577
Ag 11.596411304736073 13.013428369822751 13.391914261219256
Ag 10.549579651565466 8.588849559019208 13.593509751199548
Ag 10.88564221841101 10.869177938067939 11.41832689556456
Ag 9.756308986865507 9.214285228436923 8.511533278342746
Ag 9.622797681953358 8.06239776925385 11.039529471003311
Ag 10.222591738011117 13.582961918674668 9.74787739890236
Ag 9.416400349833653 11.173433123675224 13.855200367023446
Ag 8.899702404918703 11.842504849402252 8.083570142289469
Ag 9.108258597645323 13.488832242256295 12.326802366469119
Ag 8.164417506557735 10.422317642047009 10.502173787134025
Ag 7.768868489550591 9.038996199604775 12.893471253688586
Ag 7.486288242843888 13.115634910725463 10.160119175901633
Ag 6.910492420007076 11.673572592665476 12.623514609515038
