28
Energy = -57.60682579 eV
Ag 11.313854646528155 15.4266331241088 10.764585351482879
Ag 13.981947362416461 14.45437481202927 10.954541683009221
Ag 12.910573546268713 15.076829098761552 8.464959552282297
Ag 12.156268686305255 13.684741708582953 12.90715462096307
Ag 10.173632718932486 15.187683336604254 8.17030880059475
Ag 9.465519798452657 14.588477095063475 12.720542134281667
Ag 8.395192671740997 14.964550713958452 10.263096885917024
Ag 10.76579759417934 12.557761462454645 10.70748576147019
Ag 14.08615050318847 12.549203329939811 8.856676951120024
Ag 13.608583329674792 11.706103064627843 11.489994666829299
Ag 11.482221881814885 12.750395738634422 7.877299218738663
Ag 9.94425381085337 12.028585859365613 13.520815407277876
Ag 8.73562791423599 12.75322742822173 8.65059722140908
Ag 8.03128238021616 12.357851549716731 11.38676976119562
Ag 12.222698211675436 10.479710230553174 9.23597928949758
Ag 9.351543302092024 10.26156507583424 9.759172900159006
Ag 12.611883208444029 11.186008234495674 14.231563555326616
Ag 8.630324259675039 9.764197515104254 12.45229444578648
Ag 14.135959559265464 9.275714875474884 12.76686512436765
Ag 10.819205049559482 8.09596911005153 8.749261455834766
Ag 11.424911024286594 9.93239046835621 11.997232719511432
Ag 10.141735347372382 9.66196555871786 14.860173785381086
Ag 13.07799167403465 8.13235488120358 10.381124032570979
Ag 12.525580539342489 8.380378958880124 14.82077731632377
Ag 8.799913790727635 7.634500761362256 10.667162862900549
Ag 12.989051393174652 6.646472611160971 12.733077139600564
Ag 11.148229192245058 6.144366255986719 10.753076145536959
Ag 10.286037563714943 7.477300276881055 13.084806167283617
