27
Energy = -55.15607963 eV
Ag 12.017880432554803 11.128743898320987 7.14309045927757
Ag 12.137263751374116 8.384799384706469 7.661491846068051
Ag 9.532595985122398 9.5814802971627 7.439975105670608
Ag 13.839689166152759 10.184337852165427 9.139254608199252
Ag 7.064393957937093 10.934681076593058 7.521246569862392
Ag 9.549365469286634 12.375812364031685 7.850291649163848
Ag 10.007082328707835 7.487205146351322 9.388947818108504
Ag 11.062511636212523 10.125283631570884 9.677590966490094
Ag 12.67149538984213 7.828438010084997 10.394595982154367
Ag 11.988391000139138 12.82763058939911 9.338079843278416
Ag 7.421769256360023 8.463770424904924 8.972720946095505
Ag 8.031681380482983 10.900957741754967 10.110874148154256
Ag 14.748199788831366 9.159128826511237 11.606259134185281
Ag 7.1493351116545245 13.344105811277638 8.89585852762969
Ag 8.576937965384703 8.513107464608298 11.534608031389157
Ag 10.621280291348535 6.650100745517943 12.011728506236482
Ag 13.03361015557906 11.404093325265258 11.58667226075893
Ag 9.612537310801978 14.304192190326397 9.879068729815803
Ag 11.869909015733242 14.103951940984917 11.880236416768167
Ag 13.080684867572698 7.331546338678157 13.115257526404314
Ag 10.211564661614881 12.052904748144154 11.43234918794112
Ag 8.544314043085919 10.813474635459412 13.12181170132123
Ag 7.52582351142788 13.175901266914218 11.630970767401035
Ag 11.1246979104866 9.362843577814498 12.512037469239978
Ag 13.491745280786125 9.941747636727872 13.994936724572124
Ag 11.40993882504191 11.774585694372108 13.970412499313507
Ag 9.321184636823372 13.536776777478167 13.70866541680601
