21
Energy = -41.27684508 eV
Ag 13.917458215531237 11.62629663224949 8.688494244391814
Ag 11.656416435251277 10.707186208861565 7.463958249480368
Ag 13.095934282790294 8.823242227650637 9.070289528485619
Ag 12.13292033922052 13.388455189496632 7.102275012233673
Ag 10.484089683306783 7.454365472591232 10.250860462833552
Ag 12.75119556633162 8.128259081780223 11.728530486892934
Ag 10.964431158132474 8.009672125731855 7.576676547999627
Ag 9.683828728759604 12.595771021352027 8.350703329940679
Ag 12.355662923064212 10.807009432369732 10.807092397062464
Ag 9.692455764759716 9.93150260713206 9.223543024552566
Ag 12.6530112689274 12.493984381737693 15.18274303281579
Ag 10.239872956534564 9.465945035301528 12.21291847168892
Ag 7.902826312648479 8.765239880682156 10.916441961762173
Ag 11.9892904244862 13.43705497582398 9.811225555015037
Ag 9.862097025638361 12.228341537301004 11.170610437081313
Ag 7.494150366882006 11.498123509821369 9.924316862369682
Ag 12.212032892390589 13.011993134885461 12.53138272306637
Ag 12.541653492934275 10.279610329324885 13.566062558818631
Ag 7.8357105811859435 10.999555326276758 12.680032690020125
Ag 10.193519872554159 11.713697524402013 14.023519526379756
Ag 7.795714821643366 12.271594578877425 15.115757325702203
