26
Energy = -53.37152043 eV
Ag 11.466107387170364 7.449295621057011 13.667743530174908
Ag 10.872456613672393 9.967995480680228 14.82261369234113
Ag 12.433466677106079 9.706504759428633 12.457425141758549
Ag 9.558686769817934 9.115180908375718 12.480663175210086
Ag 11.322540795782697 7.573002556939298 10.844801263610094
Ag 10.039056978973706 12.426350553162505 15.754344386564059
Ag 11.748521416433581 12.28401455998248 13.46901167304491
Ag 8.995370091017756 11.7646632492692 13.267557853700815
Ag 8.57982126479134 7.992118553355545 10.138253162494218
Ag 13.339756754841318 12.018229135825667 11.149933777427304
Ag 10.198090857712389 14.541351679018536 13.973361594781798
Ag 13.002111212748764 7.091406278654292 8.592858460567458
Ag 12.927261437760759 9.624115008758048 9.711373070663752
Ag 9.71297461189911 13.790769636477586 11.392847821482246
Ag 14.36326613441099 14.235860560449487 9.95220560296003
Ag 7.830351408751062 10.787336486669215 10.910744539737253
Ag 10.65052159884417 8.47530420131 8.256415632392681
Ag 12.35119766129911 14.575616781213137 11.938397998227893
Ag 6.147943692634407 9.060525740528758 9.525623863719783
Ag 13.662124868141328 11.955392047013836 8.30792326816372
Ag 12.989736374826109 9.476620462516301 6.95949914916231
Ag 10.621820412228061 11.170933479789266 10.739662105167179
Ag 8.386205081562906 10.129836143691191 8.24140064046064
Ag 10.979131210866145 11.205002639670651 7.833521568144883
Ag 11.622117998179556 13.610862112152963 9.350634016323365
Ag 8.938089565806642 12.710440241288824 8.999911888998048
