27
Energy = -55.47693952 eV
Ag 14.049564638025366 12.942679240467733 13.247504144301628
Ag 13.940060208965411 12.319009039351739 10.494545406255602
Ag 9.39324521141261 12.307172030769175 8.656623399757892
Ag 11.113431423986984 7.9915273304328975 9.524119386896073
Ag 8.501660264537596 6.905122085723095 9.879346683462106
Ag 7.542412473162734 11.422905774728079 10.61447115398973
Ag 8.998282888259746 13.690402611907711 11.119863265600191
Ag 13.549994225305733 14.93808809989042 11.273084823331619
Ag 7.71322688100088 7.321869149993071 12.718003642483442
Ag 11.429532864594734 13.51984330533716 12.492961835296528
Ag 9.225352015453154 9.194898945996837 11.347693112462002
Ag 11.920506598854175 10.9975035839963 13.638979775258719
Ag 10.306473389625708 6.603614336441797 12.000180964665834
Ag 13.370974964901343 9.635428974126178 9.768945764868555
Ag 9.95955664610436 8.849213822760694 13.939075753620923
Ag 13.828854868802463 14.25485488319464 8.476449784163588
Ag 6.978964748648683 10.007570604389048 12.998802550423541
Ag 8.671416410096178 9.587943816895418 8.675129414567326
Ag 11.089170006481474 11.211710821443312 10.728248338106079
Ag 11.63603729568215 13.081905561969634 7.125941265941748
Ag 13.918021020120632 11.548782431917214 7.818836403237392
Ag 11.392585164347372 14.024778147011332 9.72789864195648
Ag 12.104610434810922 8.689625752220879 12.079681488610293
Ag 6.522614517072954 8.756884143947413 10.48538828469524
Ag 14.30920221371093 10.31145821140366 12.371218398516751
Ag 11.345125008259798 10.379251375416198 7.96538832895444
Ag 9.290776461290061 11.607608761783148 12.933270832090539
