22
Energy = -44.23853452 eV
Ag 9.395970018107755 9.641211933540047 10.725417799481697
Ag 8.377127835590805 7.0373407358694315 11.745843546093974
Ag 13.623537884107654 11.539951774295274 9.55593531637333
Ag 9.220151787058796 9.270982939698145 13.477982883819845
Ag 6.77587192864484 9.280064463639448 11.80087763228993
Ag 10.828271714478793 11.526311396365799 12.54817536078242
Ag 8.092173768308632 11.655569664305597 12.201217751263826
Ag 9.694740110600097 12.55609798808374 10.140044350577806
Ag 13.975766570816443 14.31803570420759 8.944607199371829
Ag 13.616180287827532 11.312896730731964 12.408803889629919
Ag 11.291897093131793 10.334525128591558 8.484251662640835
Ag 15.062962934950832 13.311477015644321 11.278560986550684
Ag 12.393400010083155 9.329428779391954 10.83083079871542
Ag 12.220469261143652 13.448319188486765 11.026046422382025
Ag 7.328038557979641 10.981649855045928 9.439976027428552
Ag 8.923983435223896 9.251084050957195 7.608853570311798
Ag 11.653636594654923 13.11144842190876 8.209792718812075
Ag 10.463566393451504 7.60964216662316 9.361271559593044
Ag 12.08877663297754 9.346592498042499 13.683264665978953
Ag 9.184299214837651 11.99265105806758 7.488244532146671
Ag 7.27827804014461 8.040783521936188 9.38745348729614
Ag 11.038643414584968 7.327486038071999 12.138287658739614
