24
Energy = -48.29045077 eV
Ag 10.04709442257973 13.532882600532808 11.55687140278866
Ag 10.011502178804557 9.37127824242924 7.86882656609589
Ag 9.969133947011795 12.131254819813483 7.176446401476518
Ag 13.966241628159656 11.976696771040393 13.346949184737886
Ag 12.224439261858372 11.039821791782888 8.497327311411068
Ag 10.096245685464899 8.157132340476043 12.445039662655544
Ag 7.428058932483919 11.569288113481281 10.971258126867015
Ag 11.657344621327479 10.377814164649596 5.844047415428866
Ag 12.364927169385929 11.863885169573058 11.107814589044738
Ag 7.405005848524817 14.209467033947384 11.674678274979618
Ag 8.508594971549563 12.240063251620501 13.481445753799942
Ag 12.668259785612511 7.10549949355172 12.039523574804743
Ag 7.753630066231157 10.938437155975427 8.30894042597365
Ag 11.320388752046947 13.603174813350236 9.137645982750083
Ag 13.246559460901366 9.284477477276967 10.363317749899316
Ag 11.007286586768897 7.656514095157251 9.832684358778925
Ag 12.665598459388155 8.403036994406913 7.640402414690763
Ag 7.717805596627239 9.553219708241569 12.822187925873953
Ag 11.285936741017668 12.305627129720383 13.717983318416605
Ag 8.620192254359749 9.094777809995367 10.256436589151015
Ag 13.605918658319409 6.5985254210050455 9.49767667476958
Ag 12.331937790754676 9.736208514794223 13.027521650676649
Ag 9.913746289982242 10.036031377140018 14.505006865821066
Ag 8.494627372502414 13.525362191701761 9.190444260771212
