23
Energy = -46.25774358 eV
Ag 14.016238234642767 11.254046250461016 11.954133975341302
Ag 13.02202866817781 9.481695794858076 9.942788070382447
Ag 12.413209110537371 12.207138112991114 9.830719345704901
Ag 12.712514806552033 8.902884307062767 12.653643374252256
Ag 11.72587838862964 7.761528892099531 8.142099841246589
Ag 12.798635241266032 13.662140196748188 12.249739021715996
Ag 11.755415234106621 6.973745425869931 10.893527942887168
Ag 10.01584568696187 8.323939921081596 12.893635972927415
Ag 11.11993208931946 11.216848439211667 12.16589712017366
Ag 11.279842053469036 10.504150485841977 7.889273428930374
Ag 10.206120714934757 9.164941524868608 10.220503943318382
Ag 9.405146827703643 11.854418330141149 9.876362294413491
Ag 9.507292478196465 6.437668082150938 9.273899434119432
Ag 10.671823546943086 14.21592366697016 10.62974776560354
Ag 7.834569908271117 7.756239165095226 11.162275276781054
Ag 8.897674158614336 13.004789368266728 12.463026610931374
Ag 8.322434176479812 10.32540683278118 12.122870853803652
Ag 10.714816904823163 13.241459190205632 7.810688755074526
Ag 7.408451283886899 9.87669235915877 9.31746417645043
Ag 9.123154620048085 8.611464459252018 7.470837077839814
Ag 6.766701864086246 12.172023653421812 10.798836496858174
Ag 6.944131916799092 7.188790527539823 8.544128242434756
Ag 8.693778361542732 11.350393376686057 7.230259200616189
