23
Energy = -46.35844652 eV
Ag 14.623741368771304 9.881558874759728 11.98240690305724
Ag 12.62868423478817 11.620914639856538 12.661790909104926
Ag 14.096793976669078 7.215874756022849 11.898760228002315
Ag 12.71287092633894 14.271783371753738 11.623760591059204
Ag 12.162513774254888 6.787650866813198 10.0345136687063
Ag 11.739069737225412 8.679825223882883 12.492442917238744
Ag 12.765156727458608 9.49452668453792 10.031629580267925
Ag 10.342911302690172 13.301469244057612 12.817754350284334
Ag 10.41988836041857 10.71846871440925 14.107996813253687
Ag 10.366882704398531 10.863081265738076 11.275769150099165
Ag 13.894987099342034 12.087243655707702 10.226368031664387
Ag 7.867131532439546 14.592353729544982 12.35048022874681
Ag 12.563265261951006 11.242896406514605 7.832050294088872
Ag 11.404583469087424 13.179639234478529 9.48642931533434
Ag 8.780518794655585 8.951417863989668 12.718817289263667
Ag 10.185685403674764 15.38001065514461 10.98678281153504
Ag 11.261362245407268 8.701987507141352 7.865489229182795
Ag 9.875200340398283 8.270192058735441 10.238173201799189
Ag 7.984327187165334 11.702996120094612 12.75544088638038
Ag 8.725405322452612 12.98314162259599 10.301150224773602
Ag 9.84287957804778 11.08764656178789 8.48603430865325
Ag 7.804525541456098 10.219865947757281 10.306909017784127
Ag 8.423419258965673 8.821144611977495 7.856222700312645
