21
Energy = -41.75355573 eV
Ag 13.156618038724643 11.345357355307623 9.118750360051685
Ag 11.98201226184597 8.82377888258298 9.38520860176367
Ag 11.549620968223737 10.649977881685395 7.004164928966786
Ag 12.876210527235727 10.203599029535722 11.710335200014619
Ag 10.571214274036997 12.896372041624987 8.53990523760976
Ag 12.320781561745502 12.988689625921321 11.168913441189884
Ag 10.26227840879275 8.207866940636869 7.1928706810684435
Ag 13.453075416830828 12.171731561932365 13.585581807419823
Ag 10.983897074152392 6.281395466892444 9.188197424570204
Ag 10.411990503139503 10.918836867206059 10.310601204346112
Ag 10.781038767401364 11.526636136785198 13.13485236868643
Ag 9.629225999649439 6.312246156363612 11.665408446117013
Ag 7.769770380329211 12.517808711621536 9.48386688337796
Ag 9.091080258066384 8.244946811093584 9.691166082923964
Ag 7.3895561993445105 8.376616380522208 7.4466990529251955
Ag 9.593333711873886 13.421739025122614 11.342677602419363
Ag 10.418230132690583 8.88090166265414 12.173262781899389
Ag 8.899437605280701 10.65771262531423 7.792953530558026
Ag 7.628018682451425 8.330504194095157 12.044195685818167
Ag 8.164112197719646 11.062743541368311 12.001964720214069
Ag 6.88666964432975 9.927472235460375 9.7910807608014
