27
Energy = -55.05779894 eV
Ag 8.738990358347671 9.653444164270303 8.564713212032032
Ag 6.927205575784085 10.670030259771451 10.610747161219264
Ag 9.315365602968987 13.63833870962691 12.521550773024863
Ag 9.016319554365769 6.70531184431347 9.660836782954894
Ag 10.4827750267851 14.217912538222809 9.994720610634914
Ag 13.356717317241175 9.301648056170949 7.303862637246728
Ag 11.987288992027295 10.821826587361667 9.297043552631424
Ag 6.65720924742818 7.975676842310296 10.538619244746094
Ag 7.044057679677524 12.05361837826375 13.00908092897734
Ag 9.674599576924471 10.95923509586944 13.248888021885259
Ag 10.086938295435013 8.21954522421954 13.762489890780241
Ag 13.08060132679322 13.378310718984203 9.42314109582049
Ag 7.546789555532543 13.47271204139478 10.379899422847448
Ag 12.659908592294439 12.105520343840896 6.8117193116275985
Ag 10.073130643094064 12.385475540694287 7.853989498071226
Ag 14.198786239359617 11.28254822850603 11.214598500753757
Ag 7.323505348166877 9.257399245961192 13.126463926404254
Ag 12.044126136324861 9.741244099949565 12.25383480265309
Ag 8.217874745820234 6.663455649619091 12.421858941026883
Ag 9.55344332646942 11.623590564530703 10.472262148068058
Ag 11.823916128765946 12.523316495361826 11.889151721659237
Ag 10.70929178111356 10.006648067595899 6.616488745164363
Ag 9.367001702430759 8.966528605653915 11.17819928531043
Ag 11.473901870897565 7.1511864470304 11.307212965302234
Ag 14.773513689333575 11.343338265595 8.509327163659727
Ag 13.563594999521303 8.691692461169842 10.11535593716233
Ag 11.162998391268708 8.141474120102405 8.682242331665405
