29
Energy = -60.25071535 eV
Ag 13.420434366548728 10.20890609550816 15.12230430264423
Ag 14.491865428166257 10.672047830877085 12.582788103495245
Ag 12.0877355634386 12.52053112239477 16.001211594687618
Ag 15.42267471029751 11.378871008255429 10.120503011204107
Ag 14.345695380668195 12.852338001094516 14.315554754489801
Ag 9.455817065023297 8.329334428542715 12.9121555003792
Ag 12.203471190323407 8.979350035548705 12.840225332009448
Ag 13.208368842629891 12.938576895118159 11.087074365089057
Ag 11.941468461417342 11.757854042855687 13.298062934813974
Ag 10.478030565835564 10.121495425622618 14.967626972412027
Ag 13.505038843057555 9.292102034816972 10.305736701979104
Ag 9.798517203208553 13.043120761897626 14.542438606323985
Ag 13.188127764963728 11.470347609749693 8.532888184023395
Ag 12.208339977206087 14.529728745377001 13.542744510003576
Ag 11.058540087750892 7.910179113203666 10.487079476890756
Ag 9.059703816752913 11.071684041237594 12.642278511181793
Ag 11.154647702268178 10.8239503839936 10.662122684026864
Ag 10.203554113575803 13.483739037928158 11.8198302457054
Ag 11.794610564873157 15.475262172804804 10.897814644204164
Ag 8.674608772218036 6.558194279754365 10.828557603851728
Ag 11.182151606580963 13.286948645243339 9.053913027655085
Ag 11.571704692293983 9.250572543821434 8.054610473699768
Ag 8.53137390241271 9.334743738059533 10.409338209426732
Ag 11.148692640098371 11.65372377314218 6.666443100412996
Ag 9.281567988427472 7.610491874948032 8.294129324704983
Ag 8.561879260993758 12.080428068068416 10.00750723516851
Ag 9.057189129840738 14.896014792722081 9.726042831462811
Ag 8.950358789881879 10.350273174488187 7.8120662894268875
Ag 8.859905052344303 13.133631939287993 7.438040773325815
