20
Energy = -40.45764159 eV
Ag 10.1381095 10.1381095 14.684683744358082
Ag 7.779679361061022 11.610814966086705 10.679863903822959
Ag 7.88609761124753 10.1381095 13.02260098781716
Ag 7.856106674099314 7.29699031504 8.284602856336452
Ag 10.1381095 8.55155519227957 12.372321931070392
Ag 12.420112325900687 7.29699031504 8.284602856336452
Ag 10.1381095 7.174719139864167 9.932446870285581
Ag 12.496539638938978 8.665404033913298 10.679863903822959
Ag 10.1381095 10.1381095 10.0077367280507
Ag 7.779679361061022 8.665404033913298 10.679863903822959
Ag 10.1381095 8.719236965786436 7.537106574856511
Ag 7.764166816281832 10.1381095 8.241474879447432
Ag 10.1381095 11.724663807720429 12.372321931070392
Ag 12.420112325900687 12.979228684960002 8.284602856336452
Ag 10.1381095 11.556982034213563 7.537106574856511
Ag 12.496539638938978 11.610814966086705 10.679863903822959
Ag 10.1381095 13.101499860135837 9.932446870285581
Ag 12.512052183718167 10.1381095 8.241474879447432
Ag 12.390121388752473 10.1381095 13.02260098781716
Ag 7.856106674099314 12.979228684960002 8.284602856336452
