29
Energy = -59.64644139 eV
Ag 13.714125715901947 11.730492519725898 7.327091178151653
Ag 10.53753692103455 14.281153471483625 15.4198217927913
Ag 14.290329098677985 9.339647107819628 11.747576074749448
Ag 13.633675979349665 13.759283474199012 11.68183986270699
Ag 12.844580238098805 9.988094964339059 14.061079585931504
Ag 8.827807615235447 8.195542088051658 11.211024551783668
Ag 8.455572216566885 13.216672287223385 13.374866390483643
Ag 14.754259345140893 11.558737238511965 9.869341941182679
Ag 9.533337252272375 12.942361198212097 10.674816141917798
Ag 11.723581855274787 8.459673525837426 11.358203635905236
Ag 10.519920864605202 11.651172453298898 14.712617163394706
Ag 16.328808770136753 13.416515075355932 11.035407469891819
Ag 11.53489687848004 15.004094705620647 10.16107278455641
Ag 8.073338650173126 10.818865624080036 11.866033165330995
Ag 8.364173737546821 12.76376536755316 16.166539647905676
Ag 14.153689360765577 14.156651288557423 9.023986935382164
Ag 15.498514903409369 8.902724750615517 9.342294431214318
Ag 12.80834307063281 9.70811954054553 9.130675556011202
Ag 12.986597890114668 12.881285676008787 14.342214224170041
Ag 8.996040004885643 15.450071352814852 11.627911297075931
Ag 7.876659833395257 10.583092588053963 14.579152323002226
Ag 11.0725012434155 14.041478067029585 12.737603743960525
Ag 10.08753261603876 9.379693019237797 13.337884812596647
Ag 7.666869053340649 11.47079005372242 9.263384641342288
Ag 11.875080183723384 11.369589629218796 11.938486382358102
Ag 10.127810453781947 10.312212232819444 9.894607739267295
Ag 16.892485881962944 10.540489748842326 11.253733511414366
Ag 15.061570995983892 11.699966763396663 12.998482770881989
Ag 11.94049512159509 12.403531087490252 9.293853841503642
