28
Energy = -56.99458179 eV
Ag 13.40761202736855 8.242355980473032 10.099528134197007
Ag 10.939925874542936 7.047679787833603 9.256591220657048
Ag 9.25529779143642 8.371219079987588 10.926264370625535
Ag 12.860508196652882 14.011636212319932 13.830219726025314
Ag 15.884707931149906 12.389280242304364 10.663928783870318
Ag 10.918497451465795 14.072100254582441 11.87813247401583
Ag 15.289882535394879 14.146146211716111 12.68811314233377
Ag 13.918019405116539 11.652166487060567 12.494441386121478
Ag 9.454728555573395 11.508325964753674 7.526663168012862
Ag 7.411465259394929 9.846964941620984 12.425596298114927
Ag 11.10972797946887 12.165575525610913 9.770519910604907
Ag 8.60738677728275 11.270641305484082 14.652115694918
Ag 9.248473787312253 14.247208298251005 7.19010919095174
Ag 11.709561707897596 7.399214849196557 12.149404763882178
Ag 11.702645726601277 10.054597262109176 11.457503423042649
Ag 9.341975749345446 11.842913243871335 12.070415479287735
Ag 11.237672640375019 14.81338132126669 9.100838423601552
Ag 13.373767744595707 13.807358477043334 10.65422192891886
Ag 10.010012177207411 9.208585963600678 13.51284294283491
Ag 11.424834780520127 9.688805747991465 8.595903317010253
Ag 6.651574682561018 8.572277635360555 9.962221631550388
Ag 8.10977351127764 10.85856013417606 9.8311160056607
Ag 12.92245439138485 9.251373418048516 13.902602457628472
Ag 11.38143076697153 11.702576820242337 13.939239160606203
Ag 13.936958833168163 11.524949187626873 15.198869902529399
Ag 8.851577981958025 8.74313662976029 8.142840811120092
Ag 13.683650746671091 11.020579154759217 9.713645717982732
Ag 8.762631236053762 13.564016211355371 9.82160574767562
