21
Energy = -41.83189201 eV
Ag 13.740257718632781 9.712217139050798 13.0341294665441
Ag 13.995577781512452 10.718153493064456 10.468356168901344
Ag 12.051280693744197 8.711903833214883 11.08985054254236
Ag 14.267118913267026 11.731251273898119 7.855189995415153
Ag 11.110067363329577 9.226884894488604 13.747439441506296
Ag 11.816411709523637 11.49406568176895 12.144885194615284
Ag 12.367544478203097 9.705572140306188 8.416224130549125
Ag 9.342167849393467 8.161273006705803 11.846247121045128
Ag 10.251968923535292 7.946210099649335 9.153047147152531
Ag 11.795739541223918 11.937562468560843 6.735465284425029
Ag 8.431076020524864 8.730785708667765 14.462902326980435
Ag 12.111245247710098 12.557786480502548 9.491050691234914
Ag 9.859476288606665 9.916617380589066 7.160393366875304
Ag 9.842915027319952 10.53532453889812 9.968846183545283
Ag 9.103162045422108 11.013890381962291 12.915722577833565
Ag 9.58138394968445 12.822901704402273 8.262796123741502
Ag 9.818405825155317 13.056415329483153 11.073137345213482
Ag 7.601040149510887 8.745232856737497 9.717205190164066
Ag 6.834800796758461 9.40949170771626 12.363099080125997
Ag 7.504138080283903 10.996379168865918 8.12062024689613
Ag 7.360861081241152 11.70226044121083 10.793389124111547
