25
Energy = -50.27993745 eV
Ag 14.428835766460836 8.11933461167231 12.875634065584382
Ag 14.052599169936862 9.528770091703313 10.492800112768395
Ag 11.935512011861066 11.314159460752316 10.215262349341272
Ag 14.142526156376581 11.99131659662971 11.852698212651877
Ag 12.633489593367958 7.136054281263008 10.988875756277922
Ag 11.807833843918582 8.763873201686055 8.818313293045296
Ag 12.325088055203471 11.183600154686287 7.505450195656653
Ag 12.29068273776834 14.004776783395677 10.796990421746441
Ag 13.522959813171552 14.354129042199917 13.292087333749627
Ag 12.086846627490543 9.523276532100873 12.456199187889375
Ag 10.862477468403776 6.136742144309349 9.016652506569047
Ag 11.671631238430072 12.22821713934065 13.067559453963849
Ag 9.729474825401287 10.644322745473449 8.645345066815079
Ag 10.7645394043825 14.822058997026934 13.036458407265574
Ag 8.923334493706601 7.962589918866399 8.211896227394282
Ag 10.772440430845506 13.289944428226093 8.510039218180513
Ag 10.227769538214817 10.251652760478336 14.520422041479838
Ag 9.550440277234825 10.563638574832343 11.8614140925648
Ag 9.978216962269375 8.073910476357712 10.829362878255615
Ag 9.50577876332207 13.3377607506194 10.962263872727197
Ag 7.200855726809805 10.113629536553997 7.550205335906096
Ag 8.95636488507025 12.662813320725961 13.640069602827753
Ag 7.755323721909365 12.500339237690707 8.907179257190505
Ag 7.5990803089859496 9.488845510396326 10.209912305368189
Ag 7.12837646297805 11.866201176067678 11.594431584610184
