29
Energy = -59.75655193 eV
Ag 16.86780280317979 12.215684514894006 14.938238600876156
Ag 14.928141488536667 10.357632469535133 14.145474908660429
Ag 15.727281425715079 12.47675669722694 12.437039241227714
Ag 15.79627623211032 9.441370435423401 11.657437069639302
Ag 14.202093988788214 12.93267782742673 14.9513744645146
Ag 13.143771461493374 8.671134048902973 12.861417372873122
Ag 13.000079669214049 13.62939867402053 12.511898926335979
Ag 14.474983017410965 13.314388465047465 10.133679578048847
Ag 13.69798002449344 8.543218096919563 10.035158849389408
Ag 12.207740060696565 11.17117234110632 13.99993984934089
Ag 13.537686648286744 11.006145909929534 11.438377729794162
Ag 11.322840226931481 7.373480075347525 11.217324069746441
Ag 13.386351443082473 11.031071969373588 8.64549775614363
Ag 11.502371659853685 13.776694940897926 14.931561968828277
Ag 13.17160575216614 13.68352259868274 7.716326628327755
Ag 10.35630400722906 9.558773765623922 12.673585432334363
Ag 8.830873705276309 14.651972588722606 14.77650297573769
Ag 10.271728813606606 14.577333539885172 12.416239723679643
Ag 11.773445672230595 14.355746971987871 10.055391422705313
Ag 9.507130461863351 12.063771358584264 13.919679110957546
Ag 10.835756541707056 11.997674746436559 11.34246029362414
Ag 10.854656751398936 12.271862188397568 8.374569436258426
Ag 11.151658838674923 9.710031546345702 9.694647468701419
Ag 8.750915839666225 8.52412848977419 10.573875669168276
Ag 7.58283942888184 13.719575581333649 12.43723808978056
Ag 8.975325725366407 13.65020844260623 9.943697847522968
Ag 8.007618116245277 10.902885177612776 11.875140490187233
Ag 8.58780150934785 10.952515285954595 9.159650487773632
Ag 6.465354766680058 12.467724589684007 10.189666974349027
