26
Energy = -52.86907174 eV
Ag 13.147451038007306 9.476484913794966 9.931268549049571
Ag 13.277387097871056 10.138173922148294 12.615659267639332
Ag 14.2467269070576 12.136794779350625 10.800640885167063
Ag 10.706200580094794 10.003796342093331 13.692015987002943
Ag 11.719884826713912 12.423638472263619 12.443334425742908
Ag 13.636568069217548 13.785090453199347 8.560607736982247
Ag 10.98063456788067 7.856628176600015 9.16905161779584
Ag 11.70034467081819 7.939592994962045 11.93185366356433
Ag 9.665111031720858 7.3656199362815435 13.832366579443935
Ag 13.621237931055393 11.175413823916205 7.681267524034983
Ag 11.97763682101761 14.585696678344199 10.600022520219763
Ag 11.837392996157481 11.964569218658243 9.668855565823657
Ag 9.946175598987542 14.610868096278994 12.688823989884268
Ag 10.146374186349853 10.158461908883211 10.82800296654921
Ag 12.97102645702393 8.346081168555049 7.354604564423261
Ag 9.022915984547863 7.403291567380255 11.063102558636706
Ag 8.951901536583264 12.061898976424528 12.762208499102671
Ag 11.01845854103607 13.29288859659943 7.522747876414217
Ag 8.035826128525253 9.458923255153776 12.810059428308351
Ag 9.44153433237348 13.27043475350149 10.276209862561943
Ag 7.052722510658018 6.873656663400824 12.939401376824998
Ag 8.425421360324119 9.058296003086058 8.767891698305052
Ag 10.909220772859461 10.223737283011149 7.663774028353391
Ag 6.421357566431761 8.465603423737754 10.71174736994379
Ag 7.429108399508551 11.129028176309463 10.529568625153438
Ag 8.671911910577524 11.755862239464827 8.1154446564724
