21
Energy = -41.1917939 eV
Ag 7.183827585137844 8.951470671891185 10.205983839315527
Ag 7.405519390473324 11.406675829215537 11.542499338762669
Ag 7.756025841913128 8.916026305618185 12.918958882208594
Ag 9.197184632946394 13.308981954153028 12.744987670646022
Ag 9.27136889093205 10.70897471971755 9.48908283912005
Ag 8.818832741991427 8.173512209737941 8.142487347280957
Ag 8.651117768399258 13.404472791260277 10.02760150373637
Ag 7.8652175186195326 11.37154703151661 14.335873463519935
Ag 10.173031710572198 10.311199104517252 6.95068192881249
Ag 10.373375442294543 12.915093533498984 7.9449676174482295
Ag 10.389755217943256 6.143811497013165 9.410863226036577
Ag 9.820930906616224 8.284289370608398 11.062531605178606
Ag 9.915367099694251 10.625757289450476 12.640103992293696
Ag 12.404541624204102 11.051129004460229 8.60235462315086
Ag 12.860734477838486 13.70223604962862 9.127035317773357
Ag 11.18384779516552 12.437730281779253 10.907576357755442
Ag 11.582280699600956 8.501809702130496 8.678352353731167
Ag 12.2160526260657 9.814698911453197 11.523855355854817
Ag 12.50292195627456 7.137239283174605 10.997380426278582
Ag 14.017518991429203 11.76575496308519 10.839782698325479
Ag 14.145310865809646 9.118847132960822 9.719935665008475
