23
Energy = -45.86243318 eV
Ag 12.814558661799083 15.70840379919452 9.597419023725324
Ag 11.243966627813027 13.40173272626782 9.345741574294157
Ag 11.407551376837317 9.47690062928778 13.532703097816343
Ag 9.71109961325998 11.653737141183795 13.890754867707802
Ag 12.087356031471597 6.332464470694733 10.191516583420478
Ag 8.607061489840817 10.288258466198787 11.758052197678243
Ag 13.63354897023913 11.122058746409426 12.974499782670279
Ag 9.662129597724116 11.058900848955668 9.18343302698344
Ag 12.929057213876309 8.95267143414088 10.964781266383818
Ag 12.466141920204002 10.86569951718941 8.741745497899283
Ag 13.925715223757436 13.241551494533754 8.55874311759206
Ag 14.61816711350254 11.16944732955064 10.407427958193418
Ag 7.239710538625729 12.467130334269749 13.003264055872634
Ag 13.406918299323609 13.521024965941015 11.298791441961614
Ag 11.884338140985715 13.260936407347891 13.61108336711745
Ag 8.292969240068604 8.673013864966979 9.501869003297617
Ag 12.33610675543838 6.955321510565495 12.890839425417942
Ag 11.382562806695518 11.32795897386031 11.417821065880217
Ag 11.055972848335276 15.20830850122738 11.644549128828748
Ag 9.184072550330926 13.07880252571754 11.205391241433906
Ag 11.048081130692358 8.51391418702026 8.813767398972512
Ag 10.203605927055497 8.009133299649784 11.441055878808228
Ag 9.315204484810465 14.47845703664092 13.650962964487922
