24
Energy = -48.54760297 eV
Ag 11.61492585200717 12.338455718493385 7.694643775782179
Ag 14.107443230571558 11.178712068960136 8.083692150803005
Ag 11.366786820097927 13.984197383807423 12.249710425813984
Ag 12.973325635547337 12.904363285056759 10.110507324176648
Ag 13.275878334296527 11.84883218583647 12.757864205683571
Ag 7.436046099895206 13.034374400193844 9.372560136542377
Ag 9.230628787046145 11.115218898924786 8.423961699989873
Ag 10.720640196803963 11.727142250249017 13.949064809689437
Ag 13.379000542486564 10.074574050200058 10.530313225257881
Ag 10.144105243570774 13.625152264409952 9.689839083868462
Ag 11.813279770450142 9.590405243033066 8.20184417333545
Ag 10.929884240993102 11.416327851232253 11.19343269187137
Ag 11.892845825090083 9.223999544914856 12.751667289499785
Ag 10.10313647302602 9.024788983319807 10.242967789661787
Ag 12.323259272691535 7.479399285737444 10.426174765426284
Ag 9.275445409872894 8.380490124753123 7.6810755518088305
Ag 6.752149284703653 9.414869166093624 8.2953820981757
Ag 8.702685895219002 12.795781817214376 12.055233353730332
Ag 7.568520426768943 10.640223891826016 10.643781623765483
Ag 9.104293905513572 9.751140337684419 12.752036333091137
Ag 9.655948350646918 6.2075244932609195 9.470872220942068
Ag 7.196959263877099 6.604996130353663 8.075265573224833
Ag 10.090115843805782 7.062871838867589 12.162880087141417
Ag 7.649814901768359 7.844358983250235 10.53295672802575
