20
Energy = -39.30665838 eV
Ag 12.002070381959362 11.988884831931047 11.212302336354183
Ag 8.004059618040637 11.988884831931047 8.793827663645816
Ag 9.216897745356908 12.853198057297927 11.1464033735811
Ag 7.929855430038423 7.8933617154837465 11.145555505417832
Ag 10.001997455435378 10.002403429768304 11.315850021551437
Ag 12.076274569961578 7.8933617154837465 8.860574494582167
Ag 10.724814285106438 7.277787247554616 11.213263925197879
Ag 12.867239794794887 9.262735175334496 11.145135873723847
Ag 10.00413254456462 10.002403429768304 8.690279978448563
Ag 7.282599412461936 10.742154471248206 11.213581330086184
Ag 9.281315714893559 7.277787247554616 8.792866074802118
Ag 7.13889020520511 9.262735175334496 8.86099412627615
Ag 12.723530587538063 10.742154471248206 8.792548669913817
Ag 10.78923225464309 12.853198057297927 8.8597266264189
Ag 11.567137510341922 9.3448599810325 6.5538715799842455
Ag 9.781812044361185 11.68875220831189 6.553802335849738
Ag 8.648303451958975 8.976512882036841 6.554612869729129
Ag 8.438992489658077 9.3448599810325 13.45225842001575
Ag 11.357826548041025 8.976512882036841 13.451517130270865
Ag 10.224317955638817 11.68875220831189 13.45232766415026
