24
Energy = -48.54539856 eV
Ag 10.409622083577542 12.21448918414439 7.654393663607953
Ag 10.812972716145593 7.911211615780015 6.060083619709662
Ag 10.215363353017946 13.835507924231225 9.912408504539194
Ag 12.398924379867308 11.932507524832 9.557683712758157
Ag 8.456699321054714 11.595350542886537 9.522621627743609
Ag 7.982416320578657 13.372289428903912 11.632509589936053
Ag 12.514067748162914 13.89071230191275 11.627986081471063
Ag 9.163782285172054 9.704777687036088 7.4511028799223125
Ag 12.042688048605715 9.899989329084992 7.563836586877316
Ag 10.150046693464274 14.654591433132378 12.819063034735416
Ag 9.932336225274067 7.26868252847411 8.625010871483262
Ag 10.582912929410057 9.699440951780376 10.066827183444861
Ag 7.916947513355349 8.833747674405666 9.90900036653253
Ag 10.503899470648426 11.851657526971982 11.877548280965351
Ag 13.472811575205354 11.332190268907773 12.072718137258827
Ag 13.394514074866056 9.311018218814354 10.046017250843226
Ag 12.678317934658342 7.21901638262224 8.109871455281722
Ag 8.855217588914131 12.618769278870813 14.186254830569888
Ag 7.994670522791775 10.545260256443598 12.147653213446679
Ag 11.749986446971302 7.061728136542133 10.715549374185674
Ag 9.492956536968329 8.132411828028392 12.169164121279461
Ag 11.757779908763881 12.51814535928856 14.187319680126622
Ag 12.088585144268496 9.073308114167176 12.605262594037384
Ag 10.035096032600647 10.126521969473995 14.109397531959903
