28
Energy = -57.63527437 eV
Ag 8.610608517646384 8.926225090726216 15.564384576827512
Ag 9.985670690207051 8.307531917504576 13.235689599064736
Ag 8.842452213510379 11.052774202930234 13.829750709279558
Ag 7.252963029265171 8.849293500325006 13.057588970810327
Ag 11.183886305965299 9.996123473397201 15.12698668019838
Ag 8.866367684307605 8.475611893953719 10.682410632439666
Ag 9.306122518112138 13.212567700230984 11.991381778321834
Ag 7.635020218822977 10.943207291561254 11.236967741242518
Ag 7.908049049972934 9.995439953717474 8.505402875683144
Ag 12.68190465773498 7.9308940629191955 13.785431070025108
Ag 11.165930742757395 12.576251110199568 14.046580831899124
Ag 10.523610601929146 10.770599945699002 11.464663758669388
Ag 9.147040965219501 12.319497577664405 9.351196104082542
Ag 11.155667099545315 15.124341720867601 12.60643871536852
Ag 14.416199944891442 8.525496591618616 11.660079703663634
Ag 9.83174635716036 11.49785235147747 6.835122081628526
Ag 11.733304189612959 8.261614559088954 11.04216797916355
Ag 12.986757570242922 10.56083501963238 13.03869450859509
Ag 12.115714033108146 11.680790771375381 9.364028308192662
Ag 11.001827677826668 14.339585251922571 9.821676088403926
Ag 12.609218747196277 12.991506777268002 11.719353040810107
Ag 9.474060626885526 14.294597642457935 7.433944604961687
Ag 14.545286465698247 11.181333628498999 10.743331813516939
Ag 10.62933522668279 9.39287030392096 8.676553674808023
Ag 12.422137832637985 10.529083219929472 6.778371464010442
Ag 13.528292519709598 9.217340178524218 9.02113556643426
Ag 12.054909254755067 13.357634448303513 7.21645714813185
Ag 14.523824475841474 11.88987143531779 8.031656348755218
