27
Energy = -54.79795433 eV
Ag 13.839139747198178 6.106031827885334 10.48494703799683
Ag 14.034274234285823 8.492541177434278 11.812658972668496
Ag 14.009537103946458 10.486722811903386 9.8488732087694
Ag 12.479860373818243 8.234256873067709 9.389515082183788
Ag 11.91754098941154 9.094754587779658 13.686507586255868
Ag 9.853405098897317 7.19324884480277 9.795249593943181
Ag 11.616428187853494 7.0269181461401695 11.871265352047935
Ag 12.105920607160376 11.53457985716729 8.095726841590768
Ag 13.591727691274752 11.12680788196414 12.522118083323008
Ag 13.005616239330255 13.012231907528294 10.397365372826615
Ag 10.375971445432086 9.381395750150945 8.04049639986648
Ag 14.816321012994822 12.925047536946163 14.282760110650647
Ag 11.158475092137197 10.64820515648074 10.578215827533413
Ag 11.02937186538416 14.043000764881318 8.640815427692711
Ag 12.554527672281555 11.506612880726461 15.071193244306096
Ag 9.471788110885097 8.834524050030277 12.122016134933315
Ag 10.506389506769784 11.417105333896112 13.235063855443137
Ag 8.1062193265923 9.325225239300476 9.551790325703768
Ag 12.425999261318742 13.632958058271436 13.107222671241496
Ag 9.19523331491506 11.848436439287845 8.75131566946779
Ag 12.01011845784879 15.55508723799247 11.106428932805732
Ag 6.644814183414593 9.354163378592862 11.860957741823015
Ag 9.461403784271933 15.866318967379655 10.041424919000402
Ag 10.23436291832934 13.435263143059675 11.256161683583105
Ag 8.367640802680196 11.418228111095688 11.486608125724604
Ag 6.274457590832913 11.43601761121226 9.662270128125694
Ag 7.643302077331917 13.794163121618457 10.030878367088865
