25
Energy = -50.22056318 eV
Ag 11.424029093313754 13.191328811721574 12.418539593835252
Ag 11.970806319702682 14.539580731362332 10.037202716097081
Ag 12.728611470481729 14.237658364519511 14.641356093975949
Ag 9.48358851001742 14.953708163874149 11.487683474476977
Ag 12.434318507554414 9.999579945400027 6.858407291383913
Ag 9.86566219995227 14.572347852429406 14.268630685113694
Ag 14.608559964224755 12.19680089611458 13.935612022135201
Ag 10.158436435782802 10.461524003302532 8.321481782033809
Ag 10.722048170972075 10.61694337472067 11.07239751712384
Ag 9.800814153278042 9.546230894247609 13.423848438131172
Ag 12.368748802097109 10.557040866337797 13.644127214562149
Ag 14.017114940433709 14.355584159312592 12.13986110257293
Ag 13.389659390975114 11.76366331213443 11.142015066390252
Ag 8.856228236233028 12.254500961741263 12.501692833202679
Ag 9.729247649449107 12.816644393093146 9.734887894218316
Ag 16.046757473278447 12.380352445562355 11.557100810708432
Ag 12.836243660763062 11.826886255039195 16.170783043552145
Ag 12.839007347499088 9.547640832184317 9.532365092479765
Ag 12.108507216890592 8.378415215565926 11.999785203001862
Ag 14.714246588338042 9.755947844845453 12.37422298749934
Ag 14.564935135075963 13.573860589382997 9.434868652086402
Ag 12.303150362427077 12.197205853933998 8.538748469060383
Ag 10.334080111406529 11.887066528286399 14.921274532161194
Ag 10.974228446492274 13.878268550933623 16.74946140219309
Ag 14.891512963751588 13.681762304344929 16.26418923239495
