29
Energy = -59.72972463 eV
Ag 11.110799241125923 9.018014689759553 8.833045252703583
Ag 12.291084554976578 9.056531325143919 11.44887228888292
Ag 8.631437704652893 8.06045151542513 9.944999475766089
Ag 9.722056695330227 10.440174595067006 10.88081016911341
Ag 15.601547021741627 12.846672170762957 13.335540944501204
Ag 12.797050368064552 13.174342318594142 8.589924755943546
Ag 8.412507960951222 8.889433167686681 12.817646306014016
Ag 13.074077429614677 9.122375991067878 14.18932278819701
Ag 10.875831273282719 7.5742230188277935 13.30841787323832
Ag 6.911798194259903 10.232625134705065 10.832255771061032
Ag 14.531131025373146 10.548675180888296 12.180455824101019
Ag 15.5848150304318 15.206244824686447 11.78521124928388
Ag 10.688390910884728 13.32822879988971 13.403597987955093
Ag 8.557617387248607 14.562645810015308 12.109460498038995
Ag 13.035976001049887 11.913031076430967 14.165846674559035
Ag 13.096753966269915 15.192799133024826 10.430267609216237
Ag 10.666234002011738 10.481942116969064 13.594894093770929
Ag 13.259007474650543 14.469818204739827 13.136592386931769
Ag 8.850137793225716 6.21440436704333 12.095631215285033
Ag 11.018909726537466 15.903683033462322 12.224531051277241
Ag 8.259515552820362 11.824659468833895 12.832811416783704
Ag 8.087958318095039 12.630325849366372 10.109723145257897
Ag 10.506355388083952 14.162317004887583 10.116589891495677
Ag 12.05402240011398 11.999488897222818 11.318459072090143
Ag 14.727177474935736 12.881838382305668 10.631035343642361
Ag 10.373909160991444 11.81077645434324 8.609481640213092
Ag 11.046287497618918 6.75851831177244 10.483060983626658
Ag 13.543316064155437 10.544215844719005 9.436700132194362
Ag 12.353676134375286 10.826627435145179 6.97909782297094
