29
Energy = -59.40009111 eV
Ag 14.9625614502542 10.88057296557153 8.368677621407231
Ag 13.904837488884711 9.582595237252592 10.800789045264949
Ag 13.67812509828673 11.399382342572023 13.015575341222632
Ag 13.315760628557943 6.936843238790046 11.53630818354392
Ag 12.510774033470817 13.862368161080063 12.264399618799306
Ag 13.798289133555267 12.40016740001543 10.348418435016464
Ag 12.250569084922484 10.428598363013545 8.712437702843388
Ag 13.098513666524276 12.897986116587203 7.691640164109168
Ag 12.598325244984352 15.003761921512218 9.668213907577558
Ag 11.692007303789753 6.307402540096152 13.640485214406405
Ag 12.192631117806412 8.96906371339091 13.043143434873864
Ag 12.251272100354939 16.600578682139062 11.908336097567345
Ag 11.32733912166081 11.240534252552548 11.547937505942821
Ag 11.053119964098725 14.656758967466168 7.291206874633163
Ag 10.12649586744709 14.945629989083018 11.30551482711652
Ag 9.944498364899559 10.33924255221537 13.830578269732895
Ag 11.270784675140487 8.418183545931052 10.357461649678873
Ag 10.274892535892224 8.66977698620633 7.683617224799884
Ag 9.612444510303812 7.805101403420623 12.636822886684374
Ag 10.505783337574172 11.626035956933308 6.949483510841207
Ag 10.737883779772552 12.966791856828365 9.404755738683953
Ag 10.11587121903056 13.14849479663925 13.543694078936966
Ag 8.67766708491642 12.50228642458964 11.260812229477967
Ag 8.593604764015936 7.848605729857289 9.838044746346947
Ag 7.5796003884011425 11.73062719925866 13.755420191517524
Ag 7.818238932348209 9.880911612029132 11.63271455484352
Ag 9.37581061121069 10.53559194665149 9.427765063894283
Ag 7.511294149127651 8.935146108420211 14.240236699549135
Ag 6.980064806527006 7.2400204536552355 12.054569644446357
