26
Energy = -52.82164011 eV
Ag 12.365376533175818 12.254587221616738 11.194219959440947
Ag 10.427008585791175 10.517474221109506 14.790057773808092
Ag 10.161083691403258 8.619859994374822 12.4543361956259
Ag 16.62934519917374 10.934403070383878 11.074971052007626
Ag 12.60763226330654 9.983756332931925 13.087762154553204
Ag 8.000985065224615 13.659109676725052 11.32798654995786
Ag 10.635915151128424 14.36171459800204 11.947853418543833
Ag 12.580509589528225 11.759654946510334 8.449359295322996
Ag 8.55614094774411 10.024398818067406 10.212535190214435
Ag 12.015064181022607 12.672941440217924 13.883024143610422
Ag 7.955182320514011 9.531579525459664 13.882039355306938
Ag 12.779013766470198 7.801303998853281 11.386564745988403
Ag 13.504170946318714 14.506421652138178 12.137476190446488
Ag 12.290353767296049 14.465297828961955 9.50653805654103
Ag 15.171649832246171 8.880598709601953 12.479062140851614
Ag 9.438187540982158 15.29733146554716 9.627293603548333
Ag 14.654181093605798 11.886809628069214 12.763254540846386
Ag 6.912557901780379 11.334693878019085 12.149863671883255
Ag 14.796071526440755 12.990825167250982 9.944920430493752
Ag 14.137808588232009 10.169511244176823 10.29202984119143
Ag 10.233775323305922 7.623505969525448 9.738855336137908
Ag 9.752182041214633 11.429759054362371 12.25173918156776
Ag 9.183687914556932 13.212599959914126 14.162719195918966
Ag 11.378395018414869 9.948983322735694 10.255307276407454
Ag 10.169904426724798 10.219138170254551 7.851517326558993
Ag 9.951958799696992 12.527612292551005 9.577403243064742
