23
Energy = -46.44818773 eV
Ag 13.55379671733651 8.967577855550395 10.7691220891665
Ag 10.655488797662112 10.726143190092245 14.250341157292876
Ag 12.842991272660788 11.197301716604349 12.456224017165496
Ag 11.255897694174433 8.918479619825092 12.315324814376343
Ag 11.92844255360413 6.608231404193366 10.976115961119547
Ag 14.925269158351862 11.383329800981059 10.507231976140012
Ag 8.698673730101136 10.348266632289503 12.207117877937723
Ag 9.139585235661833 7.601780961399816 11.107248767231443
Ag 14.424123434546011 13.01179411913908 8.263655279281501
Ag 9.012544323297536 8.24048013800854 13.927664689634142
Ag 11.082559119577498 8.64029305096915 9.387585827305161
Ag 12.755791931482376 13.160799112721737 10.473361431460926
Ag 11.63884511021533 12.959925610019477 7.81488660686963
Ag 10.5937504925788 11.306375755226956 10.091605049175117
Ag 10.478405931557162 12.785082735665483 12.410023893522034
Ag 6.7353427841378455 8.33172661374811 12.316060866451371
Ag 13.02040470323113 10.616066727020266 8.584507574746722
Ag 8.338705216506005 9.815435604925364 9.383989581901771
Ag 6.121035687993857 10.580653297290825 10.927444214810851
Ag 10.159656628995224 14.111709265308132 9.947348137319075
Ag 8.734236362241505 12.441715382301432 8.13259082056745
Ag 8.019908289911164 12.610803991297047 10.827133269320335
Ag 10.429571843295697 10.38830637579707 7.389643146699755
