25
Energy = -50.49903225 eV
Ag 14.797608158176518 15.117885534875233 10.55640700610122
Ag 12.157761545529759 14.705274700542109 9.701644948078043
Ag 12.741626245135308 15.247634686589143 12.419631788081741
Ag 14.94026772269238 12.802953127025214 12.150208812489355
Ag 14.213960365259611 12.608344056910548 9.462135042196214
Ag 10.009347649015153 12.82436790875448 9.672247231721219
Ag 10.030923034706495 14.702683263069067 11.784545555178596
Ag 10.975838729203927 13.206130754433946 13.995120928167355
Ag 13.869607304808085 10.341115262459 11.076832994832378
Ag 13.072470808735414 11.123762190428103 13.685596878807111
Ag 12.13967255804657 12.615382056721392 11.48551611478073
Ag 13.738522864586958 13.751878278412983 14.453330883213551
Ag 7.602442770505715 7.992515083261166 9.954639470711799
Ag 8.17090281352071 10.740163410580404 9.903708815040446
Ag 8.286347105638383 9.35096267010982 12.352229062067508
Ag 10.062026671627281 7.4209231685957775 11.18985530745137
Ag 9.948992283154116 8.832349627981504 8.736320314829564
Ag 9.496822610854975 11.222368490482259 7.45825315659258
Ag 8.958836678798791 12.190028936639427 12.274748370875773
Ag 10.382404077516666 10.439630152694003 14.013953292419362
Ag 12.436957179908731 8.304278133552835 9.91238018702142
Ag 12.313386425819571 8.581785221100665 12.796588687359117
Ag 10.734908976666656 10.229846513090896 11.185938835188496
Ag 9.87354968007083 7.661594562051346 13.937818978702365
Ag 12.037185238332953 10.978511707950268 8.832716836404455
