24
Energy = -47.9415731 eV
Ag 8.966274156088662 10.360396434710085 12.640388659134857
Ag 8.060134753651127 8.050622466834003 11.360059401660212
Ag 8.512384842647032 8.34353089674833 8.629247038893789
Ag 12.856581195144582 13.020375634188671 12.735172471755291
Ag 7.703599996686001 12.704854741244334 11.791133478802688
Ag 11.649182311087412 10.525870663380985 13.106113124180649
Ag 9.705511607969935 6.2977607121647425 10.02750632438339
Ag 11.655018516640466 15.05661078141425 11.327593655042685
Ag 10.556858400340738 12.090781666044892 10.821951024947476
Ag 8.132558378550389 12.99417528361189 9.05772457509536
Ag 10.488909831632682 7.774675862960308 12.795802933808517
Ag 11.298810776297037 8.305393488674888 8.059135277440653
Ag 9.718103780049217 10.84052272877706 8.253707289779738
Ag 13.673653792055626 8.667247217238527 9.567330810688263
Ag 10.873382627473656 13.615205705379667 8.613619566981754
Ag 7.60867979570086 10.491169704791469 10.128856002721497
Ag 12.394378357385802 11.007539335992442 8.747356240711987
Ag 9.04101808848365 14.905198274903745 10.811153769506678
Ag 12.321139317529887 6.4689407260566165 10.524542880351094
Ag 13.776452752536056 10.869902256837788 11.246146925057218
Ag 10.79040378383255 9.242269962517268 10.545341376073013
Ag 10.074537543391878 13.080461660015605 13.29373326126089
Ag 13.224693516947557 8.364322532817607 12.295126927298755
Ag 13.320125151664135 13.309199869235284 10.012070952828678
