24
Energy = -48.39308298 eV
Ag 13.443561581986632 10.246150460912705 10.507016949573208
Ag 14.886964713756962 12.148127086340885 9.182573123648734
Ag 13.865453685225486 12.745450298350226 11.758725851721783
Ag 11.426894922906131 8.50590247701201 9.121894425740448
Ag 12.243801603742451 8.159595778116685 11.822384876232173
Ag 12.102261381434444 13.016664909182314 14.536409267890829
Ag 12.475508940857086 10.643263964406358 13.144384359573518
Ag 10.589026020822931 10.485922574087867 11.020326969086918
Ag 10.528053625833135 11.641513959095347 7.434705352962759
Ag 12.997262324675429 10.491334576931434 7.739925005726685
Ag 12.184418931390672 12.634378140887446 9.467436594054043
Ag 11.149169052894079 6.0184423878857745 10.594803881870483
Ag 11.047028342882374 13.16013633401585 11.976465719772321
Ag 9.882112959126045 11.519597319450728 13.97039673657313
Ag 10.196342263887702 8.775309678088892 13.558316575680765
Ag 7.76552197324925 11.97178191336573 7.567338575677427
Ag 10.700239953754366 9.10085540353059 6.514325230089198
Ag 9.268938070801925 7.962564305620332 10.961114949685454
Ag 8.029683223167932 10.104201584093357 12.384749361558349
Ag 9.399318942220447 12.727957751704645 9.710976371048037
Ag 8.879603651751594 9.694725862066786 8.75523911264351
Ag 8.144791055393634 12.896834549892137 12.224988887552431
Ag 6.54802018445841 8.686572221437055 10.595751918298923
Ag 6.951778522312123 11.3684723920545 10.15550583187012
