23
Energy = -46.22771303 eV
Ag 12.825294137778252 8.206148470026044 6.888563362878305
Ag 10.883036483358197 10.161189738131572 6.4805706238656775
Ag 12.911843413627775 10.637498150468186 8.446517203018596
Ag 10.60037554366691 9.139676845076801 9.138014824448542
Ag 11.284589560844804 6.491718761411011 8.46228691416756
Ag 13.273411770532906 8.030737338034864 9.650816841776715
Ag 8.9284643616078 8.15248354819167 7.165850961377416
Ag 12.307915084829244 10.114570300673828 11.221214714790861
Ag 12.532419705304363 12.721761867961316 10.282397974831914
Ag 10.394951597768795 11.95806531493105 8.590548694826712
Ag 11.062609553404522 7.471947882362544 11.369185227926359
Ag 10.65031424171916 9.39245987854461 13.36093718618762
Ag 8.843915348160857 6.895447578784156 9.74897790640903
Ag 11.241346746525878 12.187796113341605 12.800060642922144
Ag 8.365407569679927 8.370121610505565 12.049843276487193
Ag 8.223885807880576 10.93062652537397 7.095247281855792
Ag 9.922208819948896 13.680311440173181 10.721507332390793
Ag 9.453545912724897 10.850867308387409 11.19112371120289
Ag 8.227268192808271 10.700049654349634 13.846454376213623
Ag 7.782648954495254 13.010691263357751 12.364217417532789
Ag 7.693349537303985 9.418180561796925 9.378595365152055
Ag 7.71532833545934 12.28828206051418 9.499604092169632
Ag 6.5918043043746275 10.599824110868301 11.620350087324095
