24
Energy = -48.46403419 eV
Ag 6.808336674296624 7.3027390203064275 8.27812181060619
Ag 7.263629884254394 10.216460748598372 8.470936029330941
Ag 8.648989611171364 12.80089194322181 8.922578411000922
Ag 7.26425506774788 11.479987338896759 11.0331386592921
Ag 9.41414765614964 8.22829912807466 8.188142865912857
Ag 7.658930902034093 8.459773380013557 10.686276368620993
Ag 8.084079398362801 12.318559409917208 13.706000341100054
Ag 9.043331002799809 9.902537238705408 12.738186148434679
Ag 10.055434108031596 10.859481843460067 7.286319258682729
Ag 9.575850014522112 10.426241591900814 10.00728018139015
Ag 8.873457508065941 5.953772104607636 9.598493859186908
Ag 9.78494936113628 12.796768791812836 11.605279719968609
Ag 12.515759184022386 13.246022466459301 12.190983192518846
Ag 10.467655082620631 8.023065284224373 11.21338893162357
Ag 10.739419046348123 13.540001891647911 7.045840395468042
Ag 10.923917823415753 11.7139354491012 13.952786360405609
Ag 11.563907573053788 12.473163546056355 9.50023760774667
Ag 11.571254620304614 6.515996010752679 9.228593591112821
Ag 11.919802077874666 9.343434620541215 8.860131520344257
Ag 11.507491071678936 8.954705372233404 13.777584360287033
Ag 11.957753629860465 10.569017975515024 11.59755509068075
Ag 12.831272107040848 11.549818487114196 7.2434086133006605
Ag 13.267338261943417 8.166102782415491 10.97818902272953
Ag 14.00804571594587 10.916503278470984 9.70103827878788
