24
Energy = -48.2274634 eV
Ag 11.01714878473053 10.871706798982473 8.182492999274464
Ag 10.979862312558426 10.868435444205014 13.772604670089741
Ag 12.501197030007328 8.880392606678956 9.472316252768866
Ag 12.449489420612819 8.88480390128972 12.492076603085435
Ag 13.3882844322807 11.608826310292075 9.461682182053773
Ag 13.369000716044912 11.675044516395294 12.536321464626438
Ag 10.961583816615187 13.383504365855945 9.447735735071848
Ag 10.954137279617294 13.378696965004897 12.545189626748876
Ag 8.602330947107165 11.624898490563782 9.451225530454204
Ag 8.621013594598297 11.625953350785156 12.503123805558221
Ag 9.565638079199626 8.890032408533411 9.460718287839027
Ag 9.54476154012911 8.844169640250525 12.442117205057826
Ag 10.999290131366017 10.932690386685776 10.97613091577823
Ag 13.806181546313992 6.993126254289761 11.037744206900923
Ag 14.758359345056403 9.660850924283908 11.044920547866733
Ag 15.56971658317428 12.362655502135224 11.017803092277667
Ag 13.33881991784341 14.031347895019499 10.848855703346628
Ag 10.925715663922002 15.696750727698051 11.014010151752272
Ag 8.66065547782352 14.025001727133326 10.996823912664064
Ag 6.401510161243478 12.325619051820558 11.017084628543826
Ag 7.246378965886034 9.637670142477075 11.018423194717705
Ag 8.176088414996123 6.9899210431618295 10.8370287988321
Ag 11.008020922896243 6.90784978809825 10.912409752102981
Ag 12.73870888996178 15.428132949422883 13.086325147833374
