28
Energy = -57.68647658 eV
Ag 8.153039549624355 12.611603889694155 7.397045923758039
Ag 10.810565095961612 10.915814125545234 6.38654562806644
Ag 7.03154158575675 10.117771596076459 7.642292364806229
Ag 10.75847967204404 13.440192958517892 7.97601856309277
Ag 7.270977769273035 7.584092804303157 8.759738998714457
Ag 6.129319113241155 12.136546159982267 9.327726094888972
Ag 8.723157441677587 13.226591188172833 10.098741741379882
Ag 9.384045097790608 8.626924333247363 7.274644893408734
Ag 9.88192026573116 10.921366494587245 8.905973196812628
Ag 12.832934725061572 11.584274444324931 8.398308381472154
Ag 12.005275819630493 8.81368092763307 8.147318548145298
Ag 7.13465212322826 9.806460413473651 10.432773812717992
Ag 10.601618047987788 6.390755748736932 8.614057652460477
Ag 9.649178490511872 8.370067212505537 10.201527304664545
Ag 6.993997576205738 12.139924040091094 12.004916352460727
Ag 9.475972744823569 10.802400909051402 11.707653782293011
Ag 11.472263626274632 12.85804302215719 10.683031967165437
Ag 12.0128844042894 10.102216618541275 10.636060201987847
Ag 14.438603407196862 9.312744667975918 9.627998387921147
Ag 9.60499773764977 13.21805363031299 12.88979201033706
Ag 8.426094075331855 8.413346359611925 12.724777848309623
Ag 10.21127209127496 6.2485470234034635 11.904355182143558
Ag 14.152295652889938 11.769943240365336 11.156596241601264
Ag 12.491620131719332 7.379984910040681 10.680936809591104
Ag 9.708499214953596 10.564393279762774 14.42033207247378
Ag 12.053183812456627 11.383389251672108 13.121277599990798
Ag 11.245429988405727 8.608792225009129 12.983741323672453
Ag 13.9346277762562 9.239644403987414 12.45532443690099
