28
Energy = -57.7229817 eV
Ag 16.482463591871813 12.132218441335128 11.472076802619862
Ag 12.886311832560066 11.023219732729189 8.278564903375278
Ag 7.618789219354408 12.051321623374484 11.266583698969377
Ag 10.611427251556382 11.778545525639528 15.291447760558745
Ag 15.428552612290943 10.399815039338014 13.341809768268405
Ag 9.88484334767412 10.736951191139623 10.478053576722402
Ag 10.476160128216943 12.508172287739146 8.0003216165823
Ag 7.7227049399114645 10.03410116533091 8.694756893869835
Ag 13.322381686919778 11.173907314941683 14.899452265573712
Ag 13.270619430586857 8.679869998524701 12.74638029538926
Ag 12.30994059661116 13.799263172019902 14.472371704069511
Ag 11.331056461987274 9.140793767029136 14.771559269693398
Ag 9.430658336347626 7.987821608115678 9.59320092522267
Ag 11.69268768067201 10.95282704492534 12.635003878655672
Ag 9.872212872294382 13.1296394062777 12.907192552183814
Ag 10.32951398805813 8.344140570226498 12.238555392756732
Ag 14.189869848043958 10.534278993606327 10.81173316757239
Ag 13.987296988609893 12.825715285832363 12.511579126203655
Ag 12.007791698196122 12.59947090633935 10.39250621415455
Ag 9.572593167133238 13.98081680561446 10.294716391741035
Ag 7.747266694635375 12.839463300441755 8.559227930721885
Ag 11.774515918789692 14.862895279993097 11.953297662463712
Ag 12.051378451114262 8.96405407581886 10.11292090400419
Ag 7.600949955604616 9.21319882690086 11.405906410855357
Ag 8.935609010580658 10.517206469015084 13.396436818889894
Ag 14.630737965905498 12.929791790267437 9.553704254239156
Ag 8.565576255247016 11.290089818248429 6.362972088063412
Ag 10.432685210115327 9.737005700124278 7.724262867469564
