23
Energy = -46.18731476 eV
Ag 13.83811882411051 13.575517900491139 9.48686390302326
Ag 14.787685513889924 11.476743106993279 11.040939733611504
Ag 11.423876952509046 14.489193614103062 10.874645227332136
Ag 13.368107372157377 13.330434791810447 12.611700610718405
Ag 12.068729918043672 11.80068038141133 10.619936649326641
Ag 13.366335969463664 9.104189081290063 10.75134882054813
Ag 11.660985543548987 11.845612584858861 15.27325357063539
Ag 11.227415105581773 13.164018993998754 8.285979658917341
Ag 10.568811465898838 12.637819579325535 12.898698437920457
Ag 12.662073021112713 10.5260189582539 13.065750013077944
Ag 13.204651866713183 10.783652126820876 8.364327147594153
Ag 10.555331181462188 9.62303561056808 11.340911176468243
Ag 9.324730363146902 12.675855249360358 10.415533014566074
Ag 11.532256818074549 7.016753013272455 11.025068850589317
Ag 9.93054451296658 10.047152764443092 14.01746091784787
Ag 11.870852866452461 8.278224735784951 8.589876025653506
Ag 10.314250376265925 10.518977060891835 8.581410786344401
Ag 8.45122083938588 12.438046429890198 7.867740480236
Ag 8.01803142984803 11.476777746319987 12.550277947191159
Ag 7.808804487024203 10.370568167720304 9.91221262176751
Ag 8.12070829754913 8.681381658763582 12.30781709055131
Ag 9.1932092274944 7.943054093245768 9.606615160413826
Ag 6.473019930711178 7.932315607761283 10.25966825461725
