27
Energy = -55.47777215 eV
Ag 13.696553198410244 8.37223900350901 11.665824449193257
Ag 12.159058114057393 10.339596425368452 13.187209723746392
Ag 13.310987027695463 7.0519944188141155 9.229016550210655
Ag 11.508106196449765 9.48016120998556 10.524496003324982
Ag 10.679323575574523 6.750111219120941 10.180119005143704
Ag 10.947748510325031 7.846224633583457 12.765489094667716
Ag 10.83248765183938 12.379899165367112 14.473726657122965
Ag 8.824677694863247 8.919573050657833 11.144558018190647
Ag 13.892804352530511 9.779611943173162 9.049315959980692
Ag 14.044585047006851 11.227216521048053 11.387617013582473
Ag 13.64767295144121 8.437214785893238 6.677075964709233
Ag 11.17570453133343 8.118635024830235 7.793982389896728
Ag 9.330332782878266 9.992065342947848 13.716964865336989
Ag 8.572507322175722 7.73094457914631 8.600850474075076
Ag 12.289711618545738 13.202643757831101 12.199931741174641
Ag 12.04943888994201 12.085061379858155 9.593705396948263
Ag 9.917832617237137 11.731427808065323 11.6077438027428
Ag 12.033844309111178 10.739139228172485 7.099677538048726
Ag 9.670677630972454 10.39769799812286 8.662212478856537
Ag 8.151345218671425 12.543014768837395 13.950787854078328
Ag 7.147375894540714 11.171337892561835 11.774639480134397
Ag 9.984305107382353 14.596594254175216 13.032573222764782
Ag 6.960292422650372 9.898578803634061 9.300648511029152
Ag 10.211682940234189 14.209744917466816 10.244842288044435
Ag 8.075594451865836 12.51537919933124 9.398968385985443
Ag 10.316425859223887 12.983033697184274 7.67525975017424
Ag 7.6555777552708735 14.02151286957481 11.651806698913198
