25
Energy = -50.93327227 eV
Ag 9.665341072117378 11.370894508094647 7.141081845346119
Ag 11.890531471743385 9.480159165244043 7.52936094140683
Ag 12.26483204675212 12.339067062081927 8.389069988478285
Ag 9.187712562024846 8.627248897589176 8.10149004908393
Ag 10.455646675877885 10.498672513059118 9.593878179724634
Ag 13.327287344849136 10.210936131819746 10.011713040163574
Ag 7.77638677372448 10.84673966415928 9.257927817901226
Ag 12.05405772022025 14.683937368792511 10.010461816576898
Ag 11.34916768783763 7.889549425946456 9.936606152010507
Ag 9.579532197813426 13.222338050117944 9.524037789342701
Ag 11.70449731262447 12.281786043275153 11.197252335738826
Ag 8.84578682607509 8.839384218999134 11.128167605666874
Ag 14.322407848594175 12.88300426046582 10.584376922818429
Ag 10.130270533914729 14.292760548281372 12.259304490183522
Ag 10.58721738931089 7.241144169993797 12.745606593238906
Ag 8.955366000776698 11.628788009847593 11.843822083643392
Ag 12.991735407889525 14.117176103238362 12.858574026225618
Ag 11.582600756245965 9.65534095717098 12.157604496332212
Ag 13.840659141417317 11.12809517000802 12.772323980593365
Ag 10.831543841035844 12.105578363557873 13.94998614650925
Ag 15.525520885665507 13.181192091841185 13.376217735927725
Ag 11.325328209846766 14.596375488603936 14.977632509059681
Ag 9.424803953568052 9.638680065632864 13.849520204161632
Ag 13.36475166982642 12.549069822001723 15.19735126008414
Ag 12.268766835364925 9.943834065294386 14.858384154899063
