20
Energy = -40.712045 eV
Ag 10.688698073811356 7.890670012120399 11.568622064755466
Ag 10.24639719623887 10.243253142093202 9.719769849791815
Ag 10.256329403848659 11.868991390853484 7.212448458966371
Ag 10.239736178644243 13.042883271223769 9.789122071564094
Ag 12.589081192607567 11.579723226310811 8.836460428047216
Ag 14.50334477230246 10.733331778749902 10.75574613243031
Ag 7.91993410280273 11.609881068495168 8.836663960019159
Ag 7.700834309291143 13.693755864526029 10.753740055225098
Ag 11.649582555334517 9.428399508978481 7.213260171855769
Ag 12.06473772954691 11.80303598594441 11.571345544001295
Ag 12.676084955108779 8.853723710584978 9.788127262577822
Ag 12.875387857148274 9.308493319974882 12.565073287543909
Ag 8.532729634139233 6.320683412337268 10.75477050252051
Ag 8.128376093499954 8.43892260754019 12.565201411317641
Ag 7.826159511382988 8.841527425918294 9.788762313409755
Ag 7.9858757417198 11.044182868590111 11.57106457911897
Ag 8.833120040357045 9.446109197443873 7.21401071732161
Ag 9.740251501856783 12.991321847740435 12.565753930743222
Ag 10.23059078068726 7.547574676633343 8.833567406212694
Ag 10.247318369671273 10.248105683940823 13.031059852578279
