21
Energy = -41.95125951 eV
Ag 13.703779341605928 9.375233793257241 10.473686053648311
Ag 13.3339260392205 11.93413865140081 9.489364965161526
Ag 12.834001120451475 11.515669103601818 12.537702546493003
Ag 12.23018158386009 8.557486971291574 12.601477384032064
Ag 11.472612037779347 13.513596119031401 10.723964124782091
Ag 12.055358385663808 9.75880332147573 8.21794637456578
Ag 10.96952121106173 10.595703663472657 10.87390448203833
Ag 11.489835499067537 7.6884087255659335 10.02704177299237
Ag 10.359915629543057 10.122223813754115 13.850302208963626
Ag 10.00868243716247 12.673850096911874 12.846219749375551
Ag 10.781955274605624 12.229786381627811 8.318841671508336
Ag 9.50647467089631 8.182822698633643 11.999173774004248
Ag 10.301506605193564 7.6954162303296565 7.490015647218794
Ag 8.8030676808023 12.725806222372592 10.29833037641986
Ag 8.217429231879564 10.642251670301375 12.08196476347604
Ag 9.020806135998846 9.66002674954669 9.17001411207347
Ag 9.941258756706652 10.30794370900186 6.4598184224527
Ag 8.85580055200784 6.804209080796434 9.663837243724439
Ag 8.07191583532893 11.96465817825138 7.7047934823420805
Ag 6.957620445500966 8.451813035125326 10.862667427197893
Ag 6.585712988335447 11.062965210742751 9.844395713976377
