22
Energy = -43.61537496 eV
Ag 14.012890438983169 11.793393924750305 10.957488060744268
Ag 10.705950096451357 11.43020381214008 6.655724886925369
Ag 12.870681110509306 11.40137893560404 8.422563040194207
Ag 13.283248467831623 9.180280024498312 10.07352218061145
Ag 13.216723593249792 13.978696450303877 9.442963268325537
Ag 14.046455143618608 6.63429683075563 10.64701348328936
Ag 13.441443922151722 9.90900500537786 12.932682288320981
Ag 10.529767437492259 12.947063144244511 8.92969436946085
Ag 13.030219703214682 13.934451247701999 12.386797308740318
Ag 11.03212642269842 14.976641406647527 10.720652333381429
Ag 10.62218107571024 9.803906987721952 8.855440018766206
Ag 11.768937583483254 11.970630770961904 13.855278651897583
Ag 11.921901779636912 7.633412582879958 11.951211596266807
Ag 11.36253966423445 10.917717451978445 11.274041417217317
Ag 10.259329513359098 14.176358463693907 13.233812835951948
Ag 8.607674491937875 13.805236063471348 10.962895441881686
Ag 8.552479863772456 11.177082218936635 10.026285475873735
Ag 10.656439604057422 9.445718936110078 13.731811148833211
Ag 9.620967503040903 6.916352227935901 13.241135778657863
Ag 6.603323858539483 12.10121280189262 11.716463142841976
Ag 9.408860684906772 8.87459176459739 11.279572061204838
Ag 9.080391064906324 11.608733140801522 12.853317497075468
