25
Energy = -50.67743469 eV
Ag 11.938851785026205 10.178033161588802 11.581772955342961
Ag 13.748711388276854 9.454655505880242 9.670823480980044
Ag 10.44880739575577 10.63372435116086 13.864750589409809
Ag 10.265060220795151 15.175754412095879 7.158783311615574
Ag 10.936002435170845 8.349284617212799 9.761445852509441
Ag 7.5583646462356135 11.919818715038677 10.291734775624764
Ag 12.887907265815135 9.307699889777496 14.213519282643913
Ag 10.225760167304907 12.41305466895844 11.012400476253521
Ag 10.906878591457492 7.9251728461806055 12.738244317914527
Ag 8.947203725409846 10.09157934330352 8.728362081724713
Ag 10.308939147841 13.42493192343063 13.670816589689931
Ag 11.580856623055185 10.980305217729457 8.777099963135162
Ag 11.987604096012076 13.761924349917448 8.809979438911952
Ag 14.754094811135921 10.38075091890126 12.205638683638908
Ag 12.078731076864603 14.379867646029323 11.688158897404186
Ag 15.517165269553947 8.366386132401276 13.969946150758048
Ag 9.058069091426514 9.681388922659117 11.473214268969052
Ag 13.476026327161481 12.252586566262691 10.526680695258772
Ag 8.170250229759949 14.233819316786063 11.857680716612066
Ag 9.33626393653679 12.798605199550801 8.24944337478426
Ag 13.688481736566288 7.751103364812861 11.953445664434598
Ag 12.862585497499513 12.226237044217473 13.423297305964523
Ag 14.962251361228024 10.97575764469323 14.914574230360978
Ag 9.795455848161621 15.089550519286515 9.867379812180152
Ag 8.056837772990354 11.74516816916637 13.087967530918808
