25
Energy = -50.3322807 eV
Ag 10.122742800234777 8.086142607975244 8.08251026151909
Ag 12.2827619306402 12.378260072689814 8.250463615580774
Ag 10.071182855429589 10.876245164740308 7.386874262289698
Ag 11.779163652766155 9.854679368212903 9.395154320582893
Ag 10.060741581266655 13.721088479481862 7.16065675996401
Ag 10.487771410075723 7.862653976147602 10.93424819439025
Ag 8.875897198792458 9.852107246978928 9.746098653784491
Ag 12.28611792192515 15.180992340349036 7.734525585221277
Ag 13.88052890105072 11.370273848740663 10.340116399661426
Ag 8.781113174433342 12.600749628845294 9.334585152454823
Ag 13.921667055946346 14.160124900647642 9.707070090130978
Ag 12.743571179904723 9.296010788013128 11.921992582771665
Ag 8.165841719316443 8.781938861570536 12.295629205354166
Ag 9.249533129954226 6.376930476924342 12.962119296843905
Ag 7.479020523496296 11.388604774297669 11.523863937064487
Ag 15.57126744616605 13.157369993071455 11.659809481574516
Ag 13.285137227249148 9.000858299531894 14.640086337278344
Ag 11.039597762352429 14.15123578324425 10.049283071904087
Ag 6.277369859504003 10.251981573039169 13.72441327628306
Ag 10.655862974342492 8.608778657945846 13.731290521392834
Ag 10.368980594113271 11.756695089723653 11.505752600473636
Ag 14.411664927986987 11.161872815430819 13.191387171760182
Ag 8.976364137342525 10.917469094656287 13.912746393141779
Ag 11.707086191193074 11.190814804147541 13.881195123341318
Ag 12.696704947601306 13.210520772644365 12.11767266779777
