21
Energy = -42.01404231 eV
Ag 11.880270096683084 10.46731280807994 10.341633781836917
Ag 9.978235639342678 12.308137716991004 9.326870994108813
Ag 9.334710264793424 9.639672824284242 10.427186092858548
Ag 9.371893660636157 13.865676674273741 11.542226126030787
Ag 12.051254532442849 13.068747271669498 11.148105474268583
Ag 7.669627119783913 11.619356811354486 11.326841761164204
Ag 6.756279426888122 8.882252340075768 10.496127300078268
Ag 7.554535396981252 13.560565683273722 9.306814623237647
Ag 12.50595177391969 12.026178508762934 8.146983428417588
Ag 7.770821275612415 10.788597849411335 8.455908254343449
Ag 10.226392908232729 11.414620820884126 12.668669617735794
Ag 10.54090676606073 9.943587331724427 7.760347083266236
Ag 12.963954439744784 10.757172672528332 12.909425704600135
Ag 11.088415260985121 8.644565070991735 12.498644577310202
Ag 13.596754845239435 8.507308360542606 11.0730921233641
Ag 14.377918705726415 11.451124950140699 10.363313001483618
Ag 13.29912567617544 9.296427016218827 8.259997719095763
Ag 11.266431029185373 7.752208121137939 9.58909989792155
Ag 8.643153061179378 7.923518315832532 8.39511348682065
Ag 8.37681872240638 9.309917725017606 12.993268267255438
Ag 9.019761897980647 7.046263626804662 11.243543184801736
