29
Energy = -59.87591974 eV
Ag 12.882415934621315 14.759470826443044 12.305418885384704
Ag 11.463639992256905 15.824735964024844 8.245383405374518
Ag 13.643895379416376 14.744278466616755 9.601340170565164
Ag 11.00575577337227 14.04304893997509 10.348055206270006
Ag 13.042467129496895 12.626908681599206 14.168453226339633
Ag 11.964746540965988 13.097704371798596 7.851585174279386
Ag 14.33563535598376 10.48361865606683 12.821933131640783
Ag 10.676648829659475 13.072996042456738 12.897717067033065
Ag 14.608675370525662 12.340832255040604 8.50736986206942
Ag 13.299666912902808 12.287736369208712 11.03108699613878
Ag 9.285406828776885 14.029671702247088 8.213946275308327
Ag 14.834736883900135 10.032430203586136 10.031456878558114
Ag 10.286649075196404 11.716161195918904 15.364140080052326
Ag 11.611241958696969 10.27562137200267 13.528625788199665
Ag 10.71371099914796 11.081389680597162 10.89221832185727
Ag 12.570193319403876 8.906467891076193 11.36009780484629
Ag 8.729868937540012 11.091327638595748 13.053258596921795
Ag 8.42138988725039 12.728842186074205 10.612366386114925
Ag 9.708490301975873 11.265132646506872 8.35377246888125
Ag 12.467825789177942 10.509512256138414 8.610451075482693
Ag 11.709211218353683 7.482726945324821 13.673421569931612
Ag 6.241882874743122 11.364475741661892 11.877880909700387
Ag 9.436936179927509 8.975983389957692 14.778744585021593
Ag 9.629926320490034 8.254532957302747 12.055572207725305
Ag 11.377337638710582 6.438135401749188 10.87126982323947
Ag 13.109980163833399 7.8232643776289255 8.94502246489357
Ag 8.097979541902001 9.911383946151194 10.398216595113654
Ag 10.398304729622197 8.661295668746368 9.371926370629089
Ag 7.097114119491096 8.89754676381874 13.007937842085667
