26
Energy = -53.14502004 eV
Ag 7.855197138809043 11.20405768628695 13.020583537736652
Ag 8.912061903537197 8.822015376741682 14.544671825747482
Ag 5.9717500632081215 10.383047112236042 10.907756116344665
Ag 6.726894561250097 8.549393083170676 12.771579861270826
Ag 11.169061842634335 10.541055116786502 13.5538772560937
Ag 10.16148414916442 12.0731498066922 11.435610949599067
Ag 7.586653454476347 12.605771829329548 10.591741137625858
Ag 7.63103280284214 8.194932187959347 9.973225947807235
Ag 9.354962888458207 9.243052412887721 11.922884333753313
Ag 8.616408789422566 6.564904409515439 12.2239051010549
Ag 7.357796260249286 10.717695255832602 8.46008041872686
Ag 11.184928644006108 7.577606782774038 13.09285287237178
Ag 9.776132939351934 9.962640641834673 9.355211103104187
Ag 9.556666681727304 12.667766972610636 8.64344727292061
Ag 9.492768697953206 8.022918568372535 7.518478239353
Ag 10.464490274224513 7.299544180865489 10.163331942057368
Ag 11.80223292866557 14.038318063715797 9.999893457365607
Ag 12.183022842901089 9.354833036506976 11.149804491153542
Ag 12.066053463277587 11.44426791471781 9.230879197681144
Ag 12.928317734581531 12.007008507423873 11.862604181007782
Ag 11.985572596229614 13.247489071532895 7.154798852632646
Ag 10.740428060422682 10.620256373327047 6.779017274261768
Ag 12.188338458248204 8.685301724833744 8.35616118216048
Ag 14.266154610421923 13.025908860860204 8.826810985408233
Ag 14.467591828288406 10.277585303653154 9.579064754440513
Ag 13.561611363444909 10.890584520703321 6.91369464968566
