20
Energy = -40.20610421 eV
Ag 8.888364987555946 10.330136153668207 6.99212875989049
Ag 10.267698279483175 12.24147781866022 8.46046898981156
Ag 11.510317853265654 9.780853012458264 7.815103408032357
Ag 12.926522609372878 11.812873871699006 9.193367144742687
Ag 11.466695102928243 13.975306539878773 10.32977395951606
Ag 10.79804436728659 7.3180921902629485 9.479513236148199
Ag 7.517288753281931 11.548248660099736 9.181532961731182
Ag 9.46326897045374 9.720224119717455 9.689016937538574
Ag 14.146309596529509 13.535546195027178 11.015989614483095
Ag 12.351861408392379 9.337202956372684 10.433392166048812
Ag 9.303822151953915 12.371750685076284 11.10492150584032
Ag 12.363451988614592 6.900762103009382 11.847120839512876
Ag 10.0559781921737 8.416638495611831 12.085617535447822
Ag 7.821596891388916 10.171208319721492 11.905732334732205
Ag 14.524264469108635 10.731641303167814 11.395822323513235
Ag 12.114979415816016 11.849334360374407 11.983312662769976
Ag 12.474658485427165 9.360114170186597 13.20458659413603
Ag 10.453553023326636 13.679249497186424 13.194281634352397
Ag 10.048248259874756 10.7949424060635 13.527278584894999
Ag 7.862508615701132 12.483830563693443 13.520472228792494
