25
Energy = -50.85756082 eV
Ag 14.109008778299401 7.845604069058842 13.5546988767007
Ag 14.45917823920787 10.124355439509136 11.393230442785264
Ag 9.868110180157645 15.23487986715223 9.476992727779203
Ag 13.689323044980577 12.227511189539769 9.367946965117497
Ag 9.176716890207192 12.93356389751117 7.876914479232216
Ag 11.813544700405519 10.22178704866991 10.311599543781437
Ag 11.94619460076112 14.161831242511212 7.820320457914839
Ag 10.405711117083866 14.257160325901394 12.276614897299643
Ag 9.978200678755176 11.473775720744593 12.210648850195392
Ag 9.820200863353637 9.808451151999398 14.379353944074454
Ag 12.734976747240923 7.836942770245246 11.20745660248982
Ag 12.753600317818043 14.834562309959068 10.531242683245559
Ag 11.308353292793383 7.40647940629297 13.810612493457073
Ag 9.975198958433907 8.608112502770267 11.58899607712382
Ag 8.451276545943585 7.537981369421581 13.605053707775774
Ag 12.84516574086475 14.762414941122655 13.461831366741112
Ag 11.58845369104322 11.258430534787822 7.680273260590186
Ag 7.6460626052896155 10.017528847964956 12.131139831784632
Ag 12.345089845790081 9.961563848760457 13.248238118561035
Ag 13.813143408098465 9.454503363401004 8.679151868496914
Ag 12.939273226194613 12.42756246014182 12.054182328641911
Ag 8.265284932785502 13.091482821933063 10.667843452283684
Ag 11.352319758590097 12.425268360213876 14.379488694124623
Ag 10.951257510556369 12.794454169771429 9.940453482852297
Ag 9.058580830690875 10.588018845961004 9.639941352295937
