25
Energy = -50.08498533 eV
Ag 13.209913790439447 9.388930843717592 8.635781519691207
Ag 12.136206317975606 10.684897797572301 10.972940711882952
Ag 13.390322936802075 7.873254193752596 10.987511259361758
Ag 12.677250823218325 11.02481254026395 6.393069290569668
Ag 13.08464207593256 12.214277163153472 8.813141144145842
Ag 11.918794382622869 9.013470247272432 13.144516067053402
Ag 13.029151745000528 13.445552328462467 11.331087713258555
Ag 11.244231208712943 6.511580254212991 12.31600522577329
Ag 10.664195454685634 10.506039062464822 8.400718898615272
Ag 12.22870737305111 14.847972649732357 8.934792111065272
Ag 14.93488831630993 7.353699207784717 8.784935129879518
Ag 10.827126660196623 13.050505346396704 7.271291084030215
Ag 10.725505580734447 8.343428859601136 10.274345850409963
Ag 12.659415288166665 11.692231852051764 13.516446520969772
Ag 10.541312960418994 12.980925863235736 10.144684140314146
Ag 13.139181662067688 14.353093630428475 13.895827256497578
Ag 8.392096691327257 9.965339052369039 15.076196367074353
Ag 10.562608936410742 13.729992568008171 12.932276032094407
Ag 8.379943660606639 12.316817529174978 8.598330407480464
Ag 8.815841710846724 10.318948899181065 10.478269632901608
Ag 9.126156890459661 8.414473183049004 12.675848060523297
Ag 8.15688386332544 12.859716082937245 11.529820391397612
Ag 9.976010852218312 11.041792678046356 13.048475494873884
Ag 7.141795748786514 10.547868247299263 12.681134751959402
Ag 8.160779847117931 12.678149826631056 14.338908500393769
