29
Energy = -60.37637881 eV
Ag 11.432136816004332 7.910864382371935 12.724249274740318
Ag 13.70813041954924 7.731965142654304 14.322395944942548
Ag 9.220477557664976 8.233107032700094 11.049777885485037
Ag 12.263567969260126 10.145221684004008 14.249006111975357
Ag 10.03147099775827 10.443913793499446 12.58541541242921
Ag 7.015612812337543 8.6051251987895 9.381973117348489
Ag 7.781869924296877 10.799763003052618 10.934047535123531
Ag 11.492908804702925 6.685792294420797 10.15371519520731
Ag 10.903394723150372 12.617096421345915 14.120360002297613
Ag 8.620933084481216 12.973881119657625 12.470366287099182
Ag 13.780204733726723 6.57063600887862 11.78304182381227
Ag 9.265155042417359 7.030793237346532 8.531532207299193
Ag 9.600571556560034 15.110024026506226 13.949256383495856
Ag 11.652137255361218 9.582236075983081 10.311260907335864
Ag 9.364308638986543 9.880942469745653 8.506057436583841
Ag 6.872257988359607 11.28256247578172 8.344671297250708
Ag 13.963314626125076 9.332422648794724 12.02221013484718
Ag 13.976410598040038 8.090139673156944 9.440481335558452
Ag 12.617844904747237 11.831600754432001 11.947169351442934
Ag 7.734603485158319 13.474948378842967 9.815942199167086
Ag 10.258250089794625 12.091254289451392 10.193555126435719
Ag 11.691884679604776 8.33448632347903 7.787171420484705
Ag 11.213478408686017 14.298071129509305 11.779598851068426
Ag 9.296499922980693 12.587399104342621 7.57228551590622
Ag 14.059200132551698 10.92832488143907 9.64096140325441
Ag 11.83555772408859 11.234505548817793 7.923862207482811
Ag 12.733109749696355 13.363089356396973 9.539761706482015
Ag 8.809549750829655 15.597133294157569 11.312936194040788
Ag 10.29507974427731 14.753884567688722 9.093215604575148
