20
Energy = -39.7719925 eV
Ag 16.40504822735313 10.55542785531071 10.908635639113678
Ag 14.175180196811606 11.631724131362226 9.631328137289023
Ag 13.927083065804164 9.20596273534732 10.96456982681537
Ag 14.378152527016528 11.416037869118366 12.574627664180602
Ag 12.018123215306542 12.292246000603068 11.293694834403341
Ag 11.804856694850173 12.866553903152443 8.615541746325114
Ag 11.835957493110453 10.113153615433916 9.29177646851752
Ag 11.99995769066672 9.86899004121924 12.930815039416357
Ag 11.463366737888263 7.9425217440949085 10.978219439642562
Ag 11.227396660704187 14.855319395218487 10.616826585017522
Ag 12.227277255232424 12.501404690518996 14.00512742580984
Ag 9.69342768384583 11.163095274638462 7.871777091756493
Ag 9.280257306855047 8.98473717314537 9.646695765909042
Ag 9.908345188191545 13.515832331915018 12.721659757610713
Ag 9.304823434206238 13.039211934456198 9.955407556276521
Ag 9.392167926487563 8.86379264646751 12.587224842493585
Ag 9.827050184287954 11.096937021442962 14.191358916941468
Ag 8.16400071171504 11.44199148477032 12.032044175486899
Ag 7.392752585467379 11.125044934386006 9.417704966013986
Ag 6.995774553124289 9.049082999994733 11.216267769921862
