24
Energy = -48.64302313 eV
Ag 13.030901311196166 11.10133528446675 9.540419554747475
Ag 12.62174759245852 13.045671531752618 11.480150800869046
Ag 13.147869819854469 9.129086200927347 7.4549525229159
Ag 12.246050706720528 10.312965791831813 12.055177136645337
Ag 11.58787397020861 15.022001172647421 13.187759482733338
Ag 12.479484547364358 11.855139401727369 6.96080514426544
Ag 13.044525185843796 13.948056206798977 8.872054338534692
Ag 12.13389844840344 8.442207309670083 10.02748121298866
Ag 11.638838839473621 9.45439444936173 14.589620795476279
Ag 11.74659236522755 12.244874619999822 14.032128930075809
Ag 11.083575002899707 7.200882122740215 7.772888113242837
Ag 10.45948367257355 8.061589142754098 12.291084774606801
Ag 10.885548243788117 15.028455536680998 10.443312234856169
Ag 10.596065991132374 12.738671467504954 8.828559718607362
Ag 9.573587425557267 10.591655286610173 13.235659933310457
Ag 10.75875639359804 5.984350514774245 10.3324501940127
Ag 10.610371149620484 10.023318895891615 8.117256033516883
Ag 9.715290210122504 13.266812889480995 12.352300009975847
Ag 9.20463293747132 8.166661220325883 9.68128302370563
Ag 8.273333642112169 6.323370307415298 11.568758342287074
Ag 9.16527431953022 10.898675487420086 10.350473819427531
Ag 8.303520865284083 13.677329497267776 10.050600018189122
Ag 7.695615480901806 8.99230701648464 11.930785435264992
Ag 7.349525600801988 11.842552367608892 12.196402151888986
