26
Energy = -53.59808947 eV
Ag 8.188559210931174 15.111936354866845 10.223005552965633
Ag 8.653151080326762 12.305992019497994 13.878236724959299
Ag 8.176141156327407 12.47779375649336 11.177218119873688
Ag 10.458952441320692 13.518285508255179 9.742078481281865
Ag 10.251933351275124 10.19942242632643 14.754017876205598
Ag 8.724656375414666 9.899023415798712 12.343428657656787
Ag 8.084431535176705 12.946959161945859 8.381715349331127
Ag 9.829013272653253 14.44758873757444 12.370706345002342
Ag 13.051154629037418 10.151813727667868 14.137531405411021
Ag 12.483089020751063 14.162322009053785 11.469966896781786
Ag 14.047873708693466 12.030430884734665 12.282562753600295
Ag 10.818253108147763 10.815419332951057 10.902853723217401
Ag 14.899893853501963 13.675749029689566 10.20906927390281
Ag 13.74092312393995 7.542224203211891 13.4153921418914
Ag 11.434928251301647 12.339282474213833 13.352720314994126
Ag 8.320212192217793 10.283538450907477 9.481785586075212
Ag 8.168159039862314 10.767778797793257 6.697935912003279
Ag 11.171639458597562 8.460001733008294 12.847707543215545
Ag 12.942386599399933 11.86768509053635 9.60231532583975
Ag 13.458145213079062 9.502963590786567 11.402314657000668
Ag 9.720647189627133 8.630456072089537 7.584431737159662
Ag 9.925567815086279 8.082320824091168 10.4007835540402
Ag 12.18011305331521 9.121506306850058 8.98141633134729
Ag 12.529144536538901 6.911369216143893 10.913751282206254
Ag 10.556029807826242 11.332456976947084 8.046565908800801
Ag 11.274783866506008 6.505462789419426 8.49027143609151
