26
Energy = -53.52128516 eV
Ag 11.851068647309859 9.481789378706289 13.241270036235486
Ag 11.340658083072016 7.390175576736843 11.606714702812571
Ag 13.638742294147132 9.041597584714198 11.091190092160785
Ag 13.428529938691236 10.657229733623002 8.55223980909844
Ag 9.460119272748994 9.647954082084214 11.429155308158009
Ag 12.150597115500167 11.442248631359373 11.082781441947079
Ag 14.2375509793563 10.932486592204926 13.213782755617775
Ag 12.231799987088422 11.608593058103125 15.02926627886102
Ag 11.315365496422416 9.138503009628039 9.446918836614447
Ag 11.311697879551518 10.076100209865954 6.823342934189918
Ag 15.075203880818592 11.48197227162033 10.613714798860812
Ag 6.980811289705449 10.468779415513833 10.262489074264476
Ag 9.01241333671646 10.331944536040238 8.439655243331801
Ag 7.504023765610349 11.742565272847024 12.643079174795842
Ag 12.369240402013485 14.016201403113952 16.358741189595303
Ag 13.519110891726312 13.465112945101156 9.136104166376343
Ag 11.068549314407408 12.290228460489072 8.519887055635712
Ag 16.397553764629688 12.667224614061347 12.762933734658118
Ag 10.225168264376842 11.712021203224884 13.125263174237915
Ag 9.126596431372725 12.311663869368386 10.469445211475847
Ag 14.448748943962688 13.404861700944071 14.637262025569578
Ag 13.961036724286162 13.745321072173466 11.880606725835584
Ag 11.307066846799534 14.066937685123184 10.810702489452924
Ag 9.845726781246746 13.33746781451234 15.354738344744916
Ag 11.846406069474007 14.135004131027056 13.581187074198509
Ag 9.111784396616288 14.171586545463734 12.653099118920744
