20
Energy = -39.44070666 eV
Ag 15.754789916294172 12.11231986378555 11.877546283155056
Ag 14.032904605669954 10.036584811771451 12.399987860922833
Ag 12.055926219023329 9.389597952740075 10.517567929628544
Ag 14.225772585819737 11.046533420291075 9.718943798087235
Ag 12.096307393265446 8.10806550327432 12.995801024285402
Ag 12.327061518099553 9.940748192405659 7.849107003141037
Ag 9.832303026813074 8.96913379788799 8.855461751508656
Ag 13.013389699665627 12.556068278076003 11.802476481813917
Ag 9.69387931366166 8.322465737613625 11.536491977611275
Ag 11.26797639664542 10.738868600236373 13.082692091491571
Ag 7.288150857521406 9.062301856995312 10.417681775347853
Ag 9.874322122398338 11.311299296753628 7.333069793280033
Ag 11.689810002085549 12.135513762904063 9.362354852965073
Ag 9.57481548389101 8.841987695803704 14.238725163768374
Ag 10.258078596889069 12.846061025016423 11.651162608993836
Ag 8.463336351899272 10.750652843424724 12.565437325380987
Ag 9.54691194395026 13.830890300478488 9.071028430025013
Ag 7.390086473642948 9.98594250063429 7.781608038133358
Ag 8.530444333343354 11.418468532800372 9.801440522116676
Ag 7.538642599805337 13.197865376682508 11.597370214153484
