21
Energy = -41.62291796 eV
Ag 12.46430800830175 10.878863426316745 7.204505502120255
Ag 10.274227547506696 11.252092452835848 8.85346549914621
Ag 11.0147987392047 8.597661864046389 8.447269751786548
Ag 12.29646752078173 13.191288062820673 8.756599766826781
Ag 7.603672348272755 11.850651660502239 8.597253839774146
Ag 10.006524927795223 7.235149021293674 10.812651892207974
Ag 11.695111084079805 15.235923672069266 10.527279994505559
Ag 8.459194312453121 9.179204348947037 9.322436951629482
Ag 13.782020014098853 8.599444929215588 8.156438298524165
Ag 6.134255639607265 10.257962214377574 10.335176890341444
Ag 9.48165467728444 13.817390307274147 9.620436055013416
Ag 12.742652260497483 7.911271392561383 10.595179887761933
Ag 8.467481485625257 11.737221339426563 11.246973386200347
Ag 10.542770524631658 9.82715221788473 11.482960354856035
Ag 7.910807753620144 9.065621033165998 12.124814374714063
Ag 11.35673254205264 12.60496652521845 11.330470665031322
Ag 10.104429523277824 11.81195895319008 13.600003727606783
Ag 12.91761522313872 10.626907792602296 9.988743834804653
Ag 11.760037507481497 7.832736877809719 13.107995897847623
Ag 9.70212670481631 9.181747862307152 14.238948823921248
Ag 12.642743086722783 10.625849302281928 12.978581807125808
