28
Energy = -57.59971744 eV
Ag 7.248618106551289 11.506626878740796 11.704495001651305
Ag 8.822548735659161 9.099952740209819 11.606505888805023
Ag 10.11975188975956 8.959587345043465 14.073980285519557
Ag 7.107652497238276 14.1506293224965 10.26230180869178
Ag 10.533993088334238 6.762892078063313 11.888520814445553
Ag 7.273980728681847 9.59870608679508 9.3599568354646
Ag 12.430786435028542 10.72197617840391 14.171049286808008
Ag 11.722429046249399 13.424140544963961 13.181055694669784
Ag 8.869369735097086 7.299434615506411 9.554865091850644
Ag 10.139332034934988 11.363364790009207 12.371032659632668
Ag 9.232999596039255 13.936186212732693 11.926687157100172
Ag 6.1199544504705194 12.020310838925704 8.884918154245874
Ag 12.620901549783559 7.608655551995346 14.071279301380166
Ag 11.866401897022538 9.132599008755173 11.953144167078994
Ag 8.885585067499326 11.989499129768907 9.641225069869202
Ag 13.440396678791243 6.9541937998993575 11.364233479638884
Ag 8.204268402902962 11.8819014033508 6.971986554161052
Ag 11.3022053826518 10.631576048025714 9.786189085428266
Ag 14.531122440014359 9.322094715057608 12.70596111207556
Ag 11.598748785358996 7.8194247632047755 9.357053837003845
Ag 9.6351138338724 9.533467744789052 7.85106393358643
Ag 13.263024711197279 11.659158738880004 11.617140184210895
Ag 11.386804576511663 13.414642324038212 10.220771886568361
Ag 9.293416533545257 14.369686600444096 8.377161826721919
Ag 13.956230174329894 9.390471035693476 9.904923733997625
Ag 10.922302376347869 12.230724851374543 7.510795310636473
Ag 12.478690658960465 9.760119925183883 7.430629554305569
Ag 13.51123537371061 12.055102794795106 8.808803910170058
