26
Energy = -53.02298649 eV
Ag 14.354658809743116 12.926338942651629 10.804135257540047
Ag 13.78889758338116 11.069054546644447 8.788838679744114
Ag 13.408684745799642 10.396800744232964 11.445752942862065
Ag 12.231508968403439 12.918727591643767 7.3871760472862205
Ag 13.334504704522121 12.37392108163183 13.420926103454057
Ag 12.372445083186362 14.568133876576379 11.883807532060127
Ag 11.63939012178898 12.482441644299755 10.146357564195208
Ag 11.65048056974901 10.157013225158376 13.648368175154822
Ag 11.112304878148002 10.485903088493268 8.03195866301211
Ag 12.53562940259772 8.438693195260417 9.317320650976056
Ag 10.636496288638078 12.636799833871642 12.86872436299253
Ag 9.543523093588027 12.757999352196654 8.171979720287625
Ag 12.469480765020203 7.857391892153472 12.0508786938784
Ag 10.547905442499955 9.776583349923412 10.848433518133367
Ag 10.061078331708623 7.975557513856496 8.026187794386544
Ag 8.899567048475891 12.241423533527787 10.807450929909894
Ag 9.944630144844847 7.971055193560159 13.133979026007523
Ag 8.368080404750451 10.18700312478775 8.74734499155011
Ag 8.789257078828106 10.502642584599467 12.980834857812177
Ag 10.361751015455924 6.781907221028612 10.517632273361295
Ag 6.857566095755739 12.602132248856469 9.008615012206334
Ag 8.017713491177583 6.418757419674308 9.025670988183945
Ag 7.567224810962782 8.24367938090158 6.8591716556844045
Ag 6.57933133705198 10.618349473996208 10.980393131747139
Ag 8.031038162145968 8.265819615633411 11.127522951300188
Ag 6.087814286380755 8.540540720326565 9.18350223669516
