27
Energy = -55.26989335 eV
Ag 14.24392013738293 9.698107475629731 8.303557361632693
Ag 11.853064575125797 10.392619853676406 6.759834741707189
Ag 13.253246818278367 8.523096425454112 10.654486751295916
Ag 10.43608767222665 12.572668891840232 8.085127661524641
Ag 11.937184710399773 8.066283925891344 8.193725269132813
Ag 13.348389944146824 12.358519336072597 8.027959532545603
Ag 11.942461016730947 8.115390228093077 13.064073740334518
Ag 9.528461188975797 9.541537299907326 8.2130900160815
Ag 15.843007060960494 9.301905671072753 10.767790914835434
Ag 8.5207475776915 11.561814634271819 9.847638672219428
Ag 11.58984461217564 10.674191347741706 9.711712600037576
Ag 10.484264739440947 8.232398840810752 10.646002420254502
Ag 9.444893380352639 14.0790621572365 10.398630364025681
Ag 14.162607341753413 11.483614250992908 10.59206234374368
Ag 11.078021857506677 14.741337458670143 12.549057873803491
Ag 6.813155984800402 13.435543124525173 11.080889116742284
Ag 10.39379486226445 11.843593335362703 12.138380886195936
Ag 14.083240479660878 9.973747206293933 12.94208337750931
Ag 7.855362828667493 9.014561227777147 10.639843211306792
Ag 9.39650016495321 9.235052965051167 13.05562536063432
Ag 12.134429892818064 13.407363019918298 10.333015066812195
Ag 8.525196542182508 13.71464927463849 13.353268971624116
Ag 7.520902841851614 11.18798650163969 12.493830212213416
Ag 12.994666350834429 12.585633778646207 12.943135301427537
Ag 10.911017260306105 13.249343346672578 14.86530680716991
Ag 11.661008780413571 10.566289991420653 14.404101042019914
Ag 8.944995567464575 11.34416262005899 14.836244572536069
