26
Energy = -53.40629217 eV
Ag 13.155270472137897 6.840140467723076 13.358505005331933
Ag 13.235138757704194 9.596912766322454 13.568614051727664
Ag 11.767352419516433 10.702503757545655 15.623139213088582
Ag 11.492774662281088 8.33005021291417 11.642013698049288
Ag 14.223956517553443 8.254033450158909 11.188201458816497
Ag 10.857931246229052 8.252631034494627 14.387994039874807
Ag 8.822398738664052 8.687504493023601 12.374222488567783
Ag 13.180108687650293 10.920104078139556 11.09510470836062
Ag 10.5394597398851 10.79029199299496 13.103611861393034
Ag 12.808102303787008 12.428798552299881 13.359383956399476
Ag 15.107219821054548 10.000215844100552 9.211370167654712
Ag 12.435974178291604 9.257766888272585 9.049363698807083
Ag 9.765688023473457 9.323195731405612 9.715580636271316
Ag 11.900300400239768 15.098446578520463 13.103527157228136
Ag 13.509550965105548 12.175933153531918 8.576967654915704
Ag 10.66406803212962 13.161952734589198 14.923220573535994
Ag 12.3183952820187 13.534370676775652 10.75642357292138
Ag 7.061400972433925 9.189663832494675 10.220241457572046
Ag 9.883937107425622 13.434698652694571 12.27662830458161
Ag 8.45924855183387 11.328267836677245 11.274226985491154
Ag 10.859261830248533 11.51475180197853 8.331797171229193
Ag 10.641677141028467 15.717822113122795 10.573745175967815
Ag 8.066085374823528 11.203865345300729 8.44179027764077
Ag 11.53361927397205 14.26555392920784 8.169286298009942
Ag 9.238450227644282 13.51832786018038 9.592025518763807
Ag 9.220130080111696 13.21969702277431 6.830515675043308
