26
Energy = -52.92471438 eV
Ag 13.163438477237424 15.067084131132868 10.222633238273348
Ag 10.055504815446037 8.404205092285672 9.878189117948375
Ag 10.905512246781209 11.023085982074155 16.5793878796291
Ag 13.631915771179745 13.709149286517844 7.815138461458986
Ag 10.225765836771869 10.692681094347154 8.308807294828123
Ag 12.632412203395125 9.597782812823748 9.846337192709292
Ag 10.666932058874886 13.478955305789437 12.133319794960647
Ag 13.558233314528584 10.380939789888336 12.35918659254883
Ag 10.607634370665753 15.172596188844079 9.136196450618014
Ag 9.06859169758422 12.9040350894553 9.628037466832733
Ag 8.039764699384842 12.148758181324496 12.086463049312776
Ag 14.476280682601226 11.7085373887118 9.915321979215305
Ag 10.833131328342594 13.2251946928502 7.179510470244397
Ag 8.776629239654238 9.142230102608396 12.68592554813666
Ag 10.505423369767646 10.833264880708985 11.30475997652249
Ag 12.862991331329857 11.091499258791222 7.428282540709875
Ag 11.76519030024404 8.496826212023937 7.463122549899504
Ag 13.491396296636795 13.113523667542632 12.134067505946689
Ag 11.89812404072751 12.663147973846002 9.704287845673813
Ag 11.935246762086589 9.314954342454444 14.695822619667705
Ag 9.028638339341093 9.246674005536056 15.479853137255644
Ag 12.480395199492316 12.031408371622279 14.393171080353762
Ag 9.778898037165247 11.484061340667427 14.083007145591688
Ag 7.962742754556749 10.303665958365317 10.039750595017829
Ag 11.679262874354746 8.293182124107295 12.166343839069013
Ag 10.312747506843946 7.143967365738893 14.256196076117678
