29
Energy = -59.61372193 eV
Ag 14.592800504849617 10.05748801479992 8.419257746065096
Ag 14.11910070620251 10.991357594616156 10.927324741199987
Ag 14.189294172373911 12.106767910940311 13.442943377078382
Ag 12.996975964914492 9.521281682895221 13.018656073872336
Ag 13.302165973708187 8.366642141764684 10.328043444292614
Ag 13.0351113815851 8.08661560931127 7.4268518612414365
Ag 12.339842490727188 11.270896203514216 15.32531463358448
Ag 12.909698817453105 10.906666787245102 6.38977491355516
Ag 13.124860681651317 12.540150022075535 8.597862909120565
Ag 13.366921065429288 13.681420069915609 11.153713133549669
Ag 10.71241265077484 9.340145637455723 6.580100252791657
Ag 11.408370518473582 10.531216010585334 9.923392674035801
Ag 11.52650092088283 11.882883859861112 12.43444868249292
Ag 10.819313112957497 7.759297582052738 9.019831776968594
Ag 10.79783473025443 8.357970307893922 11.804870861953656
Ag 11.234376950800135 14.68820773489897 12.724986217924972
Ag 8.413885967371817 7.964834890484428 10.472221639728007
Ag 10.837197875285971 13.404224852389596 10.070946809334105
Ag 9.021266108270586 10.611630066753863 11.490505385152497
Ag 10.09992329686328 12.847072986334803 14.689189730033036
Ag 10.491977078577051 12.015249108247103 7.56705245670191
Ag 8.895780833717536 9.911679271732591 8.52154979403878
Ag 10.268219633464069 9.980552849342997 14.136447634932356
Ag 8.136178736114383 8.545559594806353 13.222200934505416
Ag 8.903336875570197 13.372330924782776 12.213271736367627
Ag 8.29413667445894 12.46957556016002 9.4560062539135
Ag 6.611209721536727 10.184768071768767 10.042744961124102
Ag 6.432026777715586 12.35337248079579 11.74495986593265
Ag 7.818156414871097 11.333280675714605 13.968459758385642
