29
Energy = -60.33010211 eV
Ag 15.665753827187197 12.053637369226522 11.796078651691293
Ag 14.558243310167626 10.14898899399022 9.903396820169446
Ag 13.546142136004876 12.777151724211336 10.177874020229707
Ag 13.781799408915402 7.809539782033806 8.57826807641644
Ag 13.49856644872382 13.542459343024996 13.041331094697565
Ag 13.347130669321475 10.762225189232009 12.393528643405993
Ag 11.645954092172008 10.60282339235105 9.939146267402917
Ag 12.815563959078156 8.253870899175457 11.19791618296948
Ag 11.740732176559902 14.878593524997282 10.211761908735271
Ag 11.605864945866214 12.811161203214262 8.097623887040378
Ag 11.28489006236556 15.356656588925421 12.893401334828038
Ag 12.931421018251017 10.302871591471432 7.531154357910546
Ag 11.76365139986071 11.70758371253596 14.508801299970896
Ag 12.225872773615851 5.870653190022516 9.97586312571891
Ag 11.938210680528309 14.32479103957385 15.37102596773899
Ag 9.50407038259917 14.851223344796237 8.630247856937032
Ag 11.005230233084752 8.067021626058116 8.69906400195391
Ag 11.1199982527698 12.626177173020658 11.816179266176782
Ag 10.076214535689932 12.570437715405099 16.576450920144357
Ag 10.169524461676087 7.240052760848762 11.325528942108154
Ag 10.786865465000403 9.754097539244105 12.605025412233367
Ag 10.110117189346141 10.447521319875456 7.552108277999987
Ag 9.45172139148602 13.514739601843296 14.040747566854964
Ag 9.047091921478813 14.457319144602344 11.391775314416048
Ag 9.204113023948514 12.275149732791753 9.507327828521944
Ag 9.022329992548482 9.545726778656825 10.139748124043143
Ag 8.485606696758056 11.595731826079929 12.115760321384377
Ag 9.097571851841922 10.707695715805544 14.73291769776954
Ag 8.231947586653279 8.82358442963181 12.758378044373096
