21
Energy = -42.30864314 eV
Ag 11.304329582510654 12.756420283435016 8.437229393784778
Ag 12.76732528188717 13.741774771159145 10.66694458610969
Ag 11.888265270780547 9.942902084126944 7.888469781115984
Ag 13.547688068463211 11.2625956438333 9.635166482088328
Ag 10.75438595754677 11.16521020513317 10.597729629655628
Ag 15.2814642040732 12.52488830058552 11.357728750309432
Ag 9.91557891030482 8.412878474830467 9.134531195488881
Ag 12.952151159116754 11.592900393532439 12.492029020516462
Ag 8.549109794252125 12.861771548871175 9.313860297253092
Ag 10.159047912903858 14.637998554912896 10.606446032482756
Ag 8.109979603475828 10.252883950921483 10.40301281466605
Ag 11.109642280577733 13.644380664578565 12.985904211169823
Ag 8.65642234042033 12.612378290290927 12.071802174068907
Ag 9.258626238707997 10.724347454578215 7.758474378891758
Ag 12.392718594791743 8.777429768180609 10.42186891037791
Ag 14.72919122072898 9.641041345815792 11.704284898683028
Ag 12.389334169449745 8.938506612597449 13.222398304192756
Ag 9.912317209457719 8.6430594032748 11.880995907165094
Ag 7.874607742272093 10.060504643760735 13.206008945911227
Ag 10.460711796406997 11.001821568353868 13.553680177065658
Ag 9.911700628514255 8.538250679056526 14.636811167435669
