25
Energy = -50.90377883 eV
Ag 10.132188326027249 12.77768812734404 12.868228715041303
Ag 12.4581690119498 8.87571403574094 13.297809812700159
Ag 8.230118712000971 13.816305727247695 11.203663234078617
Ag 8.676297531746783 10.877555186142935 11.345338847674146
Ag 10.445401226532518 12.770434703487659 9.782138669445933
Ag 10.750780925261193 7.21228794330996 8.963779162230345
Ag 8.011644623602361 11.860732318805598 8.913098093649582
Ag 12.789436744111685 8.468734358133636 10.450909523162034
Ag 12.641993737579384 8.838039839249623 7.734378932912822
Ag 12.769767518023295 11.380714593820446 9.017770286884291
Ag 12.66218582794244 11.711272013443548 13.979893717455752
Ag 15.093300805157723 12.578633946196279 9.910615721726064
Ag 10.249309152170765 9.980976590337942 8.992652321985577
Ag 10.935465959188939 15.083142469803619 11.420905904361268
Ag 10.468278566913535 12.636100367864456 15.5662458934943
Ag 11.946301214406908 14.573312517024783 14.027959901891187
Ag 11.654349060036989 9.963899711574316 15.82382633090373
Ag 13.061728193074556 13.233000018301329 11.764143550389395
Ag 9.142013856775137 15.127025419311687 13.70413066960552
Ag 9.88449781775791 10.114602920580145 13.746927815389753
Ag 12.756338633991222 14.250142951605914 9.288189251502262
Ag 14.96170383197577 9.681613203252363 9.0581567299632
Ag 10.103940666717449 8.34689036930611 11.476738763900244
Ag 11.48847469832837 10.77437674566202 11.500148245983645
Ag 14.234166274712491 10.614656838438405 11.710202819654173
