20
Energy = -40.31707424 eV
Ag 12.467718132803943 7.1434539675724205 13.186114374205538
Ag 12.331680929705167 9.847200317501402 12.728630020747554
Ag 12.03598874151677 12.485643907760457 11.885423156407418
Ag 11.563069905685436 15.03173770978623 11.007713756218386
Ag 9.913839710170915 8.227802707257169 13.026545801014171
Ag 13.044048778741589 8.283707632455608 8.37488411019134
Ag 12.256218867630562 10.431757786735185 9.984962782960212
Ag 11.455742610000367 7.822610685474242 10.718685134850388
Ag 9.879226847931907 10.708306689489008 11.674776400280336
Ag 9.471700906577874 13.295244773039295 10.677647066287626
Ag 11.98252171183874 10.778445110045677 7.265864252228543
Ag 11.848091420685016 13.03822292950608 9.043253315426217
Ag 10.343790745032353 8.569651825271693 8.311716468023986
Ag 7.486025174748832 9.62357242994411 12.677609159324442
Ag 8.639352260914038 8.321802860205215 10.513140999099525
Ag 9.639841672343067 11.369340228089628 8.640333271763225
Ag 9.520907767757869 9.96015994438959 6.125164039553707
Ag 7.63568194998041 9.431633943313646 8.167080187389393
Ag 7.474212343345184 11.372013894893803 10.403426235244341
Ag 5.928624101750401 9.101789716204118 10.348537643915048
