29
Energy = -59.42209747 eV
Ag 11.837018084090007 10.264704036244437 8.990278976280202
Ag 12.418811530880362 11.637049578459822 11.384383171843155
Ag 12.82866228289152 14.51364996566134 14.084513018903388
Ag 12.466653289999366 8.79759651885906 11.425970863742913
Ag 10.486613784309295 7.549094629659014 12.857116814438493
Ag 11.269236617213934 10.315700990382144 16.162229446200545
Ag 15.152159591646802 13.0011773078439 13.481969065140921
Ag 13.850142301336696 12.28917385687788 8.340370342023599
Ag 13.944194616814748 14.987417942330596 9.334988199178603
Ag 9.815500203440294 11.859276065613038 17.921481577488883
Ag 12.711181452931054 8.779856674571977 14.248678569801314
Ag 11.545547716967892 11.962606183539373 6.753749846433387
Ag 14.613758493092256 10.317502612128074 12.623286756952998
Ag 9.818085767121099 12.38398091087381 10.64193782584039
Ag 14.483459465237207 10.097328719975101 9.886406342846712
Ag 10.557832549007873 10.242530280806495 13.385000922810196
Ag 11.352939283160477 13.743354720056079 8.83602645682195
Ag 11.25877969487242 13.266038820590753 16.010984181961
Ag 9.004106570428648 11.801718504536124 15.28182354531604
Ag 14.99670821587372 12.754207852877819 10.781073669661613
Ag 9.338276077200236 11.053507498518488 8.192270988549115
Ag 12.891480317680434 11.671699131931948 14.378663286803942
Ag 14.543608516444825 15.382035809830972 12.020039843059951
Ag 12.018312136493625 14.453160574758577 11.382365033636095
Ag 7.391268216952798 11.00763736584897 10.101328673026108
Ag 8.166669681001894 11.486210427103076 12.692248284951939
Ag 13.015158557423161 14.4285535258242 6.7702562193782105
Ag 10.511463890758103 13.081848186755474 13.287182140091607
Ag 9.744494754800671 9.53499388766394 10.80606651567991
