26
Energy = -52.39586171 eV
Ag 13.072114041433654 6.039934179531398 12.921090232457207
Ag 7.8199669989661045 11.886170970047935 9.155103516441603
Ag 10.799685795839302 11.980667366727543 7.668043138014345
Ag 7.041850115668664 9.334832617737606 9.964669411655251
Ag 14.388743382137093 9.305303522144403 9.50976713185942
Ag 9.223736149751554 14.152357448999995 8.310412877947693
Ag 10.549580530345256 9.917388455339326 12.29010573589408
Ag 13.420696662263229 11.806674629419147 8.789278113610411
Ag 7.549657757076614 7.444555437147353 8.123280135222014
Ag 9.605774514181741 8.061130304973473 10.142273370409239
Ag 8.06592512835174 8.353689363434711 12.408742131059086
Ag 12.283969429405943 11.309904936025129 14.186813720298774
Ag 8.243824296889949 12.074159043216941 6.478016926573433
Ag 6.510370640141557 9.965563562654959 7.220729738289417
Ag 9.342281910596409 13.368913695416902 11.038728311497053
Ag 11.700106945928125 13.777895602527915 9.606389642803403
Ag 13.185864674095887 10.772760971518156 11.584017344772104
Ag 12.786220985723842 8.687144094793963 13.640722028581425
Ag 11.823772974282168 13.298210985084573 12.362492017825206
Ag 10.52704141275964 7.126236432617922 12.75243808390621
Ag 9.175485272407927 9.708014864529755 7.877024492579413
Ag 12.465951325233496 7.963689691691106 10.989418868523215
Ag 11.523008208468847 9.904242884676847 9.334121309274499
Ag 9.655523356798188 12.301575073709772 13.690726480100304
Ag 8.012052630781499 11.0830531246417 11.831173932950296
Ag 14.170127590117122 13.319263471036178 11.067754037100595
