26
Energy = -52.98641423 eV
Ag 11.505835071104377 10.401696040571286 17.08672953918813
Ag 10.881380217666562 12.750372454207882 15.8473305973647
Ag 10.639831527664848 10.193237275925751 14.482456393613981
Ag 13.177622694612205 11.199657626804875 14.979813084253962
Ag 9.569731661778846 13.134667399565512 13.419747405667275
Ag 10.672971489756305 15.2931424548572 14.781174706294463
Ag 14.354036201313649 11.786223945691576 12.540371510109818
Ag 13.270980627331662 9.218335968970155 12.962470890716343
Ag 12.448838523386316 13.558906194431051 13.57656926197579
Ag 8.66673092751339 10.576936017593955 12.466127494808699
Ag 10.645520020606346 8.639494184276556 12.114085605808873
Ag 6.929153239512668 12.697809737270868 12.823002601038677
Ag 11.464624463059533 11.338046560540915 12.050650362746891
Ag 9.948946682306358 10.236615372112604 9.86221929705824
Ag 15.23712417054584 9.704822203263033 10.902782048217064
Ag 14.08506414873294 14.287090117485238 11.34543329020689
Ag 8.79705780590136 12.70423857273935 10.707001314048496
Ag 11.289712136276323 14.023655557250104 10.996365145269372
Ag 12.29641076525366 16.114840685293895 12.556991885459453
Ag 12.62058461109756 9.15624358376781 10.187708885671682
Ag 15.80738704057986 12.321109529993246 10.15772255673088
Ag 13.07133025658656 12.100604305039006 9.844285579693688
Ag 14.64232736854485 10.382289053382603 8.284234642138085
Ag 11.896388399684946 10.301709465219002 7.810027297165873
Ag 10.599536449764688 12.715620819502139 8.607923883343137
Ag 13.030190656424152 12.711952031250501 7.156091878414823
