20
Energy = -40.49709967 eV
Ag 11.668030432204093 7.664004947118304 12.885489583290518
Ag 11.810802625203278 10.47169407140986 12.910292688791905
Ag 13.02271246477728 11.848353605594461 10.522732768497393
Ag 9.915264172111245 9.084122451924834 14.566132049944077
Ag 12.647597503778433 9.044631202984403 10.672111527259187
Ag 13.976202601280832 10.089889536883605 8.491626313789833
Ag 11.19499670137195 13.162641376308056 12.305797276394491
Ag 10.360330794858992 10.990372282077933 10.555509291747923
Ag 10.754840738216352 6.973654204476511 10.309189762727687
Ag 9.244116385267818 8.72235443616333 11.932167984752688
Ag 9.0659706185825 11.328002056476889 13.059703028239735
Ag 11.57652993397338 11.388457523697353 8.023364828882968
Ag 11.035131248174489 13.645030067473092 9.558166383116957
Ag 8.634975306644302 13.284693220825003 11.064355639367069
Ag 11.557352402462767 8.587068616210594 8.126633810014972
Ag 8.892616469372168 8.685672272407587 9.192446143289722
Ag 7.543107611608919 10.660242761013217 10.668473151703987
Ag 9.45415149553142 9.938000352847075 6.819853108053837
Ag 8.813731474576775 12.068254048251092 8.499160688952493
Ag 6.843239585819449 10.106964986992008 8.00560838954365
