27
Energy = -55.74377604 eV
Ag 10.843445542137525 15.13789813571798 14.089822032712863
Ag 11.732418379359956 15.18067568666195 11.400476525263558
Ag 9.530825387928937 13.494164663355704 12.299177793820617
Ag 11.885476638710005 12.51008092708839 7.590264191360658
Ag 12.408812420892955 15.114041195426982 8.620259025205202
Ag 10.267845867109386 13.640919358381442 9.57016982072591
Ag 9.0531003902364 12.17367389520652 7.572727221961008
Ag 10.157568091763755 12.547898070755199 14.923846861030416
Ag 8.271517967755853 11.865120276347387 10.385894805770603
Ag 8.700055817130506 10.880917777396403 13.060201845383643
Ag 12.29723275784419 12.95593383589782 13.031040817424891
Ag 7.545815375354384 9.984934457268682 8.515847953109667
Ag 13.014038392585984 12.935065994829495 10.211641959650816
Ag 10.898762519913369 11.183873976793455 11.18835090901321
Ag 11.922538512274302 10.479711730252623 14.166052975310183
Ag 9.561431393649936 9.86249838700196 15.559592437033006
Ag 8.839650820943602 9.140202428505413 10.803187036419587
Ag 10.431105262188035 9.956133204919707 8.499854981971941
Ag 12.319701756200796 10.087154128640465 6.351303744405719
Ag 13.188005735100637 10.454427956719528 9.02633134092365
Ag 13.563398410091642 10.674961902745121 11.824469776864726
Ag 10.169843530160312 8.457779460691722 13.163170119260906
Ag 11.656507827600226 8.014336640590244 15.473284750244282
Ag 11.542718512822761 8.45147883059906 10.684257505939756
Ag 13.09643255354108 8.180944176404868 13.061866107686452
Ag 12.450121408668966 7.939244752482076 8.100814366259279
Ag 14.275365478773356 8.303225408921554 10.446952959623541
