26
Energy = -53.32597806 eV
Ag 9.7890698694201 12.181700649306409 16.20558225232602
Ag 11.177397445494284 10.147458119115294 14.840474208444082
Ag 11.634271014715726 12.96687198085696 14.323396280186337
Ag 8.280913791112011 10.380553064279626 14.667618277017127
Ag 8.9034694986146 12.899145619841692 13.650236143042548
Ag 13.517945321089892 11.197540139046083 13.278713720751863
Ag 15.085873955206994 9.182651129261947 12.173389147935055
Ag 12.356246998693132 8.728525570999036 12.55793936242541
Ag 9.541180356785173 8.674704152459459 12.874993294619165
Ag 12.619250345646295 13.287643418364652 11.553535255532294
Ag 10.832531491057559 11.105908710807547 12.207339389379008
Ag 10.545684345420149 14.890770711930136 12.552372973254066
Ag 7.997601543346348 10.888331743148903 11.88772326254413
Ag 9.42590561806937 13.095071611754523 10.745459890604199
Ag 11.862679684521558 11.192428020444996 9.597879775842987
Ag 10.675968553156427 8.617622025999957 10.290143014137046
Ag 13.431649385377451 8.840318869383392 9.901572540837666
Ag 9.101523542427637 10.711123221371937 9.260444077238574
Ag 14.489432118300854 11.42771269263948 10.601655210822011
Ag 11.269521797160888 15.02615702175071 9.864871244780158
Ag 13.288475346831513 13.297431092060188 8.618849653341313
Ag 14.209622493348167 10.631295552909585 7.918601775201725
Ag 7.917115057975197 8.485238173234015 10.494251524616482
Ag 10.389634265563947 13.019965201403922 8.097498695744758
Ag 11.532658434179972 9.362762782861056 7.626266293382314
Ag 12.202475369539624 11.841045260363732 6.435708474606044
