29
Energy = -57.75547933 eV
Ag 13.38194157637314 11.102324311482548 11.336666152725657
Ag 10.621055548332754 7.05830864793779 8.61187727818432
Ag 12.23317924481145 14.650592856029178 14.871259942456756
Ag 13.255232558989796 6.812473590355265 9.15064208831053
Ag 13.079482354698106 11.989166324802234 14.09404378136475
Ag 12.606451629656611 14.27457003675339 7.787175608196074
Ag 11.587857742554084 12.473124009559205 16.438159834543818
Ag 9.080296473453288 9.062393283393842 9.84674482684938
Ag 8.769554308816653 13.544514017964614 11.81513364611579
Ag 12.222958796581255 11.713466243671306 8.866433256109882
Ag 12.031941922033063 9.38390047955153 13.004469517100267
Ag 11.491490475496677 13.764309073408546 12.353611768604036
Ag 7.644997023786779 11.141794745853021 10.943022335807495
Ag 16.157817520938035 14.636428450082661 10.921856939320394
Ag 14.840133294760083 9.903511285498789 13.411816079972052
Ag 7.803507727222544 11.665447922733454 13.733543043206595
Ag 10.493671856951897 11.286857453826386 11.090946247514477
Ag 10.396873034886854 10.95209915620932 14.52075640968548
Ag 15.680514221884357 12.27880537531522 12.322693796302076
Ag 11.954879339639021 9.120933612740036 9.926012466392983
Ag 9.660716026932693 13.619900452548286 14.562717430129775
Ag 14.135871297156616 14.46530117868435 12.921680630466398
Ag 15.161632709888737 15.12047502777406 8.416741015901026
Ag 10.615146386955274 13.812371645623045 9.733681715692734
Ag 13.611182544141021 13.750725234049563 10.28182317210402
Ag 14.08031091515343 8.193837881166877 11.413848563241483
Ag 6.0345343195672685 13.046291317959525 12.085260971034007
Ag 7.954981829379718 7.023310463202433 8.459737085629115
Ag 9.121924311797885 9.390515587277207 12.6451162627135
