38
Energy = -81.04848772 eV
Ag 16.24561847735832 15.261047128400977 10.216345290132601
Ag 14.810314598476891 13.279946926626629 8.726246172441424
Ag 15.361314599395355 12.923123674978806 11.463407089543692
Ag 14.069153623798577 10.877042599011844 9.87881609210575
Ag 13.128680684947758 11.405572515099553 7.286068565611061
Ag 15.241963829952914 15.415062433693643 12.843548323239666
Ag 13.512406820193666 14.968191356517899 10.641543870173562
Ag 14.472433543206675 10.598839084319197 12.663878788349676
Ag 11.407717309432268 9.588689228285725 5.931115104513015
Ag 12.732052691182432 8.827651445784765 8.278619938570953
Ag 11.997266043287864 13.307871964843745 8.947284196612365
Ag 12.424536959910618 12.475433196962422 11.764972884974762
Ag 14.053909972020048 13.149803010429716 14.007156982734804
Ag 13.461600507025215 8.34741820134685 11.000377463742357
Ag 13.630043035935275 8.28297702306911 13.938206990603643
Ag 9.668513539324403 9.144129004473402 8.050028116358016
Ag 10.297691850691638 11.772726201552716 7.313160175897633
Ag 12.368554259962195 15.258891069427444 13.220935513800898
Ag 10.71852147722033 14.739746514070152 10.96052996219329
Ag 11.657194916331632 9.761920165100873 12.716292361813748
Ag 9.26437916827062 13.994922572104398 8.712539558675928
Ag 11.18228911629341 10.550344181095237 9.965444297191421
Ag 11.61271765522896 6.85956381569102 12.595345179187278
Ag 11.206644220332436 13.023453928436973 14.39959072942023
Ag 10.954229305856902 7.544944645927437 9.981647598186399
Ag 9.742654574612336 11.644813190971435 12.156181956285616
Ag 12.91387977839324 10.803430341128866 15.034800967169115
Ag 8.411942206904822 11.507418267252786 9.41533645890575
Ag 10.09344698750638 10.587351324174032 14.999873051594278
Ag 9.537605255055203 15.020277918755935 13.418138139739842
Ag 8.714775205138904 9.107022837214293 10.707598677526784
Ag 9.413834330009879 8.26117334438856 13.68672540745367
Ag 8.074040018787297 13.71397757561019 11.29385319570541
Ag 8.117406326731496 12.760512782958356 14.102549322985185
Ag 6.987347042335658 11.103884771716148 11.858044315472611
Ag 8.949725606760344 6.495312489533076 11.626545729751266
Ag 7.451227735628921 10.101431517364956 14.418506917258673
Ag 6.795174691503906 8.216889716685339 12.461552579082896
