36
Energy = -76.42464255 eV
Ag 8.902424622198982 6.349700364085911 12.8462814292572
Ag 8.096721428314238 8.869621185986672 11.88206877895787
Ag 8.478159394418547 8.350203651701118 14.693595950120548
Ag 10.415913404134265 7.535230797739882 10.816091194097126
Ag 11.059097750450837 7.959071206313966 13.527384553080125
Ag 9.455746706664783 9.760970759389267 9.463535925571636
Ag 8.055451791677232 11.565417550636898 11.070129786720827
Ag 8.069521698758706 10.945931413493376 13.861074735698121
Ag 11.966398055743413 8.537059789908078 8.720239411718639
Ag 10.440570026877118 10.454893193140089 12.260198810864031
Ag 10.587119698096398 10.1487614044656 15.238790294550103
Ag 12.820148406733304 8.952999515526633 11.419005629782873
Ag 10.976897112073008 10.643756023890283 7.200081270901132
Ag 13.479830309625514 9.538109024110161 6.563274342929528
Ag 9.467632232635461 12.46557199333666 8.693513535647782
Ag 7.9370476774777075 13.625579017034461 12.966753739879353
Ag 13.188521872603738 9.671004586956768 14.096017631093636
Ag 8.010387799153431 14.253345103166508 10.225467063117394
Ag 14.338993484394944 10.06408310361024 9.234532728966455
Ag 11.865482115891687 11.3177706155644 9.948927085569535
Ag 9.631849148329207 15.199750874884794 8.193104306403935
Ag 15.232479508089707 11.431055983524438 14.626394721576753
Ag 13.393661993542743 12.135257097621391 7.539918325748199
Ag 12.65095474603686 12.071817773868506 15.595679111736107
Ag 10.241702012911766 12.701217529592729 14.218250112326023
Ag 11.019968631238273 13.372224411613713 6.53997957709075
Ag 14.957112450983146 10.693583881492344 11.921966295680228
Ag 12.660550636728921 12.15998757101532 12.61954453261584
Ag 10.437013340130811 13.443765333697781 11.431224800364646
Ag 14.351968741984619 12.808261623216634 10.12399928522335
Ag 12.025130978625128 14.080684341185774 9.052317745491578
Ag 14.778504584724939 13.998429983896132 15.45475754308906
Ag 12.273022883120952 14.550200680718257 14.21393819759803
Ag 15.285901496034231 13.457062497519196 12.689833339114909
Ag 12.963995225440101 14.87937460238557 11.505047698882374
Ag 14.502833164711175 15.995548198280876 13.539375256521243
