30
Energy = -62.13395677 eV
Ag 14.277386297155468 10.818174238933326 12.075437187308392
Ag 16.274089861844377 12.055503741303996 13.572681524498899
Ag 12.970358328231164 10.74253336724313 9.105397649094195
Ag 15.46859343247798 13.161169375926548 11.095956286735532
Ag 14.457408002009387 13.065240816597816 8.549378678256888
Ag 13.335114474333823 8.440434699707824 10.751146107460082
Ag 14.151336165023164 10.998214548877757 15.00130459665978
Ag 12.802147323606542 8.912724900339725 13.675550637296547
Ag 11.687133332582153 11.941307245857736 14.105540153478316
Ag 11.589432832859194 10.382838779314914 11.658850065590004
Ag 13.862715771096298 13.448834782160391 13.37826524430463
Ag 11.706601887417973 13.387864800890648 8.108061388459996
Ag 12.612649005615003 13.045286305752155 10.832729364501587
Ag 13.267831963064488 11.665833635821565 6.471933734668717
Ag 10.87304927870103 7.651821144892465 11.870385009978943
Ag 11.677945253953592 10.022778460778088 16.076785361365257
Ag 10.813289234856724 8.858384918100993 9.27112559140373
Ag 11.255404162698087 14.410758017627778 12.841460011722903
Ag 10.235085521352339 11.650005518848356 9.732130847201278
Ag 10.688467870525606 10.796102890785177 7.121379564849109
Ag 9.97819214762222 14.275585568083551 10.326118315763223
Ag 8.888595285204056 12.986244961444273 7.764353577307184
Ag 9.20716530085864 11.663176744546178 15.326744846192087
Ag 9.997907089550507 9.481773729106408 13.8607284127589
Ag 8.860114562659387 9.597178721886847 11.245557199582933
Ag 9.43233514556843 12.302658562052727 12.479162569737685
Ag 8.178310254918086 10.233780345361792 8.548110286474088
Ag 7.638265033404065 12.518979340372411 10.305686868001407
Ag 7.381769541623329 10.563695810610913 13.434596867029645
Ag 6.227136655853728 10.20468823365796 10.92487747796621
