35
Energy = -72.76537783 eV
Ag 12.337086334508966 7.486643559191719 14.111838964687903
Ag 11.064921074105573 9.909373885772753 14.639855028230075
Ag 13.239848431089186 14.670500151340018 12.799557951773634
Ag 8.303126955103345 9.59418655557311 14.99423157667577
Ag 13.41749828112088 9.867118965702941 13.127485636562001
Ag 12.17363961458586 12.291739551178896 13.78862253596619
Ag 9.376920439356839 12.051494028327786 14.149453789938724
Ag 9.675153470377275 7.780004616030156 13.381239459149134
Ag 14.249177858056859 7.376022949275493 12.058304536944055
Ag 14.175081709255787 12.202863629660378 11.838909567112038
Ag 6.663437355591018 11.445593220941994 13.673086581036983
Ag 11.528601557543583 6.988826211976143 11.480877256169627
Ag 14.825473468642976 9.748407318163723 10.699763717410082
Ag 8.968966175419146 15.546922875602771 10.860159274074713
Ag 7.5314540626595825 9.17565135352427 12.31299086253959
Ag 10.440919183718718 14.342920498496714 12.975014926454605
Ag 7.859186883568072 13.528469897220782 12.323769298688214
Ag 8.783991128598876 7.09156792059196 10.848734550539337
Ag 13.29300872202361 7.716030393276635 9.463832653880193
Ag 14.792605914402976 9.448361951906874 7.881718421536786
Ag 6.719219192526504 11.398507512559473 10.871194780854317
Ag 7.054149685847656 13.895043893468031 9.630220409469345
Ag 11.614683905404048 14.919176118967316 10.495272392176096
Ag 8.001547312093129 6.719553235165137 8.182921525616994
Ag 14.570955434444182 11.937791006446743 9.034322972644155
Ag 10.67503425751422 7.172890230994084 8.801370176070904
Ag 7.320002111939836 9.08041410763216 9.526224143676638
Ag 12.421389606387564 13.559693325235184 8.206672278031395
Ag 12.028786893155726 9.233368260892002 7.498875292857861
Ag 8.097008394306188 11.582579759377031 8.456926226655725
Ag 9.244670937851623 9.204080622147437 7.524060336397598
Ag 9.71040741368013 13.8596832659725 8.735391777298206
Ag 13.319107705951096 11.503912372208129 6.559435818556543
Ag 10.605455414731757 11.625468484063411 7.2733620933737795
Ag 14.285796207459654 14.413542944485345 10.162894031407877
