38
Energy = -80.90110948 eV
Ag 10.000175594773866 7.311338073735689 6.5324950905775525
Ag 12.124646062146299 8.8727846055016 7.457984012515875
Ag 9.5430103386364 10.092853805032608 6.841586893127264
Ag 11.696108635819074 11.769738373070759 7.652861872950529
Ag 14.096415366170001 10.551201791741773 8.478505882308204
Ag 8.253590309036968 8.179615800600992 8.511203355791823
Ag 10.757142980567485 7.027271002758679 9.280732944303804
Ag 8.951436436429686 12.312529230052277 8.428622452266575
Ag 16.397642273544864 11.8662067992319 9.23818249054894
Ag 13.830272177837701 13.368374598300942 8.855464471538879
Ag 12.985212034900927 8.536089539359407 10.132990792958672
Ag 10.426941227543734 9.882320754923022 9.479927600486372
Ag 7.498670400003284 10.387846212562206 9.988998393268902
Ag 11.081472248641463 14.12181528119722 9.029088037776038
Ag 8.385220240482651 14.945705624603042 9.163138858804894
Ag 14.914592308733042 12.838137727664424 11.413599226756507
Ag 15.20432846001203 10.051334308016271 11.02661948577351
Ag 8.85060798277635 8.153570675591075 11.238915163214806
Ag 11.381356005982465 7.072153936282226 12.014920146751434
Ag 9.57016903914655 11.84957680694973 11.187815727748438
Ag 13.83170475317993 8.29628355980685 12.762944844477932
Ag 12.428068824221796 11.66699319716953 10.563153784633172
Ag 9.762596719765469 14.680021262310568 11.546309690533347
Ag 7.865849205506461 10.310970993419705 12.826316223373226
Ag 12.670003416720016 14.54968581806575 11.28363163649991
Ag 11.249187793264332 9.839476037691817 12.280109099362598
Ag 7.192522912244671 13.13361426121333 10.868791377032473
Ag 13.84470154823916 11.02056158117101 13.320808573253732
Ag 8.404335374419652 13.049079173392244 13.469681565490383
Ag 9.57825161731386 8.294852745384134 13.930471755089133
Ag 13.850052426291388 13.796116156823908 13.827358468352038
Ag 11.355472264874763 12.66022236507362 13.08593761606153
Ag 12.133524659967177 9.266726700021277 14.838378689702635
Ag 9.798487152175086 10.928246681262186 14.834966258022778
Ag 12.442186535186034 11.947530665781567 15.608277886376591
Ag 11.379846854939132 15.36647178308673 13.704390238924411
Ag 10.0996243737523 13.623161520332603 15.577085179910162
Ag 12.580294685088237 14.739036357870887 16.15982158825141
