36
Energy = -76.6690886 eV
Ag 11.033177865261196 10.947071039861626 15.149201386537294
Ag 10.018283037644482 8.30309393610084 15.016338489622532
Ag 12.154658305102558 13.602619379858076 14.827369439208505
Ag 8.398209241091017 10.425540112843576 14.18749076432955
Ag 9.431689078942258 13.124324561081131 14.130317180485209
Ag 14.147642106629847 14.046846190995481 12.674310092920535
Ag 15.026077949674997 9.595210410550262 14.066192986032846
Ag 12.27034587498464 8.885894646084095 13.455611629521552
Ag 13.207491899495716 11.515607797918912 13.420622223770167
Ag 11.007317022754115 6.470083226490137 13.108823539678596
Ag 10.54050218721602 11.226778207734874 12.308760123792906
Ag 11.351525124752145 14.123172023165866 12.247819167885606
Ag 8.749803618844254 13.49201050394866 11.358402796354728
Ag 9.374454243093314 8.51365497383955 12.289601216307851
Ag 7.784374347554938 10.602503974549505 11.374216292804528
Ag 6.833420921664624 12.514196857892115 13.181154312695426
Ag 15.628417335739439 11.72178218975226 12.02489641487053
Ag 14.153075299587993 9.471471330318629 11.462854466100238
Ag 12.757346118175299 12.132484997751279 10.686930049757583
Ag 13.195199227608615 15.263351546216033 10.355161268195447
Ag 11.574023660133388 9.18711142424581 10.579443576439791
Ag 6.221845407873109 12.702498014224624 10.416574039623432
Ag 10.382311468336287 6.6186769942969885 10.378180288387744
Ag 9.942192049912407 11.436723704072941 9.587856109979384
Ag 10.806424521334922 14.174721452105095 9.516052276681174
Ag 15.424660978818261 13.694534689909805 10.09182740809118
Ag 8.805779599056908 8.72775674393361 9.497807260603393
Ag 13.760180805089968 8.455817577339 8.919237669902401
Ag 14.876931290634545 11.063408683452883 9.213969436293526
Ag 7.19280165855626 10.792167196710048 8.564574204745812
Ag 8.265699583049987 13.412639817753297 8.513392782640713
Ag 12.293971291860075 10.64718755083464 7.999821108722733
Ag 13.279829301841287 13.326506255900375 8.21856454352259
Ag 11.1035083111397 8.02912565143242 8.039660946233086
Ag 10.646141296366988 12.763952658042962 7.126630824258653
Ag 9.51049403281914 10.178597864880345 7.122009652385136
