31
Energy = -63.40448225 eV
Ag 14.16304203702742 15.329453520989295 8.660770571487463
Ag 11.976016715644738 14.12433087577132 7.362565084677292
Ag 11.572307717930919 16.077810272410943 9.329788371381067
Ag 15.63157735869213 13.722380679876018 10.374578344176435
Ag 13.627230574986644 12.496276380883014 8.849161545974523
Ag 13.145242643098797 14.819808352137702 11.23146374477699
Ag 9.73178721704155 13.944465954621531 9.05981686070397
Ag 11.053890066389233 11.647863688165534 8.141434486918511
Ag 10.365228839085212 15.018807581080786 11.579064304708801
Ag 14.384902811774374 12.80975724912238 12.691842808297425
Ag 15.060083654857248 10.985946120222847 10.684775531198532
Ag 12.742751243838192 9.911387114700954 9.471530581150363
Ag 11.911892373592305 13.748836178555994 13.527485055586219
Ag 8.46335299299437 11.483513677363915 9.183688351130677
Ag 8.097859584554998 13.3544916535965 11.238852752531306
Ag 10.054011393268567 9.170748184727108 9.044204716225172
Ag 6.498374486899096 11.02161747476963 11.071786488223664
Ag 15.2409987757551 10.232969906864424 13.396325210639947
Ag 9.107342157826777 14.02288864495543 13.808656058792112
Ag 7.202748467018203 9.030202579562234 9.130348123567881
Ag 8.240163521373841 11.404779026886729 13.251373070510304
Ag 14.138494368838105 8.51053799274913 11.420224833292966
Ag 13.157069648648996 11.598200213756307 14.820417966768202
Ag 8.663017956340818 9.319996942990787 11.457528036566867
Ag 11.320134399213892 8.48327802022969 11.447138249045908
Ag 10.380622898615696 11.888902181381782 14.996591302990597
Ag 14.501269162261808 9.457918454469734 15.991085667807106
Ag 10.071114139918743 9.3303445887364 13.849475472533188
Ag 12.86516944384939 8.707520387633203 13.940462382206006
Ag 11.632957817547677 9.730185322266157 16.191126673930818
Ag 12.781103591119438 6.396538838527102 12.578195412204282
