37
Energy = -78.67500371 eV
Ag 10.507158745714042 9.363771046242329 15.468056692555859
Ag 10.60192051711067 7.636587870781013 13.172984087476953
Ag 12.909769152279406 9.148370779309781 14.028269506424527
Ag 8.219149933713533 8.3592870072133 14.330217079658787
Ag 13.136094694014576 6.7937518883746515 12.525088840311815
Ag 11.684668411465433 11.661631984430517 14.613382601342312
Ag 10.737962075161041 6.875135652881318 10.41805732078012
Ag 8.344917912680124 11.20325151319071 14.816561425298417
Ag 8.325879769036169 7.89345168910257 11.486079711877187
Ag 9.548912877383357 10.277032943358828 12.50930049344723
Ag 13.493509636127758 6.841039101543257 9.831566025405857
Ag 14.124377806496812 11.45553724543451 13.070382855270534
Ag 12.048738803347634 9.232696693765298 11.267209388979404
Ag 14.789855247397574 8.948656881060472 11.6936949924846
Ag 11.647051386299442 12.061567365501519 11.888994474240015
Ag 6.436086835454032 9.801762658634146 12.88785648150736
Ag 9.687689692435134 13.315133276313922 13.506941864581211
Ag 11.804226238686471 8.558198710894407 8.365405609946677
Ag 13.99104166550223 11.277702076967286 10.302751882870412
Ag 14.63085945397473 9.074092636780357 8.801138075012826
Ag 7.4089635577797 10.247996114306039 10.366122827116929
Ag 9.007772714876547 8.468149812586773 8.767818480277535
Ag 13.8682434713681 13.817670908125491 11.395429657862245
Ag 10.266580508031398 10.781643021761608 9.733927832955942
Ag 7.2832820951322 12.356727266460675 12.362106645868804
Ag 9.242626602168583 13.363916595663826 10.742912075089382
Ag 12.971251549456575 11.039371921775562 7.73949942838594
Ag 11.768304121789496 13.194931904871721 9.345622455087016
Ag 14.32502300793926 13.450706368875144 8.502477106809202
Ag 7.666663797495736 10.752441191040836 7.691831416412906
Ag 11.305903112022158 14.937229335396712 11.727485829874759
Ag 6.837255760167401 12.818747675217073 9.517777258423852
Ag 10.345419140121649 10.542769972114717 6.91125944244557
Ag 12.987052032788787 15.784846177667134 9.57865084960267
Ag 9.198032981472673 13.03573210916441 7.941696982135164
Ag 10.218677363486275 15.45607327659387 9.079650832577395
Ag 11.608590992044299 13.142703716357943 6.577815661946956
