31
Energy = -64.12998067 eV
Ag 9.55631388110373 15.476105942199398 11.691845193147325
Ag 9.733595564194676 8.652566278320688 9.978505556613344
Ag 12.252929470206364 15.707194960172682 11.320898530867817
Ag 11.417597785149942 9.417994848808974 7.823375095287541
Ag 14.469112061538894 14.088518186809617 12.180588395768948
Ag 9.093665444425573 13.220463505000657 13.47407907994409
Ag 13.681584867009079 14.258006395533661 9.496139119249435
Ag 14.080547815692409 11.528647407015026 13.353585859648566
Ag 7.029666181540529 14.765944916263033 12.470461645167795
Ag 11.301825901592471 14.19099673079735 16.430093970164748
Ag 11.485678046790985 12.267510378759392 14.481167915638968
Ag 14.329112061423052 9.085912591844526 11.712844010546215
Ag 11.907853514798038 12.74849127852293 11.653515542923163
Ag 10.25273928265801 6.1073206648963785 11.026176844352696
Ag 12.578709948698384 11.943691187931904 8.396527729962258
Ag 11.902720065289289 9.797419351452117 13.357690940182502
Ag 8.425102402265512 13.164745612613363 10.686960922090837
Ag 14.146961573874194 9.507385953317062 8.786068925424136
Ag 9.89704289561621 11.413648506364098 9.104960861369133
Ag 12.046069567448884 10.104326171361992 10.516211633838477
Ag 14.495099018773658 11.739138684067147 10.495056254387453
Ag 10.801111408272112 14.099049142894069 9.44224427541302
Ag 16.462301407595408 10.748869250315684 12.161939925957514
Ag 12.33187937079769 7.2977582352892165 12.336601640649867
Ag 9.643800400618169 10.909057251645912 11.849234251929834
Ag 9.35521097439302 10.474490167800322 14.523098226954266
Ag 11.237796627722192 15.10020588022802 13.863096832088011
Ag 13.653684338832859 13.89703986679106 14.882036577349162
Ag 9.637935566799166 8.197515887292763 12.79697345442861
Ag 12.40835680916058 7.419271332048635 9.593163274725569
Ag 13.742563987654798 16.354181899773167 13.61287098985669
