32
Energy = -66.909387 eV
Ag 14.584526334286183 13.011581578470496 10.076522450991527
Ag 12.480007346914464 13.6759419607379 8.341604438016951
Ag 16.31734539377093 11.987615188443892 12.029141932821148
Ag 15.37341419700745 10.247091450819932 10.092234614651236
Ag 14.226314185745789 13.541235539691014 12.976866006078682
Ag 12.158268753169065 14.00256228180563 11.137755141799223
Ag 13.411111449498467 11.040773632051264 8.29827424741658
Ag 11.332830647195129 11.792899520768783 6.602995046121027
Ag 14.709328785878286 10.918861651015304 14.024654758442399
Ag 14.428231459220676 8.72119661539974 12.263515059305961
Ag 12.922354563769343 8.818078921567361 9.925521597394242
Ag 13.035115605055005 11.200794892062705 11.696773861795581
Ag 9.910886859048073 14.342452280882483 9.464527879722905
Ag 12.254736104160186 12.183771037094994 14.539909124068796
Ag 10.983412841476342 9.39462459743866 8.037258880757069
Ag 9.046997064356178 10.149513405127047 6.220395173404392
Ag 10.965088253518074 11.697124402597748 9.80805892377221
Ag 12.236628380142836 9.462450596755316 13.88500542949055
Ag 11.799000389401394 14.78716378827543 13.81071225119195
Ag 11.929645648822381 7.339825200701531 12.133151533525602
Ag 8.881767097146682 12.38662228856272 7.807523348784352
Ag 10.246754715264489 9.033919876829016 10.74280943440513
Ag 10.196811152842493 11.282294576137815 12.628162127095038
Ag 8.199510520365001 12.304812399946197 10.522074595877323
Ag 8.264393127371019 9.90753224472112 8.962446270585348
Ag 9.556422719181624 14.090869514361732 12.232325522901283
Ag 7.724884220227316 9.845264717284856 11.775411948976501
Ag 10.097399649732647 10.529254873289071 15.426848847126111
Ag 9.6317727786051 8.484315688938974 13.436633265850647
Ag 7.571657831363142 12.343061172454467 13.265122288157485
Ag 9.668348581716726 13.215085569367165 14.895675488967548
Ag 7.532411622232457 9.9364320615393 14.582672282880766
