37
Energy = -79.06720521 eV
Ag 12.036929311075948 8.761128357239018 9.019435309676933
Ag 12.466464835075657 6.6618071055945345 10.771746591685394
Ag 11.646038422847159 10.881310285328608 7.2603542302782
Ag 14.154391214393229 8.855515501295805 11.0340830501714
Ag 11.050233069828673 13.260470253563929 5.819667507385745
Ag 9.045963427881912 11.910891755888224 7.16138204818444
Ag 13.741875155791918 10.991856828531224 9.226564472819451
Ag 12.905295686282363 13.352622054320264 7.866534083361186
Ag 10.199351558016334 14.188013236148285 8.38231269510578
Ag 12.417219031974458 7.739592372569659 13.395234072169778
Ag 15.623456920468945 11.206271734368627 11.39516603721061
Ag 14.870680112374469 13.530669134363038 9.812128167466769
Ag 11.011984136372286 11.94733487704818 9.89623379904245
Ag 9.41602575836138 9.752284297034619 8.852859506551
Ag 16.843222110711135 13.731440980519762 11.779477251285
Ag 13.044600861904675 12.312650215491134 11.809187978753435
Ag 14.348613076527718 14.92216946568334 12.193185684542456
Ag 9.835099264708118 7.637920156553146 10.62298119810183
Ag 11.537913808234027 9.791267882877642 11.668943453322495
Ag 8.197570376058085 12.237516664491931 9.776601882706592
Ag 15.199481099270557 12.69097619058815 13.788330199806863
Ag 10.602481500508757 5.705704572239787 12.566298274551489
Ag 9.606618560687851 14.295677309755774 11.14506890602603
Ag 13.866986748324083 10.167757206672713 13.543828922389435
Ag 12.258678830809398 14.67983691321013 10.275600171998466
Ag 8.596764103080607 10.036960951999284 11.528425981163418
Ag 13.82631586599638 14.893121788224171 14.918893360336767
Ag 10.369684935466777 12.103647383409113 12.811361529478285
Ag 9.568926379449003 8.118971055559665 13.41062873892165
Ag 12.590455946234885 12.439742608890752 14.758165452274312
Ag 11.240862362367958 9.99580814425359 14.662081523489864
Ag 7.5608868853108655 12.521583136336417 12.485023833470109
Ag 9.04921439952396 14.460297829827738 13.908787478405879
Ag 8.407914887079084 10.465020955599368 14.339757383606376
Ag 11.68797769516812 14.693276842700929 13.097068791047535
Ag 9.979874816640493 12.404096992512555 15.641041394711445
Ag 7.22374821023687 12.811235832443215 15.273055205047637
