31
Energy = -62.43501049 eV
Ag 15.71795272689129 11.413637778822919 16.340192567892913
Ag 16.24792042600407 14.12702935733052 15.689072062533016
Ag 15.683290049114811 15.053189947628024 13.100256173675307
Ag 15.54570607024419 12.37000134971599 13.722469989200086
Ag 15.588848512152973 17.42427917648393 11.784667452422033
Ag 15.934370961468886 9.627522219299577 14.083048616391954
Ag 14.84621087248632 13.157604374293765 11.060861103478802
Ag 14.109882855217933 10.679857425340234 11.997844815922456
Ag 13.571272649436299 13.154699622082683 15.89758335226889
Ag 13.60351482316535 15.706481718620488 11.20987381405691
Ag 13.716473587406284 8.197861691397694 13.053854702858144
Ag 13.456447372538182 11.314696649273843 9.388184385733815
Ag 13.44361106283689 10.557322920743204 14.854594993030872
Ag 13.084785970065843 13.791497267415593 13.171003133358159
Ag 11.927050025648347 9.79679607025786 7.6783046925103795
Ag 11.177894250388078 12.161222241790474 14.448126652930329
Ag 12.431648113965828 8.914522694337746 10.531641742472594
Ag 11.440911837398017 14.803686204793745 15.1897806954244
Ag 11.380093340730955 9.760919457398849 13.1248237446233
Ag 10.606531257440064 10.914502663657517 9.784933758745348
Ag 12.057527920399997 13.470030378067836 10.505358488662694
Ag 10.350269983580404 14.269520897241 12.638501984838797
Ag 9.498576692141043 11.612276320554779 12.268063236861364
Ag 11.372697733444857 12.635279438875802 7.863272113707473
Ag 11.245045538132626 7.071712654984806 12.386245770605933
Ag 9.50690127655667 8.851411180752192 11.217988874166638
Ag 9.310871305033261 13.387172570700274 9.984835077744926
Ag 7.845761981523513 10.79819039711904 10.03935043333195
Ag 7.883070621135949 15.075160070166376 11.636113776526827
Ag 6.511206780382498 13.187882489775209 10.285965896225154
Ag 5.214915052712202 11.025294420721684 9.37444754744238
