35
Energy = -74.43196665 eV
Ag 14.074590523337621 11.965319716737191 8.244967786220695
Ag 12.308326213473364 12.224984712458504 6.118219679931546
Ag 12.39488588569959 9.758207497360043 7.478104307312719
Ag 10.568354680207184 10.172362736128921 5.364420311060445
Ag 14.063821196409162 9.556817779174512 9.754923449152425
Ag 11.525635959569621 8.41721337628432 9.842139172326132
Ag 15.74115009314998 11.669486054549653 10.512447079333416
Ag 13.28174214855982 8.22925287301829 12.134606261162153
Ag 11.78844898221798 13.787137492237798 8.397914683488132
Ag 9.973267642009354 11.722578288882074 7.616795377300836
Ag 9.703138610491303 8.882698962550139 7.685442969527255
Ag 11.761358340699477 11.33618213312295 9.884845938031985
Ag 10.554571876247664 7.136075256626747 12.270891010287897
Ag 13.663535347736119 11.031384468798814 12.209415147133862
Ag 12.325659189644096 7.006455459772104 14.432751027200855
Ag 15.275539290248563 13.216455792233322 12.892803536128042
Ag 8.897108851823793 7.562040030837681 10.021102083183091
Ag 11.002698910217923 10.01491621473312 12.283346365297442
Ag 13.6208487847575 13.563010363714868 10.59992682512981
Ag 8.993631634021645 10.387743530284764 9.944538345165588
Ag 12.802616555043597 9.739566866975833 14.572235535428804
Ag 10.083497911724942 8.648778803923621 14.662292243182877
Ag 9.493864632400102 13.208903956054796 9.964783799316082
Ag 13.133679226566766 12.571146548326338 14.563178163054681
Ag 8.372279287063238 9.005047188511139 12.354152809211842
Ag 11.29281735676575 12.835654761946296 12.280667980459173
Ag 11.325297724467237 15.267963419933865 10.74689928573959
Ag 10.556557645874177 11.521669749941278 14.805710524993664
Ag 7.960919749459632 10.493159527204723 14.675272394054598
Ag 8.483531782799508 11.867597594859967 12.274995276946425
Ag 13.10665512235746 15.001051173656146 13.04555058033192
Ag 9.091012957248093 14.658745462094435 12.359296775245056
Ag 10.891123394589535 14.37380455989411 14.70963852874917
Ag 8.326033950835702 13.258753604334322 14.697894263417004
Ag 10.87153226282755 16.680924386340596 13.141090796817313
