35
Energy = -71.98293636 eV
Ag 16.50600490960291 12.665425806377172 8.652364448622656
Ag 13.00866655600692 13.111302883233488 11.726829187353324
Ag 7.779448776822279 14.635728184313377 12.930193264037218
Ag 10.92393084359269 8.273676394330119 10.936816865688002
Ag 18.01244077194603 11.428992261317136 10.688045921495313
Ag 12.411467059587359 14.475671224164326 16.169369525036938
Ag 13.766699457691445 16.646910910123975 14.885710274221646
Ag 14.370220795350226 13.962254994337611 14.061665053781956
Ag 10.037441927726853 10.317302582252692 14.867324748003323
Ag 11.916676777027508 12.298884497099342 14.189482275002248
Ag 8.197618515174785 11.985785256188302 13.613689351258397
Ag 12.53369536752909 14.998841346245113 9.673847479432807
Ag 13.988280107265812 16.02212803933434 12.143465709592258
Ag 10.064052193472433 10.74532076535015 11.889020635518099
Ag 14.727444457000685 16.861089341603996 9.617487094908432
Ag 14.758050874040691 14.696246995037884 7.824083474120255
Ag 11.150406816984502 12.089248195353212 16.88963534894908
Ag 13.62384622395753 12.449105903057562 9.010260827036564
Ag 9.727480429548612 13.934450080694711 15.073203717016844
Ag 14.236636082167 11.035362400297187 13.425940345816953
Ag 8.350438004017239 11.906971245266872 16.41061937963556
Ag 14.080631038944322 12.224982795402559 16.233095637243515
Ag 15.402536879347705 14.29125392667157 10.565931963289037
Ag 15.694055094546316 9.968341701345075 15.500399840749456
Ag 10.8905086459618 12.621769291520701 9.778134410200629
Ag 14.483751751222782 10.136275771212253 17.968620995332973
Ag 11.981474755671302 9.180557609011096 13.272978374880227
Ag 12.732434690343418 9.849349785538529 15.817081010236917
Ag 10.237347610279114 13.58343572762404 12.263384292262012
Ag 15.334327689514428 11.350342153599133 10.904181545887365
Ag 16.890573458104768 10.375191062562537 13.042650121073978
Ag 12.705133128766272 10.417646600414898 10.857350685664908
Ag 8.176146046803021 12.664737306906837 10.824477102846554
Ag 11.768328128211428 15.297912176067875 13.616245984418876
Ag 12.926379096218009 16.754027100346224 7.534217540291347
