32
Energy = -66.31997806 eV
Ag 14.523535719258373 13.583810872986069 15.551475910751352
Ag 13.16606354159676 7.744736344523099 13.971776253059058
Ag 14.09284858004589 10.380756406484945 13.839137046595416
Ag 11.916409071060764 9.52952158123065 15.763653228941847
Ag 14.053856650182848 11.08750119866089 16.541212140698867
Ag 14.092074977872684 13.103493177611258 12.855046885308353
Ag 12.78188815414271 8.577556950370266 11.30358878197757
Ag 14.992741976941124 8.672638684875448 9.511773435315815
Ag 14.746042604099005 10.924353107680467 11.110745515111184
Ag 12.428031658382666 14.980250107351683 14.437554572832907
Ag 12.749144507778032 10.346898628034861 9.116529105616141
Ag 15.405448587191374 8.379356537505748 12.28132563573548
Ag 10.828640541174535 9.197802573308984 13.247051520466398
Ag 12.10076674211142 12.208064814935298 14.772985154057226
Ag 13.34293083554938 15.584765290910987 11.705147224038523
Ag 12.124661700995464 11.301223666572662 11.839999293869864
Ag 10.425513449085347 14.356657931776834 7.405097180352254
Ag 9.573829593288284 10.949720893286084 15.119363984744677
Ag 13.344624241807129 13.206477399654494 10.063635016230064
Ag 11.16749706537145 13.93870958492123 12.20618485227618
Ag 10.27008905540519 9.65673277308267 10.43663699736162
Ag 12.398113663175138 9.915943561635853 6.407560088911123
Ag 11.294568896707826 15.367716409655838 9.810542626565857
Ag 9.391189820894676 11.518394291638806 12.42997804691832
Ag 7.385131330643315 12.49523075674168 14.131017434429204
Ag 8.153318623338905 11.529384714201358 9.80185284941126
Ag 9.74652927535586 13.780847860205883 14.571973985125243
Ag 12.432713981986744 12.478434789315937 7.457646956763663
Ag 10.122369483857387 10.62708674548127 7.826663115329509
Ag 10.59250046030217 12.645334326701462 9.72318839938555
Ag 8.291000929924046 13.91837381367244 11.878075680451731
Ag 8.379589651469644 14.325889575981163 9.195246452363243
