36
Energy = -75.5980462 eV
Ag 12.32642462796967 13.29057283056311 6.999897563484638
Ag 15.25803974623435 13.678530675081866 7.812188722928882
Ag 14.451612170227675 12.122998247354742 11.868056793937807
Ag 14.82591406727542 14.7096039616969 10.487678783236133
Ag 10.764496074437155 10.869399499006589 15.763603040625886
Ag 12.429216082972134 16.409297612310176 10.832993187382387
Ag 13.556914060527024 9.803230534434672 15.518570542352263
Ag 13.273559965366461 15.568347829584452 8.319603798210117
Ag 8.312557361165492 12.164201577780778 15.90593424777707
Ag 14.27932354362842 15.795596585713927 12.96180220634613
Ag 11.41044731091617 8.117207565820788 15.874791655993336
Ag 10.550492159554704 13.613449238295159 16.590804191951353
Ag 13.589598686046154 16.97478107210923 15.428662395855849
Ag 13.28281419460702 12.427227331030558 16.423286130115425
Ag 16.366529953835023 13.787845392987235 12.846965088583254
Ag 12.903601671344271 15.041699382628506 17.269989678976387
Ag 15.039486107653595 14.43938182783088 15.356838187979235
Ag 9.990371892870051 15.335239346000945 11.992968133511129
Ag 11.0443986611986 14.319546050751432 9.384820856204389
Ag 10.752326514775179 16.45466256731812 16.04676873206475
Ag 14.109459844106453 9.394762534949168 12.248770560416798
Ag 11.511663590021168 9.21921506154215 13.345148007143797
Ag 16.767145120311586 10.721419304499873 12.266965955203979
Ag 12.254070506381925 13.800893802732652 11.88687011666791
Ag 15.422489794241427 11.73947930612033 14.62880721845621
Ag 12.265371718385095 14.588231237760088 14.595034668461228
Ag 9.95483992243199 13.09975676797363 13.870815352135144
Ag 13.37767328259978 12.458079629595453 9.370668370551813
Ag 9.738252185775831 12.529507052731999 11.155841267108753
Ag 10.774634656579607 11.581471488607846 8.69568241455491
Ag 12.49442580463714 11.832874534265057 13.80953657249329
Ag 13.531285931092835 7.377011385052672 14.094752421353036
Ag 11.620773531038559 17.073378788767528 13.415115807993365
Ag 16.438286123336667 12.441167210710397 10.0292037121077
Ag 15.913745135702202 8.922748426382368 14.283899264065859
Ag 11.957677901623605 10.83710424087942 11.156584254640856
