33
Energy = -70.10137155 eV
Ag 13.414780781624327 11.921526951865404 8.824414545297152
Ag 11.737260214031137 10.332968586062211 7.240305244087852
Ag 10.807224520163436 12.944034067172009 8.006913088501735
Ag 14.073007271622442 9.208486587348984 8.43044952407499
Ag 9.10809648209536 11.280644308923863 6.537195497528317
Ag 9.768177300867308 14.538634967800213 10.146482602400413
Ag 15.054271142537562 10.542571390455025 10.63529854053068
Ag 12.579993607993481 14.475777240343916 9.463962994626465
Ag 9.708387777231389 8.54237975023443 6.554675454014752
Ag 11.853750384979364 7.594036311329248 8.047118380517981
Ag 14.00288320950074 12.98794908704792 11.429880662327985
Ag 7.964028353273335 12.821596656244198 8.7089358658861
Ag 11.228780946185516 12.27949831584989 10.992671186407556
Ag 9.542500490224334 10.60851006780974 9.203357241553766
Ag 11.856037798306014 14.842919046206301 12.104793433546911
Ag 13.881364593345873 8.030750451805885 11.260806736352526
Ag 12.740007065852415 12.898479923265766 13.918585785131638
Ag 10.009354458298116 13.339902529019817 13.510605166717202
Ag 8.210876609886855 12.671321349190668 11.52464445045428
Ag 11.904240676425166 9.591678464937512 10.23867815100052
Ag 13.305328844396934 10.45137756059473 12.7603826987984
Ag 7.387017359178754 9.407703701510954 7.8828004887491
Ag 9.250237260224793 7.460778878578459 9.077441643473998
Ag 9.589189051200208 10.136552940916685 11.942801867759353
Ag 11.006756332055486 10.766997056056706 14.391705946408594
Ag 6.782003585419114 10.708851548160741 10.251043746496427
Ag 11.437266543094921 6.695032588260638 10.650377772690598
Ag 8.160633943465237 11.357746773310877 14.050126475157201
Ag 11.55258241911854 8.277074602297194 12.941443802123928
Ag 6.779372016898418 7.903804300056028 10.20549224479196
Ag 9.153406183672821 8.664382575216845 14.333125236617306
Ag 6.9597164065122135 9.233134019770882 12.629670190069012
Ag 8.97746875810927 7.2731524616836785 11.885458369027432
