36
Energy = -77.27000477 eV
Ag 7.9009918562463435 12.601690369151791 10.142827094501339
Ag 8.340173267998772 9.88028585111409 10.841636555327772
Ag 7.8872663309735875 15.460616860678961 9.54115586015581
Ag 9.528321446033033 7.308419794730982 11.468322822901497
Ag 9.84070286782444 13.826439709759626 8.436386336528349
Ag 9.77642709207471 11.03119172893374 8.675217434191813
Ag 9.661643131525349 8.287805905494348 8.854596804034523
Ag 8.535324243998437 11.833389845628929 12.834684838440408
Ag 9.751987313610828 5.5381053756978575 9.355121753894208
Ag 9.580901138956225 9.253461056173672 13.400978794333511
Ag 8.415814753877665 14.571947315916624 12.104723725110805
Ag 10.696550958244158 12.762571842424416 10.945097161799065
Ag 11.183873429837181 9.849427368266577 11.00928648596722
Ag 9.7059638362351 11.221972834797231 15.411173150164533
Ag 10.474525263914455 15.722140759481464 10.55152541319259
Ag 12.032286068233049 7.760604668984902 12.748014268341931
Ag 12.247895058776392 12.300193788600657 8.380578695547847
Ag 8.904202804663997 13.869926842756804 14.740644627809168
Ag 11.53422085046195 11.549571681146391 13.35393525032832
Ag 12.333164688089067 15.13460929511214 8.545635487837126
Ag 13.429171201341353 11.46334569905737 15.529251695591833
Ag 13.36418823849833 11.791997280167305 11.194985540486346
Ag 11.949010447745986 7.06175992137655 9.972125165839463
Ag 11.03794151875276 14.764200167669383 13.159241558709843
Ag 13.588161928128633 13.67204513223224 13.767265498739633
Ag 11.763357907679167 9.229838099153149 15.13398843911495
Ag 12.229115306888227 9.463013080592093 8.402247635840368
Ag 11.487075218545053 13.474709309520321 15.618025590103345
Ag 14.585994384596725 13.607135245494476 9.190392126794247
Ag 13.909655638610381 8.824087141287668 10.68089504501114
Ag 15.562563806884945 13.554022506737672 11.779698223677011
Ag 13.921791359598835 9.761491064697267 13.32817911433692
Ag 14.65970747314821 10.805795445970489 8.835822942832154
Ag 13.045102564256167 14.78341372914108 11.2193493488954
Ag 15.908996260541665 10.644966757634466 11.415697822249651
Ag 15.699762501841423 11.850353775318734 13.968338075827013
