31
Energy = -64.82264876 eV
Ag 10.478653127358001 12.192187446586612 6.380550783254111
Ag 9.421609787064392 9.609924780601835 7.339566422520417
Ag 12.173323380096535 9.976472495882547 6.958058875112686
Ag 11.345745518768254 8.520014127241089 9.282500753755025
Ag 8.264917350216436 12.065445717534175 8.150756184443257
Ag 8.792411676786607 9.375589454370576 10.066950093440537
Ag 13.021984801285289 12.619231965325593 7.6936457044209225
Ag 8.522565265794695 11.977116530662013 10.98944309806712
Ag 10.763038537969981 11.330114474551095 9.089825592598524
Ag 15.217920353243716 12.427334286329183 9.677603788392036
Ag 8.08614633857844 14.439429541590354 9.650688278998096
Ag 13.510747797476414 10.337280856524451 9.400567434670497
Ag 10.438715759290835 7.900075112085018 11.875619834913428
Ag 8.61828312857026 9.754901416131677 12.865134300557527
Ag 10.6514167943869 14.079009193333038 8.548431474432407
Ag 7.843303795609742 14.34808523512335 12.461681682977952
Ag 10.34560305142569 14.192924861014605 11.344768771646503
Ag 12.647904569283934 13.074677929896175 10.420516271738409
Ag 11.196349561570674 10.771961768557382 11.821952774782247
Ag 13.13180633461619 8.581001533766047 11.534902012855179
Ag 9.40200700695054 12.32043729505453 13.659864992685076
Ag 15.747797922283729 9.493739172564428 10.97853607183169
Ag 9.508011749019914 7.631639531325347 14.486582919539034
Ag 14.110254158478103 11.357737646014177 12.133222879815353
Ag 12.213515806882633 8.242143546652681 14.170400536056396
Ag 10.246011520379392 14.8764544976572 14.126025903685518
Ag 10.368015785834112 10.154027507831927 15.148024391879408
Ag 12.26233962237723 13.143825078158695 13.212995930448024
Ag 14.885760498389942 9.051212863303963 13.652818597665641
Ag 13.05772179680596 10.892980750107343 14.682243641841511
Ag 11.237654284130757 12.750650466555028 15.76597814179109
