34
Energy = -70.11163785 eV
Ag 15.350772701819889 13.324018071753024 10.376474846761159
Ag 9.221731617502924 12.370248717587074 14.245563550105055
Ag 11.691434046356035 14.012747970527291 7.414184551692865
Ag 12.847356076620201 15.27780001662239 12.96467618522974
Ag 14.933507628213215 11.563752256247529 13.836780591542727
Ag 10.535880981967255 14.141774033236162 12.074527643513967
Ag 16.451665342934817 13.981116060523723 12.880881468866743
Ag 15.179956918750435 16.04748654997967 14.267254007416813
Ag 15.729267510252294 8.08738814042095 9.866347168967035
Ag 14.643284055955528 10.582412995348935 10.401807992285892
Ag 13.260638513486999 12.221235772045704 8.711720866320965
Ag 8.06426374672176 14.730228498412355 13.292013697233466
Ag 10.816063234880984 13.059459984019 16.62224483026491
Ag 8.320808218752774 14.178854242055417 16.14609376634108
Ag 10.609696063149908 8.513206005310504 11.609385018957115
Ag 15.040010599115224 15.885727848608896 11.408193791176744
Ag 10.590286677450052 11.195648428187235 12.105369129761277
Ag 8.26589741292023 12.581013532384254 11.467160050520944
Ag 8.22256129001872 9.886213050605758 12.368212903303657
Ag 16.9186237536212 11.48618380994934 11.882029397216339
Ag 12.089350216330288 12.454913285759686 14.158442518763529
Ag 15.509116018481773 9.094838976255742 12.515413457613807
Ag 13.164762066935912 14.719119197562021 15.684941508744952
Ag 13.200790981131846 8.19808196385713 10.84320722620361
Ag 10.550451713975503 15.064319028164121 14.66846657228637
Ag 9.319467919017839 10.342681790080995 9.754863708072083
Ag 10.786178935592806 11.262354703187793 7.527159866186016
Ag 12.951904636402322 12.500161302502224 11.534495789360088
Ag 12.719061022895653 14.812765565724293 10.04365287425753
Ag 12.856798783397855 9.907334907672292 12.997092977983403
Ag 13.684401664345389 11.961430884626152 16.33036440058518
Ag 12.875817340333503 13.784272283552815 18.263516968087004
Ag 15.77827222083173 13.611919442642849 15.533304313995828
Ag 10.628053247504258 12.848383699227197 9.692085998401405
