35
Energy = -72.70952183 eV
Ag 16.240404824327086 8.479644993535127 12.361178253301416
Ag 15.849603851280598 11.187041190175703 11.731315015359858
Ag 15.583719079607295 13.812121530443385 10.984627371409793
Ag 14.228679337676184 12.956223707587652 13.285899037463754
Ag 14.558236329617436 10.256490723327584 13.96199354873389
Ag 14.564811402544649 9.19891268656475 10.259650660028674
Ag 13.103958104034042 14.916002472565541 11.517963018374996
Ag 14.475152542854875 11.802575562275768 9.330388687464824
Ag 13.594008836175693 7.87526277162794 12.763615072511035
Ag 11.869724808635837 14.284835395635351 13.918970278695062
Ag 13.95367027218094 14.500730334303423 8.856486297976057
Ag 12.251057798753884 11.66827455229283 14.818558067136061
Ag 12.392576231238417 8.89306207170918 15.014961614690893
Ag 9.35898155018146 15.534727762935445 14.418881265607805
Ag 14.808877234153892 6.527759914151495 10.73008732895602
Ag 9.653340510078568 12.738194627068468 14.578864143176151
Ag 10.49868676356585 15.67102239097451 11.901079708865087
Ag 10.857556895453161 7.8352819480187454 12.938611679810256
Ag 8.176646618152157 8.407443017535282 13.170360063002342
Ag 11.244991055945865 14.715047354854452 9.399587174060008
Ag 12.137322555646124 7.6890044195487155 10.35370682109962
Ag 12.227922260722416 12.610895389083835 7.818329634946948
Ag 7.908898586783171 16.60961639569029 12.200223454990686
Ag 12.658990173051771 9.88800536420988 8.432266658325924
Ag 7.980041824176622 13.885102545467312 12.655007858221898
Ag 9.927013863342394 10.008774969986192 14.628773435315011
Ag 8.516729800613243 14.834988021271396 10.081831301427625
Ag 10.47930265331417 8.191532606116091 8.146145345062958
Ag 9.336745042904719 8.043762231899537 10.637114697985352
Ag 9.474669668479818 12.796991123361591 8.392858306860132
Ag 7.840282198040485 11.172449978675296 13.11140403425247
Ag 10.499379761609724 10.679637209161525 6.877916262109283
Ag 7.688366273661056 12.190823235451777 10.4811750109474
Ag 8.596961828776537 10.136749524381715 8.815149007292868
Ag 6.988043123831097 9.559839706960163 10.96264539531604
