36
Energy = -76.36314193 eV
Ag 7.885555754811816 12.096223769890717 10.381577034020113
Ag 13.50884562859575 8.04111803666445 8.49090493181394
Ag 13.153507326436706 11.192897709450518 11.860481602641187
Ag 8.391092011358293 10.39007241468631 12.60320506051078
Ag 11.05030552676002 15.45460865243524 14.219255527433317
Ag 10.493642302428173 11.660524756362495 11.249533458724681
Ag 13.927852997264813 9.563216528509502 14.020784937145725
Ag 11.69208885497569 12.81389867978526 13.540260266177997
Ag 15.844615939051073 10.608934915327037 12.082354373212496
Ag 9.239904703649614 9.27547794573884 14.958016369415764
Ag 12.222586664953006 14.626001732345753 11.5463779004844
Ag 15.016178645980409 15.437015445487138 11.836384373564515
Ag 11.602981900692258 10.660490683105909 15.298638802746229
Ag 11.715990882089416 9.3725855649934 10.068305677584192
Ag 13.865714207535412 15.059649819660075 9.26434055716139
Ag 8.96237762890287 9.441209934986587 10.070979952215007
Ag 14.533880740637786 12.610115602975528 7.78027512489773
Ag 10.502909384361216 8.689614400392188 7.741374034300026
Ag 7.01140206885944 12.856634593632922 12.997460276791296
Ag 10.030744436776063 11.438981423992047 8.402064653636403
Ag 12.354807173411672 12.693920859070813 9.419824404615134
Ag 13.984502831839077 12.166239691308252 15.161307769025456
Ag 6.847239406078833 10.771931880466658 14.852108237408503
Ag 12.598455777614602 10.566365064511656 7.506724267731699
Ag 11.187268656435597 9.335050681466289 12.834957719386262
Ag 16.409121207387155 10.930179794939228 14.771829406030854
Ag 15.899345078851173 13.22764110186781 13.31615042154667
Ag 9.235409388887962 12.254660777245462 14.766169561178236
Ag 13.926014997865634 8.459274432142399 11.428727366561521
Ag 9.438453627996012 14.070689181371858 12.485599419049281
Ag 9.89477248269862 14.02937113373373 9.71406658194349
Ag 11.60523016652071 13.407738468477126 16.172099508882503
Ag 7.353947136749356 14.812675709600956 10.89500630560857
Ag 14.61672139349594 10.38731284650054 9.497139928812562
Ag 13.703057984365621 14.766408314288102 14.163405747142482
Ag 15.034745633341625 12.941491211556784 10.627536121145198
