39
Energy = -82.76130258 eV
Ag 14.756175057795579 16.73760132362575 8.79706971919317
Ag 12.131286220721092 17.134756798692546 9.842451372072762
Ag 14.13547153681083 15.910097459551812 11.35961056030894
Ag 12.946730426896968 14.59501581678948 8.929327063087326
Ag 11.51739094041432 16.220154437455978 12.449925841745976
Ag 15.701003093662326 14.176371942645071 9.580298002163094
Ag 10.408588474006821 14.933570589625063 10.1661836374815
Ag 12.637882489445474 13.429275107152208 11.492446765518373
Ag 13.552551508251705 14.859550118401334 13.910467805417705
Ag 17.989954438798332 13.448934590587829 11.234149597591614
Ag 11.109498015456081 12.345677882356458 9.29460274126451
Ag 15.462741539843169 13.661677438428837 12.337316650855463
Ag 13.866179673186707 11.966031025782048 9.100155482844077
Ag 8.576317684259065 12.804308414459458 10.465855629505254
Ag 10.907833050669971 15.134277470447035 14.968025565628949
Ag 9.605296744326921 14.065222310041912 12.741646771900887
Ag 16.39314164188244 11.488482967682836 10.239191685628892
Ag 11.806831544434099 12.602279245762352 14.082731969008261
Ag 10.682116770022114 11.329293139583594 11.967309936133168
Ag 12.948737521635998 13.642754951160544 16.36316209959014
Ag 6.64416720277154 10.744498457857052 10.67596228674044
Ag 14.781611187444327 9.359983534531201 9.52215716559318
Ag 7.811422954074552 11.904957115655783 13.013571846295427
Ag 16.451853647865832 8.970809891455618 11.66939161581964
Ag 9.231175025049012 12.849072889473979 15.292455059917849
Ag 14.031862798156677 11.016634021902878 11.967581565214983
Ag 12.119629690392326 9.805685598538055 10.01472319587345
Ag 9.721672109368829 10.087728034397387 14.424470439028635
Ag 14.566075534814997 12.134389203641794 14.597159633397892
Ag 16.882597007357987 11.417021920507434 13.037074699123055
Ag 11.338422427410572 11.205553366983434 16.429473437257904
Ag 9.300846929149712 10.074777506480187 9.923556948208274
Ag 6.952665024324286 9.933046288932154 14.80397691836932
Ag 15.214965350495975 9.433424426105532 14.112107565376972
Ag 13.655122525424641 8.232722592095906 11.942760255998516
Ag 12.488694221585533 9.86102343286864 14.075240325250837
Ag 10.834590036460549 8.491700050320379 12.15647029930111
Ag 8.151712464089128 9.173361916810098 12.342858570937144
Ag 8.614080302577353 10.658211111644114 16.90958463653406
