39
Energy = -83.64263393 eV
Ag 13.760461853228103 13.739501921269245 15.729784826865146
Ag 12.42239016378913 13.539834842215704 18.116143346787883
Ag 14.063133766294001 11.393476164245675 17.295995472413185
Ag 15.286802974757052 11.520407204867928 14.756238243572028
Ag 14.796067280683872 14.09795539929895 13.225854693132021
Ag 15.756881567272588 11.780717839751523 11.980357355313025
Ag 11.841780626369795 14.529954594632251 13.821809447491791
Ag 10.58080282784133 14.551280783374265 16.253680333173246
Ag 15.556900570209821 14.392442552996869 10.53723718514395
Ag 9.467914636815019 12.748573378614463 14.343474483455141
Ag 13.079094794349265 9.668933955155277 15.317809295012465
Ag 11.566730693171445 11.930656087985513 15.995526278591901
Ag 13.012458417609611 15.19007295066949 11.413498685235778
Ag 14.680410066152186 9.86404878158063 10.069548114024041
Ag 14.408805070910967 9.424575860342673 12.862781860373701
Ag 15.801703111978165 14.356117951397453 7.735892160527358
Ag 12.938655755559765 11.926051111515994 13.324877467197433
Ag 10.830086827368696 16.644019644679595 12.241541951221729
Ag 9.076021761580499 15.454101533438532 13.991278920754075
Ag 10.592469497543346 10.253116501481935 13.970311247034738
Ag 12.015740568569885 7.897030357945446 13.420307290420714
Ag 13.438037572270693 12.428671477341002 10.470971147028274
Ag 8.321551751433118 15.858845589352784 11.226809088645197
Ag 13.223192669998886 14.841918514552 8.68319369201328
Ag 13.278179422762713 7.586476678098187 10.897743138071913
Ag 16.18287717865801 12.018520167450221 9.204767102932484
Ag 12.010372202368401 10.04580614679591 11.375654557486635
Ag 10.856339587563722 12.687473641799743 11.653259507469437
Ag 10.651237295158957 15.254362107981416 9.833341972455775
Ag 13.853785544643477 12.301036980449574 7.6648634439947685
Ag 7.425354411754507 13.661662323051305 12.602400675508793
Ag 8.475982965197858 11.138162497453436 12.23703224145304
Ag 12.310478981729254 10.18914929128461 8.55234786072659
Ag 9.568807205966674 8.584337628240418 11.952920679182379
Ag 10.892004484888094 6.159421445856062 11.536885980646122
Ag 11.175606629600773 12.782482911668742 8.714713418701796
Ag 10.851250059117708 8.049120267357559 9.510244775225598
Ag 9.699292692610065 10.624802595923915 9.776502404093923
Ag 8.621891656979358 13.24695403798232 10.07861939872771
