35
Energy = -73.90820412 eV
Ag 15.625162390412578 11.613689387372624 14.268122705648043
Ag 14.538369079936766 12.588094067957924 11.908781426497875
Ag 14.697266333738966 9.717076678420684 12.277019448272933
Ag 16.98419964448323 11.28564562980014 11.848678889715048
Ag 13.312802215127004 13.199820867226087 9.422498753981772
Ag 13.238866200568413 7.864222402735217 10.380887866965603
Ag 15.260723081615486 11.097000975227672 9.662850101220672
Ag 13.363780031874784 13.386874091082655 14.389917771444992
Ag 13.539393930848709 9.641332088958848 7.994513824716897
Ag 12.023161183172038 14.167816195242391 7.169560180206357
Ag 13.212547251610312 10.407343274152716 14.772872915315986
Ag 12.543880884242126 14.454881718164792 11.857350285160518
Ag 11.474523200083702 11.519452513400893 7.870928586009475
Ag 12.226970359644287 8.63203142478215 12.870778430056303
Ag 11.794431027969196 11.682885022159903 12.732232462628112
Ag 12.604153459239079 10.549313195091154 10.416415338237483
Ag 10.995302639355863 8.822965716055071 8.843708949720963
Ag 11.55375293218562 15.636715283009499 14.082350966274763
Ag 10.58952727056845 6.989946612804678 11.046252021853888
Ag 11.21278055979424 15.217263240007258 9.587925891765336
Ag 10.499262333645536 12.47022245763225 10.420356414567559
Ag 10.372002194623159 10.217420308606883 14.600850689949311
Ag 10.459871884969868 13.165257555689385 14.60606842486745
Ag 9.892334381781879 7.555442213534713 13.778433055847897
Ag 9.905300828432654 9.670186947570945 11.510211677189972
Ag 9.407573027720787 13.511786132668425 8.000836474294172
Ag 9.711306852862775 14.62486154796501 12.112718907877714
Ag 8.860806515116343 10.796006032064716 8.760073720212935
Ag 8.389255652128544 8.123356920406042 9.370322207421745
Ag 8.739053336604446 11.973177261640693 12.781416541759702
Ag 8.503540876922075 15.515499882765457 9.685891044602997
Ag 7.85652842141424 7.409604376255265 11.921569957188288
Ag 7.816825927351204 9.501387621367506 13.71913609252495
Ag 7.724844760752823 12.91747536793009 10.33316065521806
Ag 7.206237350784054 10.20557979970879 11.025012217381295
