37
Energy = -78.10737572 eV
Ag 11.194795261699374 14.40103543484108 14.969496775285995
Ag 10.181652991875946 13.040786782298026 10.117058898381442
Ag 9.649501998559327 15.743058104388766 10.588834220253206
Ag 12.364278508678636 13.284893935167547 12.563660060387361
Ag 10.577503130325425 15.022645335285025 7.985755819808126
Ag 7.927922495424514 14.558893417385113 8.443454538242928
Ag 8.587129289390358 9.068579772075703 10.394464848910632
Ag 12.400607507924663 14.881857645536936 10.07450815958896
Ag 12.74223280834528 8.142058664770474 12.626185412838911
Ag 13.986029499828629 12.552441882609187 10.319426178243752
Ag 13.207187959867912 10.10447895286602 9.019393132714034
Ag 9.496226560589053 12.552578796310708 7.2062417130189065
Ag 13.393456311691601 10.833000205181387 13.713101471339721
Ag 14.837392905748056 10.05912505578163 11.351288048485705
Ag 13.979442216776121 7.648803095554827 10.106967176547847
Ag 7.754922151830024 11.542965243917346 9.230274435269715
Ag 15.471982855431195 7.572739215145409 12.464915201035558
Ag 9.577147474675073 13.963283342089401 12.803292560674938
Ag 12.663035505042892 12.313598071081366 15.980934008366305
Ag 14.173177692655551 9.98221988393136 16.373036988583205
Ag 15.48273981302092 12.274520893952307 15.477952089869214
Ag 11.752699178983088 10.845082581310182 11.37016448959164
Ag 14.2560538005947 7.673357936252027 14.945347034798688
Ag 11.241949120942087 8.178982305387182 10.242998453187532
Ag 12.196446649759533 12.62513363068278 8.207878670058722
Ag 15.416373957523097 12.502644278581815 12.710658906696395
Ag 11.73538139259838 9.139479614608257 15.11772042163061
Ag 7.452890413770016 13.74840712330081 11.040090165510575
Ag 8.811630888683714 11.37932128494881 11.943030846289009
Ag 13.98088802567363 14.45348941902884 14.612827070147812
Ag 10.09338609880369 9.039201975966243 12.826968580935787
Ag 10.37256687041818 10.477583476329709 8.824613342110734
Ag 11.722318034898615 15.996395595871286 12.584906413722958
Ag 15.978081636520425 9.869278120008444 14.087335416822523
Ag 10.596324738657673 11.593988892136192 14.08734539007474
Ag 14.48766856880687 15.008632699642405 11.904319888450358
Ag 5.588201368777655 13.256683020567118 9.014778856915868
