31
Energy = -62.86318613 eV
Ag 11.725040023029562 13.78894854709871 9.281034644092655
Ag 14.646136189201913 13.842029079308995 8.96693021782636
Ag 14.576673806661898 10.222365723801948 11.928705867979254
Ag 10.169442075729512 12.554319848350316 14.166959353744815
Ag 13.56457682133824 11.259978683508734 9.5225145614116
Ag 6.313420125058398 13.40454545016001 10.668937113391287
Ag 10.578965421993711 11.8395035032052 11.028465837841214
Ag 12.400466799941405 11.451715565958194 13.13676858622967
Ag 7.883136382556445 13.968450665950433 14.895307079218094
Ag 15.04242000142287 7.829091164603461 13.285581795008651
Ag 11.836806663405019 10.15747148088764 7.648510319844615
Ag 12.499204936203846 8.72972990149457 13.095934241146312
Ag 11.687196675790366 9.349919578373097 10.458506897308345
Ag 10.516130321888257 7.057347768407217 12.112993408273859
Ag 8.717148466942671 8.548698563692525 10.57976715080404
Ag 7.264199507467792 8.921249829334446 12.893746921835737
Ag 7.736299645981274 11.080231565772579 11.061892580480702
Ag 11.582815156806415 14.08234050230964 12.2500364761294
Ag 14.144393965894507 13.106766957483423 11.69272715159282
Ag 9.319451795249776 10.547242927403929 8.7571188186146
Ag 9.923204484595384 9.850557672565941 12.93414502887933
Ag 10.351213040613874 7.940154593123225 8.39634930774494
Ag 9.173752587439548 5.964611801734075 9.912978899565422
Ag 8.8203244125846 13.2751158938903 9.402224289599072
Ag 10.330789945304316 12.561619517301908 7.1793316746384
Ag 13.126159103666257 12.576424679699468 7.065582131943349
Ag 16.182778984872748 11.908236938010301 10.29469734239562
Ag 7.615567180673501 11.447614591442793 13.869616166114922
Ag 12.881056079399777 6.060457069951843 13.181404536555029
Ag 8.580621460494582 13.632891620216673 12.198364663237875
Ag 13.346430160610547 15.576190537777899 10.668689159370594
