32
Energy = -66.84716256 eV
Ag 13.727972872505646 14.717833996264458 11.45239994238874
Ag 14.172619146774084 11.982850600485444 12.502580770824476
Ag 9.792444025696698 13.965364892267266 7.833522878046818
Ag 13.912029420975633 11.65870090419019 15.313476015124463
Ag 14.032756735595626 14.504025835489108 8.67391332544387
Ag 13.58413458995645 14.183017082355187 14.207510302966448
Ag 14.379337754935307 11.954092065389105 9.703291873199138
Ag 12.087628891156614 15.083490269728099 6.771719131333345
Ag 11.852462706546937 12.675520222564378 10.769133936377768
Ag 14.48012285174068 7.004097553212477 12.342439409616741
Ag 11.431294408896461 12.538360285889658 13.588887526317771
Ag 12.202738714843207 12.49308456996154 7.826912499172119
Ag 11.541111830901928 15.344445631531718 9.535898891398523
Ag 12.297073267827775 10.04265699355137 9.19991924522794
Ag 9.217734838391122 13.937121358061834 10.552167496831398
Ag 14.524167377386114 9.495261479727885 10.994978175030113
Ag 12.364105395031622 7.614621229057801 10.638933816564158
Ag 14.227759937751888 9.3762388496073 13.839146909363846
Ag 11.029909557030535 15.144907280347432 12.270035685047578
Ag 10.059633095968076 6.668652178687895 11.945338553305861
Ag 11.973297058321451 10.155032992807278 12.106692100727123
Ag 12.91828172949293 16.706632418576653 13.41329549857996
Ag 9.833833367939409 11.489158309276371 9.14015100258384
Ag 11.078624053604731 15.129707852496843 15.070387400221254
Ag 12.078979486911491 7.601319439924903 13.576945046401152
Ag 9.905718936035603 9.063466577777056 10.499577568171112
Ag 9.312138998750727 11.446341134065982 11.94208832937061
Ag 9.614874958180518 9.01483206408122 13.374285874962036
Ag 8.860492295608625 13.83123594629568 13.401889780054978
Ag 11.464432599899489 12.677173127115609 16.354713912306433
Ag 9.19637957590453 11.374587883374836 14.82992125486267
Ag 11.674548468744023 10.035027949391319 15.074753926447704
