37
Energy = -78.53880323 eV
Ag 16.48966321880302 9.002063882837797 13.006440490834043
Ag 18.201339029330434 11.120051615682492 13.301657781506062
Ag 14.2101824518051 9.338550168716008 11.496593230318979
Ag 16.056562625210393 11.49301464938712 11.432610459229734
Ag 12.186962252221356 9.60662179046293 9.630447430270156
Ag 14.794572238439422 10.640832920647282 9.083493064891233
Ag 12.726182272925035 10.96778534040359 7.1849671944473075
Ag 13.901273071053817 8.720010125371001 14.172540233786611
Ag 15.558038282857414 11.255796347199492 14.313220114072873
Ag 16.885339609905284 13.599232272487255 12.98960086126947
Ag 12.700828734661343 11.125275957604098 13.608952882321447
Ag 14.209800620769276 13.574351843423488 13.541055892118724
Ag 14.89987942744271 14.29992920759627 10.970283287382681
Ag 11.6439676267965 8.61702494700044 12.343663879100237
Ag 13.22633468405258 12.059736541869938 11.015100503780276
Ag 13.775722357604588 13.250418541935057 8.533111065817554
Ag 10.131766586310041 9.967167088841508 7.8097302252779555
Ag 12.117722401849536 10.094205538976588 16.11965504183713
Ag 13.632723416980534 12.451399193495963 16.012893210546643
Ag 11.064970082203173 12.407183446599609 8.917655698113794
Ag 10.063736648135109 10.154652124780988 14.20949337800819
Ag 10.599533730931961 11.164484958332716 11.563401001741472
Ag 9.597349666014162 8.779886226298338 10.355481475797061
Ag 12.097102515718994 14.670494905759126 10.300601093658836
Ag 11.401840719058915 13.579256687785442 12.842498835147099
Ag 10.847711629105246 12.570054373313134 15.519969590586472
Ag 8.496385781278187 11.355782270526934 9.604216308030805
Ag 8.053629567371472 10.182385597933392 12.245041087295856
Ag 11.329253318478838 17.309952037062473 14.353149160179823
Ag 13.114061057419102 15.984023427210955 12.610754572953052
Ag 12.45097564386452 14.939075442856488 15.297893887732748
Ag 9.360531039059907 13.857984414550817 10.628876921482444
Ag 8.701995319297415 12.581145017059699 13.622147489133727
Ag 6.878682141964548 12.690578098965679 11.486206431470244
Ag 10.32065405227796 16.101258175474584 12.047803140060067
Ag 9.6922521376817 15.052321312029573 14.69809619574497
Ag 7.775210263250994 15.027842102651059 12.645344076453956
