31
Energy = -64.87521705 eV
Ag 11.049756017448162 9.575735531787018 6.725114646596428
Ag 13.270469505334733 11.383851042145357 6.838643508911843
Ag 10.582880098362866 7.77640100903182 8.847732031254218
Ag 12.609229022657386 9.801532927457576 9.068475628612106
Ag 12.940993129948046 13.849795071208018 8.234159354770624
Ag 10.819176682345374 12.051894151719015 7.977613837551053
Ag 8.79569474990366 10.096719006842513 8.423576483766505
Ag 14.568679035492407 11.812961177846732 9.312382508346882
Ag 12.253041608961093 7.916412199932814 11.245854937657219
Ag 7.948522305482206 7.90701499401315 9.903677646200837
Ag 11.77502241950449 12.19883391923439 10.762667962801135
Ag 9.911036547768589 6.390787155790123 11.181673324777131
Ag 15.083803300202872 14.606507156029629 9.740795189743292
Ag 10.469973988625192 14.62924176891241 9.133952281723015
Ag 10.244676840633337 9.836792918564827 10.809950791019842
Ag 13.883690190420738 10.22766706797828 11.517630403810209
Ag 10.800757966231577 7.235581648032716 13.678657587036563
Ag 12.567321044576696 14.960885891252346 10.973775069509742
Ag 14.46551756215338 12.96914952331873 11.864375153289677
Ag 8.487702335638893 8.384723490830048 12.648654308696608
Ag 8.987205520427452 12.431518435278624 10.022393230306468
Ag 7.365567393125972 10.390757912114541 10.996238417557725
Ag 9.720506443683783 11.68152372035714 12.972507690036627
Ag 11.805271581712061 9.7737953881187 13.31372937672678
Ag 13.891292425254205 11.416769046901438 14.087381495023411
Ag 12.07993085406994 13.399916182843977 13.340289601272227
Ag 7.390915470466193 12.983943052464031 12.220448763404459
Ag 7.232532606653462 10.62201693260453 13.792100767382518
Ag 9.910961299696682 14.366206476772545 11.861312749983986
Ag 11.336957489651708 11.610557394465372 15.375562795951831
Ag 9.539657812373886 9.501364296260682 14.973543843257437
