35
Energy = -72.91694347 eV
Ag 12.021077414367925 8.578034025790508 9.381472297875758
Ag 8.258691612098056 10.870505737559604 12.786829943398022
Ag 14.857368059576045 8.70382853747224 13.515070232348686
Ag 11.890529873022453 12.733563199028683 14.13217019258085
Ag 14.639890115914195 11.550226320514772 7.362498216164564
Ag 14.420643885158617 8.336927371438335 10.864197196612018
Ag 13.21465602354904 10.584358728445146 12.169127954524319
Ag 14.572192823406153 8.875416533574937 8.214111213625603
Ag 6.788835718800998 13.16903065570216 11.830911740595917
Ag 11.788246877147145 11.820868269866073 16.760477026068777
Ag 14.272497282781073 12.787775782131757 15.758434880786913
Ag 9.481426182256993 13.344523759159115 8.116062267198972
Ag 12.375847781068835 9.937500760185438 6.898320435396544
Ag 11.411848110106748 14.918509624296949 12.29596441592843
Ag 15.253705986867445 11.075327788794334 10.201819721370708
Ag 10.163588132114372 10.604173750373032 8.373637120049057
Ag 9.096387852382652 14.445086015032123 10.710898082788379
Ag 12.05581334138038 12.825357387179766 7.165047033956219
Ag 9.184940765425452 8.091916074897219 13.201120607136483
Ag 11.978227247831057 8.050111363234883 12.240616156719751
Ag 9.161808655531344 13.67208968157092 13.398347953305606
Ag 12.643784756687173 11.409489721724123 9.469088483164038
Ag 9.379039504904837 11.801955675767356 15.450634649777365
Ag 6.923653142746097 13.845677267517095 9.067626499565062
Ag 13.263153031660565 10.283444539307856 15.05383888477832
Ag 15.95155764465347 10.618993561481624 15.224087949449276
Ag 10.800399874861776 12.164371659755457 11.499283162521294
Ag 11.712962976111342 14.322195796239487 9.564525141148854
Ag 8.206144037672455 11.580871359018145 10.064508256269168
Ag 13.574373247904882 13.280220887013721 11.54563738397693
Ag 9.917403987666425 9.513541149837383 10.941127792455086
Ag 14.339807194013169 13.734546675775862 8.927699131218445
Ag 6.879907817721436 12.51589844268245 14.523530099090232
Ag 13.725190362982765 14.763740088856899 13.894002220363255
Ag 10.82930951067274 10.166843808810148 13.745452205575086
