30
Energy = -61.54082919 eV
Ag 14.839301551512728 11.951282911451006 12.163148488800115
Ag 12.55077098150593 12.924258217010195 13.483174153211449
Ag 10.103596743299828 13.868166594972049 14.414365691292184
Ag 12.977769607525413 10.194461896888418 13.241892423954463
Ag 10.838242904234267 11.180606712755745 14.84889604643641
Ag 13.390393028726232 13.997508715228388 11.038448734365597
Ag 14.159598431373286 9.641217214396624 10.7297997920707
Ag 14.660437698657013 12.038001794042287 9.377360380701077
Ag 10.703580138061639 14.327603653075194 11.749630719096558
Ag 8.182565204717177 12.062130693143176 15.121140183884528
Ag 12.28141719824843 7.897253784273938 11.87923951117243
Ag 11.186511325682554 8.458088391023322 14.38302286002283
Ag 14.18007118937702 14.667641724621303 8.47754241155025
Ag 13.244583485253369 7.445116094645129 9.294735898065818
Ag 8.649481871991053 9.490815603671 14.149806320804236
Ag 11.496397555076271 14.390363039257531 9.061054046877036
Ag 13.462478213597254 9.917981918121795 7.998990271390112
Ag 12.892544390437697 12.588238226440064 7.248763726866634
Ag 9.547576992475697 7.366492505570276 12.424766437308838
Ag 10.761438228255152 6.388684472033679 10.059131228318389
Ag 6.498232681969321 11.074891781298263 13.164218764398644
Ag 8.258370787538107 13.104421212413776 12.434756031589083
Ag 10.985141174162013 8.498624741839349 8.168598505258283
Ag 9.004761503076113 13.261191599195227 9.720906120863686
Ag 10.121313662478975 13.077395489782415 7.102706987283505
Ag 7.053407246833816 8.601627350097052 12.02947409719829
Ag 11.2447011141148 10.576783898896922 6.39021007100485
Ag 8.865584241153956 8.50899458736172 9.96218011310088
Ag 7.74296099260849 10.979891708871769 10.696563020927423
Ag 9.348282675987349 10.750830771511923 8.41797919565189
