38
Energy = -81.5684346 eV
Ag 10.71030309344422 13.379227968586054 14.55163543877194
Ag 13.609617388217286 12.47735399866237 15.326246067004952
Ag 10.628957824160542 14.485410995675338 11.920536938451747
Ag 11.360709909881281 11.147082158612596 16.29400731556457
Ag 13.057554741712963 13.798949399756703 13.053088202376413
Ag 8.196394665425 15.126248500965914 10.683000805551904
Ag 10.754043571874503 15.820281304409512 9.44632380952
Ag 8.17692103340627 13.529510077645877 13.123556820033766
Ag 9.132817578024733 11.051037485068829 14.590133782618878
Ag 15.50450542762295 13.648795021687167 11.881937334448924
Ag 14.602498629626604 11.105680385902307 12.807441135710336
Ag 13.20387012638075 15.113920543203424 10.636135195052033
Ag 13.57942537877731 9.714408708523598 15.20252222630873
Ag 9.718313128243345 11.695244754131057 11.772764206266997
Ag 11.880203204945555 11.07080768885428 13.40128571020728
Ag 10.948407733816685 8.704094037285307 14.901953391550045
Ag 9.827137691014107 13.258442016850962 9.320698776931499
Ag 7.42731439951777 14.065454906791254 8.164056470557021
Ag 12.265345138114634 12.315829956703675 10.68469559056276
Ag 14.98469822288763 13.635433983676398 9.15606568831167
Ag 12.994708628472626 8.531781233999657 12.791252063968898
Ag 7.293528852035137 12.455613929905104 10.401996823251677
Ag 9.257112370540547 8.918676520442295 12.703963391976808
Ag 16.014750217363137 11.334362124523993 10.3922737481748
Ag 7.14924191814434 10.817263606888721 12.652961438684926
Ag 12.386396769594546 13.72414464610255 8.214650833159427
Ag 8.332197026479687 11.337350898986248 7.929298831206454
Ag 13.928240135307824 11.18884434384798 8.410794474478292
Ag 11.311983017823875 9.636445575775314 10.680892903550077
Ag 14.194187573155455 9.305785390771117 10.45169443204711
Ag 8.260595686817314 9.770616499839475 10.218760899332445
Ag 10.912082655673723 6.694820832747748 12.878696675708493
Ag 11.1542905938941 11.155767424169616 8.125674956270476
Ag 9.662893865665517 7.283707817719024 10.409115765802886
Ag 12.478788335425534 6.98861507660649 10.493063340287549
Ag 12.535946725773092 8.69822559353509 8.226248393602935
Ag 9.698670842383757 8.78979077023783 8.023054742295827
Ag 11.02836018491335 6.291909292328453 8.18997118259598
