32
Energy = -66.75023791 eV
Ag 8.07876096246703 9.834886511968744 9.031348208080379
Ag 10.001014324670876 7.94765009698024 9.912193498913346
Ag 7.110048128122404 12.426926812389018 9.209292984755859
Ag 9.412613837393456 11.959338385015624 7.655361441665401
Ag 7.396906453836962 11.064190500332126 11.571320069523617
Ag 10.406423474917112 9.404386641170085 7.553530695921141
Ag 8.793316180637648 14.529328456470624 8.64577872395057
Ag 7.644477223011196 8.275751764680306 11.305815917492726
Ag 11.080064577111836 12.248030255406105 10.023995763161539
Ag 11.278784681892898 14.113442465793895 7.4404600376276235
Ag 12.175162350430233 9.711968512871122 9.698313827153047
Ag 12.29230502393639 11.523276942254817 7.519747649594824
Ag 8.779834827595913 13.511925518783416 11.238558195076806
Ag 11.083735553115165 15.044991029039664 10.125887504246455
Ag 7.90722205199518 9.459676885895298 13.79265720801225
Ag 13.489240450494204 13.631333031174734 9.046736357254025
Ag 10.10019622633555 8.05352384296716 12.726432128459223
Ag 9.243479413074283 11.910680257709412 13.52579119141426
Ag 12.42863147500232 7.480493730856607 11.328069068962755
Ag 14.580398691583403 11.023083652710742 9.19136198296445
Ag 11.287306477438982 13.639352562528495 12.581420513187988
Ag 14.441160247361656 8.156229008960304 9.382768098460609
Ag 11.55528217165477 10.632230926834335 12.37094460910845
Ag 13.50379014904159 15.090494719179931 11.478757888873957
Ag 13.78133741103679 12.319528667452948 11.557038106678526
Ag 10.389897189671366 9.725034858197947 14.98190327072262
Ag 14.32052170782677 9.558801854332144 11.724616169327343
Ag 12.759174748119383 8.50237662938521 13.903059916342343
Ag 11.69289735424665 12.17715687080425 14.933662109118536
Ag 13.754311411709368 13.807739649895149 13.969798536746357
Ag 14.141126454527475 11.016744687342692 14.058987383784702
Ag 12.854382440320693 9.98322794119704 16.2781946139983
