31
Energy = -65.02857744 eV
Ag 7.240465338296804 10.784256565425174 13.066967342335326
Ag 9.016736783438418 10.88167484916372 15.213631314170167
Ag 8.308515752372148 9.473682844274125 10.814529202318512
Ag 8.02770957344147 10.682217078464506 8.174104598884847
Ag 9.246352194443375 8.69923847636786 13.48599389187121
Ag 8.681732110397398 13.618473867359974 8.572804660793176
Ag 10.088148092980523 8.299463907185574 8.949420740724005
Ag 8.908774143049989 13.537033101871751 13.907867987934214
Ag 7.738085700168205 12.20574270917347 10.733275319178734
Ag 9.92493299292077 11.489498254369959 12.558233136880167
Ag 10.0645380122894 12.39436432470023 6.557739440086521
Ag 11.261331699678164 12.441165970769445 15.373933488810687
Ag 11.647945433347894 9.837709844906705 14.466343261753966
Ag 9.702059588196024 6.954640000418582 11.3596207957726
Ag 11.156738896825113 9.39422560057885 11.34670260232673
Ag 10.31872780710322 11.313987800479017 9.424365618897344
Ag 10.054314366931472 13.895769884331555 10.968307770850888
Ag 10.2431081949229 9.686453978250137 6.632985773322128
Ag 11.844415902384352 7.379954176520528 13.163886839792168
Ag 11.719102471379967 13.96261037686469 13.175130464395732
Ag 13.548511790716233 11.843822625877443 13.857910492253767
Ag 12.526597770332263 11.236406216134805 7.308302190436699
Ag 12.39347837724271 12.006729853735514 11.212076894512185
Ag 11.580090233336612 13.722173140392805 8.451705220061465
Ag 12.64894442930534 7.40287839701198 10.282220905415233
Ag 13.702603820432788 9.365382902936169 12.451767760664712
Ag 12.865230154184786 14.719612340115036 10.700721501862137
Ag 12.557926792644839 8.416757663007344 7.599420784365074
Ag 15.122322509290314 11.589752730707595 11.461975419456483
Ag 13.644298357055186 9.983906307027864 9.614545011426818
Ag 14.120255430631598 12.714395459996867 9.058183269534135
