31
Energy = -64.65244079 eV
Ag 15.023565496838321 7.907796617855102 12.635607429150966
Ag 12.403722750227733 8.73535107798383 13.255103982622636
Ag 14.5056702193429 9.781463439456584 14.842148140318697
Ag 9.817942114701452 9.671320325004977 13.700387011301103
Ag 13.11579431077373 8.539284169169022 10.488170755682914
Ag 12.075536681014416 11.170577653473453 14.634577356283156
Ag 9.56884225413214 12.429224598288478 13.839419931736774
Ag 7.3238271793958925 10.870795719690808 14.335328437912366
Ag 10.400399974623468 8.641700045745663 11.158934376450693
Ag 15.854874186933872 9.042681192435337 10.193351727837678
Ag 14.560574450484532 10.55312961446113 12.1975236015621
Ag 16.370716628509225 11.823846139989517 10.49143712442838
Ag 7.6642301154788415 9.532899489668688 11.891274997698314
Ag 14.473334951520869 12.584042448050566 14.131649459689452
Ag 11.597824523344846 11.162181793349925 11.757795130611642
Ag 8.283664391228676 8.511055173233526 9.401837903350915
Ag 14.050579488459114 13.13647536368457 11.267886561679116
Ag 7.40774196368264 12.352244256603713 12.006635325045592
Ag 12.019205623641989 13.61672627734207 13.267240048982782
Ag 9.264336580543876 11.177793924478632 10.086272743738117
Ag 13.90775741274603 10.987157194053118 9.412440438691336
Ag 6.616254822125185 10.888635033691934 9.535450202811782
Ag 14.259556315604481 15.210522213886303 13.04958077339975
Ag 11.351614416965297 9.966833710254036 8.757114863450823
Ag 9.850462578077368 13.718118022036474 11.415749292020935
Ag 11.797620653581323 12.835275002651654 9.488270864373028
Ag 8.76297405217278 10.237003844341473 7.399462347756935
Ag 7.739588153856528 13.572372805171062 9.55185669566684
Ag 12.24472768162297 15.25897126981229 10.955933171954085
Ag 9.683603311992082 12.765958131597218 7.723078796661804
Ag 10.105312789769167 15.175073229950147 9.086885169836721
