34
Energy = -71.78391749 eV
Ag 7.618596332426027 8.233031084052188 9.764151418416104
Ag 10.10041277150654 8.284267323047356 8.274890250953892
Ag 9.75332407393134 6.8948121095159784 10.79612607518391
Ag 11.316701045416917 7.554559430094055 12.856580260988776
Ag 12.603738868278024 7.278019418213077 10.307237872356865
Ag 8.015307077052917 10.022013874962994 7.703208639711867
Ag 13.770290087030821 8.792444590331382 12.480565823409233
Ag 12.686479154197274 9.337700835488453 8.255368903107012
Ag 8.554686785970958 9.227018637716 12.29567148241346
Ag 9.74315138897491 10.830521535722452 14.371179897634667
Ag 10.977260626731518 9.458025819114589 10.65255252031719
Ag 14.816431416076817 8.989846252645936 9.920284802384243
Ag 12.098243461066662 9.276830552639346 14.871699460960516
Ag 10.521939702836278 11.191974743086968 8.132954221011572
Ag 12.687738161943921 11.607692778352881 9.98840750586061
Ag 15.103080195156796 11.50089553111172 8.757211745907634
Ag 7.246059044097667 10.873614345032193 10.32114568525364
Ag 15.129686697039757 11.173771983709532 11.661813713661633
Ag 13.173747112761687 13.697621043825965 8.291462880346094
Ag 12.056294728056333 11.097882839925106 12.67617206462585
Ag 8.128525713576083 12.703113864703253 8.250714272846079
Ag 14.43458264990576 10.813736597446537 14.32915361248677
Ag 9.929113951880138 12.089186191053466 10.859299434440178
Ag 9.43838651035676 8.108914995775235 14.730224510928352
Ag 14.74137366372591 13.680569508600248 10.549717180154639
Ag 10.48827644759139 14.067701618384184 8.684594900086305
Ag 7.912466891688119 12.084746935158783 12.777719396726319
Ag 13.746667974576502 13.310116591875461 13.1511032125479
Ag 12.065595108286939 14.220571498954381 11.064565480714975
Ag 6.984242788969776 13.600920435199267 10.634696067261533
Ag 12.147459560907647 12.189928098644035 15.231993767387833
Ag 8.047379174485014 15.448241443599764 8.821946779165042
Ag 10.46162742745296 13.384804495225643 13.329732858960877
Ag 9.349991855600404 14.856126073650193 11.243227254867595
