32
Energy = -67.16560798 eV
Ag 14.280115332531782 9.721735467501182 15.60116356407093
Ag 11.607165142514948 10.174131772594095 15.17303109046743
Ag 10.312802309726747 7.734037741626436 15.251071539660108
Ag 13.46858824299738 12.180881207718127 14.439381779219566
Ag 12.807294562288758 7.884057420823773 14.042382653155544
Ag 10.729695910395757 12.289373898720497 13.554433268746825
Ag 14.256492014964126 9.949538109452883 12.8062728055253
Ag 9.299936052762403 9.818659184145194 13.628992558192767
Ag 11.611456472655703 9.980303269226779 11.844930527504525
Ag 12.39320906843891 14.560325860322559 13.282905287532696
Ag 10.434955575181675 7.453807318293797 12.481461484720517
Ag 13.134968677084453 7.657556891476065 11.27862041520912
Ag 9.648985693529788 14.504917318688303 12.220193299244599
Ag 13.230848289812482 12.422453783526498 11.654490119636053
Ag 8.289149749607358 11.990491347647536 12.223410780065503
Ag 13.801603195843507 10.161258424792813 10.056975615689865
Ag 11.248534643429954 16.83117205834084 12.122041434886771
Ag 13.18525013236712 7.902573203344566 8.524705583745677
Ag 11.209818568208274 10.024576155004066 8.747753974655577
Ag 10.65804123517404 7.45784661823887 9.721257717174728
Ag 10.53803862723321 12.239963303255394 10.550418933448439
Ag 9.543153841198198 16.113943768937148 9.978040331406945
Ag 9.093943844385905 9.552904367472568 10.786484478173511
Ag 6.95757016939823 11.036295465684166 9.92900743538487
Ag 13.529587056726093 10.45451560985549 7.236966452398346
Ag 12.789935022088107 12.610528613154756 8.856333355364063
Ag 8.69601185474309 8.789826583587566 8.140398185578054
Ag 8.963437260067428 11.600268605265539 8.162696188606768
Ag 12.064284239909435 14.786906052103744 10.451706923123462
Ag 8.11371360307531 13.68596593799578 9.952459781189386
Ag 11.267364295100867 11.956022441927171 6.596226664950275
Ag 10.41660244061006 14.067662968629923 8.262006951785692
