38
Energy = -80.70048696 eV
Ag 17.293479229346325 14.677121252746897 11.361009099952504
Ag 15.100898777765186 15.435056321912844 9.714358406527648
Ag 12.729339898402865 16.117153745286537 11.07961185822293
Ag 10.544093794648761 15.638728669773904 9.50195001198299
Ag 15.493359452083867 12.79284330956025 10.462171004866741
Ag 12.875021074698687 13.661208385772662 9.480750678975582
Ag 9.938720653422044 13.062737986392875 8.925764065669938
Ag 14.83712530205768 15.158655021493905 12.560999346538102
Ag 12.163928912445364 15.251708568395614 13.706840379094153
Ag 16.206978160762546 12.830826119094306 13.272024454839372
Ag 10.087503456333103 16.39568530871663 12.19649280539244
Ag 11.965749064551307 11.519001955919515 7.875967136329566
Ag 13.577420721014343 10.872837186548127 10.01283215318723
Ag 13.416164485855873 12.658213474997922 12.411425440864756
Ag 10.9819819204799 13.724522437865392 11.612521917985376
Ag 8.336838748775424 14.359195796102341 11.012334346107753
Ag 15.239379684090745 10.443660061125303 12.205739660450014
Ag 14.157463678722545 13.767693923804952 14.97411233004911
Ag 9.449513578611043 10.359880307083646 8.268325329596422
Ag 9.389048324337127 14.245191940864359 13.872650873956145
Ag 13.575823190519783 8.26178023094765 11.207194025577857
Ag 11.600105487558286 12.595169075606204 14.560995416850758
Ag 12.344335471273386 10.126913709581505 12.897502160705649
Ag 14.077235056247114 10.985331837764548 14.952341881257995
Ag 7.569055796387352 11.876049961735895 9.81764714693287
Ag 10.786810763501073 11.04226003931771 10.772721814400368
Ag 14.525861961221642 8.362941735180522 13.85857033844466
Ag 11.815744111675425 8.906558794648495 9.055332668995577
Ag 8.569991661736337 11.945247963839646 12.461067748633303
Ag 10.760471843463531 8.031929955898315 11.517082384631207
Ag 9.039425494359723 11.728095993576472 15.213446960029703
Ag 9.614390171604503 9.563920910154536 13.541705477609803
Ag 6.934420435039543 9.31633769573469 8.67444921882931
Ag 11.321234788688344 10.095487960864133 15.70663925616546
Ag 8.33938645471707 9.47403714107935 11.062124273788612
Ag 11.775922475995987 7.71725253157038 14.149969663800936
Ag 13.452700114306687 8.528742321027135 16.370898589625163
Ag 9.285641624435746 7.685470493976355 9.113605943190272
