35
Energy = -72.64589378 eV
Ag 17.97352918829965 9.60768555273447 12.606167234602538
Ag 16.42227683295426 11.66590941340104 11.479934056967318
Ag 16.655591764300077 9.337199417188588 10.060807120927212
Ag 16.002687871228076 13.742519189318546 13.21570133042546
Ag 16.199479896542663 11.059305056461975 14.227201109124717
Ag 15.195964777831632 9.17813585518103 12.429050088876235
Ag 14.54005308540787 13.666181619632106 10.817483556767787
Ag 14.795120123838215 11.357747247649273 9.247474985286292
Ag 14.098674589470065 12.74868730267142 14.92847001378424
Ag 13.87360923758986 8.852823086477185 9.984472435540908
Ag 13.518785929315893 14.933215318063471 13.112535311215588
Ag 13.489766677295469 10.085224480652833 14.463021715488
Ag 12.735417717694077 13.166057395267037 8.731849688022445
Ag 12.505798773185594 8.471177388774139 12.389353677738333
Ag 12.164217622297866 15.111679712512846 10.683675709759603
Ag 12.068990288725306 14.519401285930869 15.464453819169162
Ag 12.397701030207502 10.386379630939267 8.189919699182658
Ag 10.665550571309689 12.25402261247053 7.075536443172324
Ag 11.586978921036982 11.769425483730409 15.667010300892596
Ag 10.784099933771426 15.465374255919604 13.201743271141787
Ag 9.714440632864525 9.731809284310039 7.867365121531441
Ag 9.600139340372493 16.15660772803451 10.823125246392472
Ag 10.198481715322295 14.360015688032764 8.799468090029492
Ag 10.78069153687338 9.347590084848747 14.449716184996287
Ag 9.809518387582601 7.950430628729269 12.241214977282194
Ag 11.145116290086818 8.45490316682131 9.869675636699544
Ag 9.51191071129903 13.664737424162372 14.99075159433008
Ag 8.51885218188953 12.02550597611744 8.828853407471314
Ag 8.213041117617195 14.506967321816411 12.62224491959897
Ag 8.603923140619127 9.672326988944992 10.41474543305707
Ag 7.60384409514775 14.374336627360572 9.926064462524762
Ag 8.945067998145815 11.01982340952519 15.722039743019135
Ag 8.31705395029199 10.057518751528471 13.18075770330818
Ag 7.382892248859899 12.042776671968953 11.376325546154852
Ag 7.176075604231047 12.435617228336971 14.109577442595874
