32
Energy = -66.5400306 eV
Ag 16.47200593997311 12.37691960274193 15.681232112253774
Ag 10.320375287169442 10.229172785018733 13.62197502981878
Ag 6.923712889529435 13.835325714272065 9.127217257906489
Ag 9.774450061292956 15.597468088144517 12.40917435488154
Ag 13.051039120551357 7.103474431876288 10.336644148346448
Ag 9.902928657617762 12.998902465509367 13.494237509039989
Ag 11.911752802706635 14.376263560345722 11.019297477133263
Ag 14.299684825570553 13.808188259235235 15.09083526934214
Ag 12.080534748860307 14.698203552761763 13.772226627611207
Ag 10.192257442275869 11.960605646638529 10.71678577107197
Ag 12.066721441628022 12.07751574403332 15.066399595874406
Ag 13.386545785299345 12.326882098881955 9.799395970061013
Ag 9.15295446683577 12.406520087179583 8.093456849362639
Ag 10.21567313667447 7.105493622792389 10.0360061981922
Ag 11.838913532537537 8.213528892182646 8.012714982675632
Ag 14.06255814958093 9.639614903686862 9.27623664451676
Ag 13.998217001005612 9.001964911565299 12.142810835606216
Ag 11.357195182166162 7.798260277151417 12.63807552783862
Ag 12.750480282454284 9.305560900071223 14.592618367165167
Ag 7.78830413030643 11.195611155750784 12.979681675871525
Ag 9.352456517592685 9.60017880613965 8.758662569665704
Ag 11.698926336037445 11.01125486219657 8.006466825623459
Ag 7.476786730962687 11.25238187370377 10.20095705033036
Ag 14.348662262873317 13.630991299527562 12.242741307316328
Ag 11.58362120888709 9.554996744007349 10.50963510728862
Ag 15.46323702072825 11.164750440883344 11.22641989739396
Ag 11.584659385631236 13.795501027859576 8.26258802133165
Ag 9.441210101358015 14.771536700890127 9.719113348952702
Ag 14.729348732152218 11.211659740453829 13.956487989607712
Ag 12.435386987266405 11.560827308970197 12.328778822763997
Ag 8.89354843504422 9.083029943655465 11.51135298902242
Ag 7.804619545135634 13.666182699579368 11.728542013839268
