39
Energy = -83.07751758 eV
Ag 8.50134271897516 9.93079821067774 9.326138284855963
Ag 8.084834444845624 11.885588908217215 11.365124781625648
Ag 11.000999018749472 10.07259142824136 8.162055245577797
Ag 9.789259333872344 12.406783932918374 9.267926170240669
Ag 6.794374860992592 10.930227518357245 13.658585294470411
Ag 11.152213362960833 12.67076388441629 6.840782843999565
Ag 10.619921507429314 8.254601981065797 10.377795376466654
Ag 13.684291371389953 10.241630226600412 7.175199717611218
Ag 8.318382017056694 9.086670270306263 11.927436833625402
Ag 10.2589404987532 13.581759360027624 11.849066592070354
Ag 8.520544767356773 13.513693559841016 14.10453983156746
Ag 13.219707499206432 9.375633317119947 9.767228768687351
Ag 11.25944792690557 10.865418941039335 11.332406815004273
Ag 11.373725613710283 14.648639331861915 9.461540389585103
Ag 8.161638328204955 11.090700733097801 16.138665764860313
Ag 15.179052829742487 12.571476379276254 7.139653679394516
Ag 12.78205192163545 12.158220210496143 8.944108841594533
Ag 8.358341034785184 8.720327009114802 14.693311570265422
Ag 13.232889726311019 14.561827541101302 7.393322204715313
Ag 13.11012895537283 7.853280945553225 12.013346950940894
Ag 9.58160376745975 11.08044629513911 13.635415806971968
Ag 10.785615574807043 8.539776565617316 13.217635802561954
Ag 15.335697731339677 11.231301783334555 9.692070048185515
Ag 13.521976401306334 16.46488666987537 9.469807258481223
Ag 13.110931062450986 13.029272018698757 11.530078312510401
Ag 15.025987594680918 14.020726885657048 9.50351066435618
Ag 12.265113483895075 15.686244800645495 11.918654542509666
Ag 10.74656411477905 9.722621433563367 15.831777681849859
Ag 14.329158257243831 10.43055295632252 12.17462887703401
Ag 11.24859636117707 14.513084226035561 14.26950137181884
Ag 10.536718518622902 12.531090634210214 16.11478844800951
Ag 12.282471826394607 11.760345395806924 13.969868743908727
Ag 13.332288649060631 9.162680751988429 14.482081789288632
Ag 15.83440266222021 12.861486984786804 12.07471097098264
Ag 15.111481217351555 15.660925625470437 11.667554926399959
Ag 14.087996938178614 14.352996110316889 13.82596827524008
Ag 13.13673507522487 10.909650537679317 16.619530063854274
Ag 13.115432185126352 13.62176599868708 16.2463441049216
Ag 14.999905956643076 11.790275753053676 14.608601470174815
