39
Energy = -83.10944514 eV
Ag 12.196399081791384 15.669817807693665 15.054778913911985
Ag 10.146141988096588 13.729801034375924 14.981282582935384
Ag 8.17207791421569 14.23703605332042 13.134524127219436
Ag 10.626344418692305 15.632964620865897 12.81271668898725
Ag 12.50835955309451 13.287246612687568 16.59537117687833
Ag 8.887762213264498 15.187634817318257 10.627699251595198
Ag 13.561507118981954 15.386404582265937 12.58898034400531
Ag 14.67851675045127 14.462125065540901 15.24042874515265
Ag 7.931560128319877 12.406315157761238 11.003903405577171
Ag 8.830742443994124 11.520820457173578 13.706544205955465
Ag 12.672358172668112 13.026774286838371 13.842852488058826
Ag 7.417323744793751 13.573010471501464 8.548933435893273
Ag 11.891046855437125 15.013347017717152 10.363208505763515
Ag 11.180833299677067 11.126126387430793 15.312476084782293
Ag 10.5442495185266 12.889063321662046 11.895513761789857
Ag 10.101112858126704 13.415864920809906 8.968360363493547
Ag 14.203361414927269 10.678802762964892 14.252898749723583
Ag 14.69767427487469 14.472938765987218 10.149705113261978
Ag 15.403563256039062 13.238602972690833 12.866136006855518
Ag 12.829322019337472 13.094108844442568 8.392904399424483
Ag 10.77444291742571 11.728510794004023 6.910451095058184
Ag 13.233974562698176 12.397853050038623 11.165095096890955
Ag 16.75742389950527 10.835788039986669 12.98177883248853
Ag 11.275509879969606 10.942608546724141 9.738488091505625
Ag 8.589578229650543 10.968846391590457 8.660124691897341
Ag 11.896232192012668 10.314294950049245 12.608367416507015
Ag 9.174748056618888 9.940627080765948 11.438149518194487
Ag 12.47699784945639 8.694765924216291 15.241109801624631
Ag 15.96690411026068 11.923914707335834 10.47534905194247
Ag 9.872711030264256 8.912162765487025 14.064424937056703
Ag 14.033544530283036 10.600910852194634 8.938405843705832
Ag 12.035915956120311 9.298364306527487 7.501426349392003
Ag 9.388347208368973 9.351413340750225 6.467042276436852
Ag 11.228885205811046 6.402639026095792 14.240785841436649
Ag 12.646831059465361 8.448628081231616 10.123936211078108
Ag 14.649268578407302 9.723330647075475 11.60896358656071
Ag 9.916553643244747 8.479044088819599 9.150792348282721
Ag 10.564618710363044 7.518969842671592 11.74051231808351
Ag 13.210254557462163 7.698415895563969 12.772466240747072
