39
Energy = -83.2160875 eV
Ag 14.382738963155104 9.607522720413954 13.98913531521792
Ag 11.750317820416075 9.414562256651497 15.109257373788692
Ag 13.393352416083893 11.872657524217976 15.153685745951492
Ag 10.159667124857116 7.553187496497374 13.645278567884427
Ag 14.627204870181206 9.601018326045292 11.272887401590499
Ag 12.633451611800302 8.021235917338318 12.49680296757433
Ag 14.586535130447617 12.154468284894497 12.54384433437812
Ag 10.701272659310783 12.285489578892994 15.020713661809967
Ag 9.057786752364095 10.031493845446365 14.4739974642803
Ag 12.035725278193347 10.896502068949859 12.769853214892125
Ag 15.439802713816869 9.404923087282075 8.626760602327408
Ag 10.692531682191847 6.829840914109149 10.888725426223425
Ag 7.580660474325207 8.313036208716841 12.810309431288493
Ag 13.185844960158121 7.7598562459002265 9.676871649093226
Ag 12.492760345603571 13.871911232685296 13.433577837221987
Ag 9.947671052023244 9.440698988193708 11.511468145594101
Ag 14.659931833695046 11.948633851442066 9.725920575002624
Ag 12.177596706808531 10.357023645545327 9.921354619386802
Ag 7.967485912895017 12.72327222896097 14.865116393507352
Ag 9.430241663216513 11.994131331593628 12.369843509823822
Ag 11.685721521228828 12.892661491387889 10.770955863461959
Ag 13.04239757198948 9.547485774534076 7.364487640216933
Ag 14.010533408848309 14.446201914665755 10.91092243326462
Ag 15.163956600895231 11.601364173115 6.974863684697318
Ag 12.588853766415053 12.374051826288536 7.849253824121628
Ag 6.458911334588593 10.760032207102912 13.748305167280506
Ag 8.590509334869616 10.392886528833817 8.735783783574664
Ag 7.128355802455613 10.452228988180144 11.085443480284754
Ag 11.515676184111745 15.664286900860763 11.60096331727831
Ag 9.691918216955964 14.547673687839765 13.508039681850228
Ag 8.179254409979514 7.942005579353203 10.035278703214981
Ag 14.66766761793559 14.222047824190447 8.08537375737831
Ag 10.633247370204874 8.400589778241349 8.543265350106035
Ag 10.57614621234136 10.684431402335495 6.8675566263875965
Ag 9.183699309957476 14.446064498447583 10.720077780855283
Ag 11.966465507176425 14.898316389982906 8.909874499965799
Ag 7.01218606527103 13.242058291677031 12.271507988165547
Ag 9.907268901798638 12.923304618082152 8.433101444798906
Ag 7.357329059652699 12.743520539324802 9.54221890447874
