39
Energy = -83.18149496 eV
Ag 12.835248939774315 14.593103346923401 10.960548820706247
Ag 11.009868039052796 13.561698027500384 14.60217685281453
Ag 15.517548727968082 15.036620222632347 11.484617039172598
Ag 10.525135339763208 15.464462800856744 12.560462419780938
Ag 13.661558004966459 13.07720648602604 15.502028803018561
Ag 14.281625350242722 12.761005048597342 12.776269488767314
Ag 14.650783159288908 14.567628391005645 8.827406815378726
Ag 8.238934535048234 14.840914947986333 10.848830243796467
Ag 8.951117627971467 11.819309439462701 15.417735529260593
Ag 10.451924745628538 12.983350924553195 11.25774640151885
Ag 15.708971147732255 12.434554585414446 10.25837687736726
Ag 11.79100852115497 11.113933720389534 13.080455131680624
Ag 7.6434302435751205 10.71083826889322 13.168610169204374
Ag 14.197134304480755 10.442599536608338 14.616143088921593
Ag 8.471715275956273 13.491051036388798 13.278972911096133
Ag 12.318039349981815 8.472112099447624 14.683605437195588
Ag 11.652310693956105 11.04642185782532 15.852867856390613
Ag 10.608436533097947 15.607856497255325 9.700659607543672
Ag 9.7526954068762 9.37241918226845 14.434167932766272
Ag 8.284332348011102 7.993963879371487 12.542071210057692
Ag 13.083226615888451 15.214934046078882 13.661204784873503
Ag 16.364082007125955 12.056932363759573 14.847078646550258
Ag 11.047685542201929 7.904471336542047 12.272752870031749
Ag 9.78206601256815 10.2564517278337 11.261349871787733
Ag 7.6895483558252495 12.140292351456653 10.732001171020938
Ag 13.643973262399376 8.978113373563781 12.23378813398052
Ag 12.86083321765386 11.657793146570267 10.575494425414695
Ag 6.94409803372729 9.42429651244031 10.623536414729676
Ag 15.800404063379112 14.696954691190927 14.256256619953444
Ag 12.04754182196167 13.774090886554722 8.267547929675667
Ag 9.320357989649635 13.220927068962487 8.626693745048001
Ag 16.00723886827156 10.556004601826269 12.380963110105519
Ag 9.332470389187153 7.918679756799121 9.872478920327184
Ag 11.246422759957515 11.132772811293085 8.201076949157008
Ag 14.00464235927645 11.812644461344508 8.046959303365638
Ag 12.007825225952441 9.019930713858313 9.853504291046882
Ag 17.34316341516908 13.16379465141635 12.468935290028684
Ag 8.644892348585623 10.44182649864287 8.658120873417253
Ag 14.815967269648832 9.776296553416175 9.84476186600377
