33
Energy = -69.58296859 eV
Ag 12.762536274842345 14.940663632038977 12.91235116786056
Ag 15.14520316739685 13.874713797079178 11.720777579761865
Ag 10.589329373258929 15.69379124705501 11.359249673373458
Ag 12.991986674779945 14.694510792601886 10.082392737680475
Ag 10.825007991999051 15.539497809303443 8.520769534532795
Ag 16.241886105969357 11.345234128685272 11.224618634568447
Ag 14.28195960682753 12.24697967918246 9.469451958494162
Ag 8.189459981851728 14.203768397789055 11.472150777276706
Ag 14.981632092026963 14.480418822701935 14.469378791198977
Ag 12.157222051282163 13.14136207213139 7.855626953257218
Ag 9.64547730659989 11.735066402469949 7.8111583572595595
Ag 15.242175773855802 11.862471648577326 13.773212764229433
Ag 12.654601065046883 12.200072042094714 11.801531659382936
Ag 10.383813657615717 13.422328117326929 13.124733621442713
Ag 10.50205484237115 13.14760981754004 10.161251377582085
Ag 8.374674168922983 14.169222290622168 8.612581183524085
Ag 13.951574043988288 9.75145920835118 10.811547922290293
Ag 12.682613478939345 12.732780363130155 14.672809908243813
Ag 10.294022776251845 10.57840257833898 11.712905388266773
Ag 15.659844041161335 9.235740260337412 12.975496671890019
Ag 10.485698491534569 10.965456835654884 14.499535518280311
Ag 11.837970447165489 10.727065853635478 9.283167034740881
Ag 8.085568181071963 11.813038478993661 12.954121752256798
Ag 13.060657082592986 10.065917799372896 13.755486671872056
Ag 7.956189007859641 11.794040489184454 10.051266282825326
Ag 9.248907960904619 9.37292112885333 9.336372017818803
Ag 11.585967425082282 8.241051326010728 10.52503050639216
Ag 13.482314666978956 7.537418675179347 12.481737584688716
Ag 8.399467719483528 9.169474616731387 13.832616018156935
Ag 9.032592181333436 7.588933824722776 11.58787519955841
Ag 7.12528248603133 9.55806355126561 11.391379088332974
Ag 10.961349072084834 8.248861607197012 13.553506105871996
Ag 11.207929757694776 5.922490554894551 12.018975673448443
