34
Energy = -72.02838425 eV
Ag 12.67088331628384 16.53502308755019 11.752834554474282
Ag 13.491420090006677 14.46048373807334 9.860337339521859
Ag 11.059717685642772 15.840114213987878 9.577523721237954
Ag 13.767967366763216 11.979114426207543 8.420914633975736
Ag 11.284917971328941 13.332524876960463 8.442713441309145
Ag 11.901480562034198 14.767793077858096 14.057264890024648
Ag 14.176980410021596 12.097731130557056 11.186780110186287
Ag 11.473976575975284 10.800201681982797 7.220810958732074
Ag 13.935870892674195 9.4058127586313 7.176253072845275
Ag 10.068681274630732 15.792218195764702 12.199789248870704
Ag 9.190306486081932 13.831813345683539 10.330633467250442
Ag 11.54532812473549 13.167936075444027 11.798388479005164
Ag 14.322187362561237 14.541192293199423 12.565945668449473
Ag 13.384831544273315 12.292224211322464 13.945285701463474
Ag 11.574206241187536 8.280647774603688 6.109984627514486
Ag 9.186445387389913 11.526642949622824 8.695246022844366
Ag 11.677579808412512 10.862951866029634 10.163239005563526
Ag 12.480719484191917 8.032078035769885 11.601692406075538
Ag 12.052414872492896 8.149249061370565 8.844883663696148
Ag 9.47119404099076 8.843389298970363 7.86834795708883
Ag 14.2995805130082 9.824806177327819 12.751634540510137
Ag 9.042753676162599 11.266009608238617 11.49750762037087
Ag 10.88111183632464 12.337904573280365 15.141952632787246
Ag 7.497910707563549 9.552207496292477 9.777279983027992
Ag 9.09985939938748 13.46355118116744 13.281561327615464
Ag 11.457398725996393 10.452190957790934 12.99799009027071
Ag 14.248073127664204 9.533339259881423 9.935935434085474
Ag 9.910400370443103 8.578349564975664 10.666318572970672
Ag 8.623927971215542 10.902763041970024 14.269499076203328
Ag 12.7429735885151 8.231735025990162 14.397785186162363
Ag 7.749059313427567 8.888472173761748 12.4889559194991
Ag 10.662499665640883 9.557092457931043 15.67740670094556
Ag 10.208453995209215 7.843322097108353 13.401959884258671
Ag 8.176575371795842 8.32703125449945 15.202942824714542
