35
Energy = -74.25928766 eV
Ag 12.468740713220937 11.638812364399355 7.353826116766157
Ag 13.121809826374484 14.374713701598534 6.727281284730379
Ag 11.887172124506368 9.129405367527411 8.433179081606843
Ag 9.887445175494593 11.132714337944204 8.419919607853375
Ag 10.756499234150473 13.844291219190438 8.04176322143433
Ag 11.292242657917203 6.684588217816645 9.632781835111476
Ag 9.32577610295542 8.657238993586969 9.668037876146206
Ag 14.747925808031232 12.861052899413348 8.388986875133154
Ag 7.429426921458921 10.704601475116247 9.77623525533617
Ag 8.307503564848654 13.38893774434333 9.225961809475908
Ag 14.220246624217534 10.334788525695481 9.458825950661728
Ag 13.679948460924118 7.82605754949592 10.587327532066695
Ag 5.783265550639914 13.014644975337445 10.256508195457029
Ag 12.117417301782204 12.185690686254278 10.163195042994785
Ag 13.010044020045061 14.798486315657472 9.530351965031171
Ag 12.55433190518664 5.510741647389867 11.799456193775216
Ag 11.535637495826316 9.58111475787577 11.245547080337937
Ag 9.609235873741985 11.718352745366941 11.366760245753973
Ag 7.849809267826375 13.84117521675223 12.017406980766307
Ag 8.394255870416574 9.255486482774637 12.258523599245953
Ag 11.987860447621923 11.735732023734753 13.027327978365296
Ag 14.76501501302539 12.646154317606811 11.12602013848927
Ag 10.57678351213174 9.342854842381318 14.052197807949108
Ag 10.391904530543211 14.543905393867059 10.777300279845557
Ag 10.29964648295534 7.2004382613940345 12.214826266255278
Ag 6.5409458023866 11.33965501299551 12.338975056636373
Ag 14.290884820113796 10.024912277441425 12.269711101679711
Ag 12.871206615459297 7.791286428738522 13.341469971708849
Ag 10.16976628320343 13.882568261351828 13.524806985548178
Ag 12.802388955690217 14.36495692744873 12.257544025743316
Ag 8.673239405947292 11.522927641434777 14.057566950260837
Ag 12.530603010194758 13.881371584694548 14.968997919500074
Ag 14.607288484432797 12.319334165108987 13.87445118389415
Ag 10.946437529994302 11.649026166236402 15.637555981952382
Ag 13.22491712708209 10.039261064190024 14.949656457089812
