32
Energy = -67.23109779 eV
Ag 11.676957778770964 14.757611113308519 10.68847754167945
Ag 11.044384706384635 14.70771464951829 13.645643754779796
Ag 8.994769838812028 15.402003141609985 11.799895218254987
Ag 12.830231202968855 12.72110426658044 12.848741509389217
Ag 9.14673753518119 14.003838931265907 9.388555462544991
Ag 13.06935499916582 12.400427022259086 10.06181199976025
Ag 11.48040986318887 13.492881482302264 8.056661609588222
Ag 14.334885048447806 10.502753802731958 11.890809684857919
Ag 14.985803335999261 10.561331464256305 9.044688076812646
Ag 10.063445997799812 12.860947864365887 11.855599719335403
Ag 10.586687523566795 11.846200356563529 14.513104903548095
Ag 7.278808269504542 13.003143041899783 11.354751268753645
Ag 8.358983648739008 13.552782357558167 13.94915896908549
Ag 12.86460819738832 10.2080093513921 14.305880181392338
Ag 12.498299384664483 10.971161989786538 7.493141536530218
Ag 14.783690369704747 8.057190483871148 10.418145631736918
Ag 13.598177533121147 8.309240774129746 7.763165565967857
Ag 11.142012499224792 10.375252900399506 12.1086476469653
Ag 12.534273393900666 9.588554176049463 9.925238028731439
Ag 10.278779086032483 8.715115410367742 14.023241815942567
Ag 7.491671128155063 11.903268661259311 8.756690327998314
Ag 8.313252722927851 10.85863473150783 13.106198670222783
Ag 12.194678425082078 6.833937957122581 9.864824361108582
Ag 9.66742449393122 11.288343490113729 6.993383459042092
Ag 12.807385298044567 8.060728151061888 12.45367725853582
Ag 6.631731792659066 10.333227544510605 10.918250247216736
Ag 8.219755394252084 9.247597758245508 8.793047705343074
Ag 10.49830827750693 6.586434194560244 12.098594998414955
Ag 10.778288571816862 8.690563695115397 7.869110835698248
Ag 10.246616611101826 11.221839820582142 9.60449506920497
Ag 8.760521751441617 8.636123272980782 11.519110944592091
Ag 9.432476445141859 6.8237940853041374 9.497031977853435
