33
Energy = -69.15634698 eV
Ag 11.073979328726626 9.194213391924626 6.963922476692227
Ag 13.595243454766047 8.902799070878835 8.424256911733368
Ag 12.58227548302477 11.44947507771305 7.635545662221311
Ag 14.602309843882642 11.432707417105386 9.495797538529116
Ag 15.282726918560007 8.943466783577502 10.612119966539229
Ag 13.179846571509442 13.936952710013076 8.9500382146826
Ag 9.816066343970443 11.577004837017542 7.79062093427704
Ag 11.401665745078116 7.042907630991896 8.714159638485203
Ag 8.724177148809865 8.766958951845465 8.71575194777359
Ag 12.770545187842881 7.7235108943410475 11.264416334467436
Ag 14.559204091089576 8.810306540934445 13.334091956723007
Ag 11.167829679132906 9.596173495273124 9.753425115612051
Ag 13.14141953480951 10.435032055663518 11.67816565619093
Ag 14.366376629058983 11.746947707525 13.910691137703289
Ag 11.488401653414604 12.260121311433982 10.21573167612331
Ag 14.0033313091849 13.263887087858734 11.527626964031482
Ag 9.971162825529229 7.381253017762839 11.057876802249373
Ag 8.802145347475218 11.226760829227342 10.35975053848804
Ag 7.309859390614333 12.614643463419204 8.296706099917692
Ag 13.231781492935541 14.473996077670533 13.90833736921606
Ag 6.33521044366054 10.264941643852637 9.429197503783726
Ag 10.2609481511221 9.822762677053792 12.487675726797244
Ag 11.639170887172483 12.35765142825975 13.026166112873831
Ag 9.429339633646975 13.96487102778641 9.558095676629904
Ag 12.25008038885887 9.933268937446616 14.461363408143855
Ag 7.694852821905491 8.849862096113588 11.413162664985132
Ag 12.323551941148674 12.485619237993417 15.75458188760487
Ag 7.724030841231125 11.078277479114679 13.073099798378953
Ag 11.477481789874298 14.753856905697578 11.524168988641335
Ag 6.581434695741524 12.678868937355368 11.049487716104437
Ag 9.790481118764056 11.43562093613782 14.843338710457825
Ag 9.055668181728807 13.41137551966817 12.307656048107152
Ag 10.430675812362344 14.316634367228437 14.559892185217162
