33
Energy = -69.50751695 eV
Ag 10.259991611311898 13.053345376636985 16.23158199813085
Ag 7.912031614179975 14.224402823087612 15.304597607384578
Ag 12.535386308491582 12.865040276768962 14.592877243055915
Ag 14.784446919020915 12.558568429823087 12.910450977307725
Ag 11.030395059688619 10.521033566854662 15.44788950539606
Ag 15.546252313885077 9.939554140825098 11.984321138704901
Ag 10.175352594407967 14.182824040417552 13.629454851938037
Ag 8.50128146229248 11.616246426828843 14.511452328433576
Ag 13.32980686888764 10.199292157581294 13.76528000070301
Ag 12.411927139814985 13.872617096787026 11.929690474281426
Ag 11.740030756224948 8.008480784106702 14.531026711284278
Ag 10.841977507729943 11.512909382836213 12.702467431496224
Ag 9.386712396886937 9.13842339177427 13.530110760468023
Ag 17.000159947942517 12.239906299793393 11.181518652106405
Ag 13.10310466317027 11.132015334853486 11.028512442312826
Ag 7.593345045099864 13.563748353270679 12.616956829372162
Ag 11.666710755565427 8.761819336998643 11.84694891564168
Ag 13.958011269422226 8.536098410138198 10.12121771988631
Ag 8.11584899237939 10.906563675872947 11.75796147834849
Ag 15.453453446356034 10.83861486583846 9.317872605267912
Ag 9.798021200034974 13.544443452331302 10.874614277988808
Ag 7.2290251342950365 12.846295606372538 9.936416031446546
Ag 14.643566513058548 13.433700547839777 10.241224887043655
Ag 10.488774928565812 10.690553497235438 10.009825145435633
Ag 12.023273583676685 13.190925393497487 9.184009571571037
Ag 11.338259814796974 8.108718346794385 9.127023785741251
Ag 9.394284964105251 12.595047119302594 8.18780016935917
Ag 14.2474633841902 12.637636024065154 7.527657954738924
Ag 7.87076831542682 10.250357639952664 8.94257538599885
Ag 9.031371283890014 8.397809366546422 10.786036097094732
Ag 12.834240554782191 10.314558630177695 8.205873326080091
Ag 11.636102452228513 12.295296245864748 6.564826724900763
Ag 10.143632162571762 9.947698387656937 7.2972545336654075
