38
Energy = -80.78750252 eV
Ag 10.6958980328921 14.38597086659663 15.990139812864927
Ag 13.144455987696839 13.564334041037304 14.470985306103302
Ag 11.865242880591438 11.869297426915855 16.23903463729925
Ag 14.447817641044082 11.031639998491915 15.312910870387713
Ag 11.420454285654806 15.51230872512166 13.53712279513148
Ag 7.771606156858894 11.807605977937499 13.748960689539366
Ag 8.654364980505877 14.770817050642231 13.400119317584318
Ag 14.869080183841602 12.229965906976915 12.788328392901875
Ag 12.396592550475997 10.72146006249059 13.510907704484199
Ag 9.828255434517354 10.295203300139045 15.166929601571386
Ag 10.444236815138849 12.763209130827724 13.776855943914779
Ag 13.264648947956642 14.351373513860763 11.716376056350907
Ag 12.410127985158095 9.139197108147263 15.94320704100162
Ag 13.845455370566805 8.393028678196632 13.509378578694033
Ag 10.525515575341844 14.818270700522692 11.007396968717902
Ag 7.281569869538807 10.333428862995127 11.236947472812863
Ag 9.774808364302071 10.294306406397645 12.38347627619207
Ag 8.557600646065648 12.898666431608834 11.33800920320484
Ag 10.911416326621017 8.099092602159892 13.787775196224267
Ag 6.9262568962557 12.237433144577432 9.215067301157594
Ag 11.619999683223423 12.11516891609395 11.184426320796327
Ag 11.959543248262328 8.733835800895447 11.338955382876703
Ag 9.730628594104791 10.817589168566771 9.471031486848949
Ag 14.696131645270698 9.917222644933888 11.347941169088205
Ag 9.440184930288867 13.609069092770609 8.747166783855302
Ag 9.236879697880042 8.241551447717848 10.547809112367942
Ag 7.499078397583761 9.444606871586595 8.532514556205486
Ag 12.610029093170224 10.448748073138201 9.181328920241679
Ag 14.533756047690721 12.429365610757193 10.038413547508352
Ag 13.995486743655507 7.863282838012684 9.644374666271593
Ag 11.374196039001532 7.8934910325325465 8.736740545944661
Ag 12.278417780564192 13.784920272976647 8.987376241247274
Ag 8.354933966596704 11.675254356136566 6.943057583343252
Ag 9.923400198826096 9.356745081902782 6.968683874997103
Ag 15.33325057441918 10.086547291636485 8.581236190427546
Ag 11.145645636743888 11.909901552631098 7.161113023551256
Ag 12.73165316595779 9.432825042040179 6.646714909784793
Ag 13.912586857080063 12.132379617280668 7.269344954870789
