34
Energy = -71.86409086 eV
Ag 11.280792421537027 14.695781291454274 14.468118771971502
Ag 9.31057468216675 12.997561212831885 13.525588416548294
Ag 7.454169784265273 11.24381602634368 12.433769076691108
Ag 11.48218449945927 12.15462375497018 15.642972839873686
Ag 9.623265705902847 10.382388945667264 14.510782705077004
Ag 7.903691554073108 8.582287875833483 13.23129286412808
Ag 6.141586722010374 9.084898623020464 11.170845197463068
Ag 13.769075133816752 14.556838298408861 13.171670391393077
Ag 12.414110550230236 9.827894656362298 14.346743244906305
Ag 13.482858585533632 14.238100176544345 16.066879595814306
Ag 10.964858461578048 14.76209859877956 11.72178858643865
Ag 9.034971989798303 12.9724120779207 10.718491477908872
Ag 10.570756175213585 8.01397996333993 13.097846330445677
Ag 7.8517775376486645 10.60865246669309 9.646739458684497
Ag 14.211504944414107 12.07314698635421 14.625718285879811
Ag 10.096555076048194 10.426416982680161 11.644183131712623
Ag 11.942468043126656 12.347482276152052 12.78022019918755
Ag 15.110039570559024 9.86369338007317 13.30897927643675
Ag 8.797325223161273 8.086100149932461 10.618976179843402
Ag 12.944833366300143 10.05914084473137 11.486617688606678
Ag 11.671421415481472 12.08560793448881 9.909994763510467
Ag 11.584451746237276 7.8528529772935745 10.44517426658541
Ag 10.34642746463768 9.641678692089119 8.699616339533028
Ag 13.32083622536038 7.651427394499316 12.821645609947007
Ag 10.675513233156632 14.608133232403585 8.960683611164683
Ag 9.382635357315028 12.21757965261116 7.982066308149901
Ag 13.410243185011216 14.366301849726526 10.392476464785672
Ag 14.782699866549667 12.30408570484708 11.802391630470835
Ag 13.129808022042388 9.464451038776868 8.764300674517076
Ag 13.086528327666956 14.011813953908653 7.63167383463525
Ag 15.518064251828992 9.948367210835338 10.452382852509837
Ag 14.372026611122362 12.012707616549942 8.975264060724035
Ag 12.016918006117983 11.462050553363804 7.13915478763998
Ag 10.712768993873716 13.875204687507082 6.233191996435467
