32
Energy = -66.75274848 eV
Ag 6.4386870850960545 10.005648554881615 12.563790145189754
Ag 8.647596749106098 6.710081727386183 8.959428398836394
Ag 6.900002030196209 8.868915487735375 8.62541871481238
Ag 7.125098371426751 7.657100385903861 11.280372452547965
Ag 6.706159607778643 12.778304808555186 12.428259551421698
Ag 6.888587029922485 11.156897411618306 10.055990459745205
Ag 8.138494922120712 11.344882708003102 14.386091837527117
Ag 11.390716001538912 7.311931402876526 9.408271546146718
Ag 9.222859649571589 9.19749093958831 10.301449825765223
Ag 9.487818369308396 9.081380416552486 7.541800068378939
Ag 9.787737900907668 6.765858290889954 11.647028100775778
Ag 10.845134759823393 11.04372923878285 13.86392646700219
Ag 7.981658347334819 13.712715522149589 10.10723911137019
Ag 9.220780544748623 11.616552176349355 11.68041848634751
Ag 9.003479142353486 8.977320563560472 13.159379730343494
Ag 9.45493770600034 13.712649751929568 13.440538410114458
Ag 11.607485338006208 8.921605312587872 11.871614563000978
Ag 12.20278874890773 11.665292088866872 11.349015637763141
Ag 10.670296479927654 13.904464875786553 10.662009495480824
Ag 9.56801313941724 11.748568430993389 8.866916201702237
Ag 11.85219743846331 10.022732755920591 9.138455792204562
Ag 11.131862655479933 11.136635374634235 6.608211262241731
Ag 14.018901253874917 8.182731505760428 8.806937624753047
Ag 13.44252494523097 10.270696698488367 13.580731082984004
Ag 12.104476424275683 8.370003076258218 6.791901048795465
Ag 12.230417101336943 13.671856095343843 13.217761039020923
Ag 14.310322094951916 9.718072061794615 11.00566068150379
Ag 13.45222641315482 14.203171661736482 10.677248235182233
Ag 12.259696849832428 12.823132994846482 8.549581217914858
Ag 13.82939393999384 10.654882731772544 7.274443371001462
Ag 14.837127983654954 12.300079282689529 12.237042969885303
Ag 14.80152889267309 12.003750003316213 9.47263237981715
