36
Energy = -76.6229504 eV
Ag 15.848577855491413 14.850167677408763 12.95544551950118
Ag 15.953272048686268 13.048954867840711 10.776099591660353
Ag 13.732809344775328 14.665585811704702 11.126357243073185
Ag 13.92550671532649 12.753566021670384 8.872680408202232
Ag 13.182659604670437 14.888156438116837 13.90511091452464
Ag 14.515743130413838 12.4590245899808 13.287053653053729
Ag 11.024726414366805 14.563460330992381 12.01751096416654
Ag 11.652321149242415 14.322199512056008 9.307235558629078
Ag 15.032138014158043 10.49510841983493 11.36706134982369
Ag 10.459458473254092 14.894622198318517 14.698724929704431
Ag 12.472213463229943 12.086175267421869 11.204867430951534
Ag 8.282266511637555 14.356283416423631 12.780756893672194
Ag 8.89008665465617 14.190020560184479 10.035270964309097
Ag 13.518347204909174 9.954385499428186 9.128756890024206
Ag 13.026217515722951 10.030622066628322 13.311815808067196
Ag 11.836465190495021 12.45444987521845 14.118448093887585
Ag 9.098919732937379 12.499694955080098 14.637482863632318
Ag 9.663795676672258 11.997185650354995 11.734508843183864
Ag 10.298186661844884 10.090583265092436 13.961070491039122
Ag 13.582784480123014 8.094063301916496 11.299211981475063
Ag 6.936617155211216 12.38553949000411 11.168077652036045
Ag 9.751101241800987 13.65557280189057 7.422440241002875
Ag 11.256551617842593 11.607424314968533 8.63447936107712
Ag 7.490621254975783 10.68405650937334 13.338454044251435
Ag 11.100627682258942 9.660699673169326 10.97418497636953
Ag 11.905139554175422 9.427979632373152 6.9156114525041925
Ag 11.453401630600242 7.702546026278409 13.138526483299303
Ag 11.998395725953241 7.55639430313858 8.996552001149263
Ag 8.312287393500327 11.696835673720935 8.855068684174222
Ag 11.977574697301304 5.762097186137842 11.146462534576006
Ag 8.113648254400701 9.684295726616764 10.814208798183275
Ag 8.575934921413047 8.06943882869128 13.119377483915509
Ag 9.583027757240771 10.946780688273673 6.454479332589633
Ag 9.630791237535659 9.110350516384955 8.530559460910741
Ag 9.632384347634229 7.237482412678698 10.615480747764185
Ag 9.747524675927268 5.532617214223585 12.827408133902747
