32
Energy = -65.96323187 eV
Ag 13.289274290226695 13.498437579827694 16.75157954078901
Ag 15.915877083447697 10.406633378682919 10.778154749402926
Ag 12.030826136824114 12.444135499100646 7.010276959722362
Ag 13.681276806686633 12.026996391900646 11.484679463869146
Ag 9.588614965584673 12.434679877861413 8.310693636447478
Ag 12.882727881308822 6.625921467139242 10.963860460471542
Ag 8.365865844001364 7.868594702439235 11.413232069069208
Ag 11.157966662290425 13.31778379331003 15.031484990281495
Ag 7.766797195264983 12.77560119649987 10.532930110262424
Ag 12.608810727305642 8.227656466733455 13.204017150560585
Ag 10.627411888433436 11.826283194891252 10.97472000256661
Ag 11.85266340112698 13.899979577884496 12.374656898683371
Ag 14.267183339538208 11.707166255971675 8.746816312249896
Ag 9.173200429194903 13.618423369849165 12.924708605628139
Ag 11.52819670994321 10.402690559655662 8.754185217956714
Ag 9.920313120928954 14.638247787757873 10.410747052008698
Ag 14.586945904405994 10.190662721528923 13.315175012016535
Ag 9.852516096653423 8.827829706574484 13.789496784173496
Ag 15.206167022415013 7.840872331082484 11.945428883356008
Ag 10.524591844217627 6.437717844392738 12.461308361928918
Ag 12.439323668325224 13.659627509665565 9.609109142916516
Ag 8.073093464506352 14.679193547174272 8.337102058104316
Ag 10.842356868297536 8.921546296553117 11.079730925293147
Ag 10.854777784171517 14.938213882707476 7.705636661366188
Ag 8.726534916476261 10.122535659310877 9.5461576737183
Ag 13.959525843837271 14.292713883937225 7.399422210570799
Ag 11.732027510483903 10.933203277026776 13.498378760384622
Ag 8.243726231497602 10.528385231017962 12.213914807706454
Ag 6.713172068056888 12.474317833823724 13.305480518151878
Ag 13.782489305903804 12.730045049698354 14.214680019756555
Ag 13.46523047965648 9.33774446396103 10.387970697513817
Ag 9.099840455275936 11.422301771306348 14.637978555922395
