36
Energy = -76.03113353 eV
Ag 14.701081611164634 14.775278534319472 10.583726497756492
Ag 15.545075900399588 12.114059743156648 9.991817946293224
Ag 14.64107024004714 12.897181513373303 12.708125376156989
Ag 15.580944501424659 10.30449618883414 12.148847825745404
Ag 14.198886867998828 13.809785510749283 8.070871848690137
Ag 12.569598381808452 14.802943580064092 12.32212126580622
Ag 12.78450536545921 12.59024659868445 10.523406069349411
Ag 14.320596941974179 11.079723362455535 7.665813949062675
Ag 13.819394108870725 9.82243883537506 10.077442712776127
Ag 13.883564179565651 8.06752836037772 12.237101823427324
Ag 12.845899390392498 10.746459581889628 12.798639004075342
Ag 12.43770604492006 12.979729061544614 14.52182283232592
Ag 11.850214381723355 12.434296446645162 7.815491927432767
Ag 11.976738833846994 15.02088117684181 9.482492730378413
Ag 10.841379083809484 15.421459280588788 14.355288294956969
Ag 11.921331788215562 9.620947183724049 7.951048770011365
Ag 11.956140701913137 5.8364400986568015 12.117921700251191
Ag 12.631053456281782 6.999199668870746 14.519076481538383
Ag 11.980633652023078 7.6745847639827 10.056127735223118
Ag 11.175193481219484 8.484807020853912 12.754449997586079
Ag 9.940832628491066 15.372818722584407 11.51554942737413
Ag 10.485725746728448 12.701413813819068 12.469255685443539
Ag 9.717525093416404 13.08557504736793 15.28636036723732
Ag 10.453452061819421 10.608048922335962 14.379684487494304
Ag 10.89589797148723 10.460071940401823 10.614778665930872
Ag 9.898524657102636 13.14009601912536 9.7316291712902
Ag 8.211250264308795 14.79338466851643 13.7312208806063
Ag 9.451161097076687 11.024520516818253 7.975260356199192
Ag 9.478682225288946 8.447192287331799 9.021912574089493
Ag 9.43440191321751 6.878550097718702 11.308085524826156
Ag 7.916927243867719 11.912412274272858 13.510158981181487
Ag 7.6978173285700855 13.63651217541382 11.313488407469825
Ag 8.594951101547203 9.378179931385363 12.640454643700915
Ag 7.952332381352366 11.008582565528025 10.413142113688458
Ag 7.110447447489734 8.293423457549391 10.568083055140118
Ag 7.139275948146732 9.440552289028716 8.094699355088403
