33
Energy = -67.62674398 eV
Ag 14.65760807872646 16.509755028444943 15.767242759157979
Ag 14.887743819677898 15.716964969331158 12.981823880282988
Ag 15.45220109978616 10.443989028024802 12.468978497727745
Ag 13.765378830705368 8.367081099307464 11.427042033476544
Ag 12.025794316352954 10.82107917958229 15.383239187295956
Ag 9.568753015320116 14.206758345545591 11.784190353342286
Ag 11.93341764638433 16.019643469111685 16.709193789335767
Ag 8.62983516055958 13.25230391456143 14.373001070667309
Ag 11.95259813050953 14.118699075897192 18.72200885117726
Ag 13.975632470203108 10.972845353554701 10.113876911673952
Ag 11.193144188623112 12.71415733426063 13.583261773510483
Ag 14.806396592028435 11.465630648728423 14.967915838997907
Ag 12.48501267718702 17.15335231105505 14.114614511999319
Ag 11.931026823647075 12.762576140640407 10.807007260631725
Ag 10.391506500175776 17.059164370557603 11.996447363528102
Ag 16.166327370199333 12.7006929847282 10.982601261381408
Ag 10.333080198275562 15.398150222656305 14.332691649136894
Ag 9.85311297967091 12.709232633713206 9.102613107697103
Ag 12.367031020157622 10.475807256514027 12.49197637181437
Ag 13.0950750640146 14.322519789227918 14.955017239570017
Ag 13.86290606458178 8.896582576747337 14.26510623721353
Ag 10.786485046720824 13.278783551473902 16.30589938065071
Ag 11.147490415894174 15.214408752739272 9.66955671781613
Ag 14.0467689820138 12.932754226101856 12.721892773841997
Ag 16.329329310406305 14.20111753216022 8.617093981367777
Ag 12.275533594073524 15.138049434954164 12.227783126847603
Ag 16.095798723334006 9.190028860941819 10.058102425878786
Ag 11.290767722914017 10.30320329022098 9.80529204483023
Ag 13.500121970081079 12.547248572493034 17.132607254924594
Ag 15.799992341864325 14.007215400549507 15.047415723219801
Ag 14.091488502414226 9.747048473019959 16.98981186105168
Ag 16.31969682846888 11.480655617547807 8.55640012065766
Ag 14.135549862260774 14.532057394284797 10.265547365221066
