30
Energy = -61.53976865 eV
Ag 16.10782844259656 13.046187587215435 10.982334949107909
Ag 14.861628536348249 10.472992820355232 10.586206034020414
Ag 14.914454172183325 14.359960067846728 13.19098478982759
Ag 14.257962406357002 15.116534434568056 10.494681588545273
Ag 15.605676663582598 11.402519936851547 13.199523509528403
Ag 14.267044649935809 12.71052128204884 8.865622706870237
Ag 13.616678835460618 12.477992126326848 14.79283810171063
Ag 12.70368675875379 15.123627440832113 14.805785493343686
Ag 13.362048147092645 12.605612553187784 11.630623980813612
Ag 12.082043778457074 10.935581641010153 9.551804265341369
Ag 15.084617781190012 8.656508062624498 12.709268458070351
Ag 11.821007714831532 14.041670242779128 9.529271654687864
Ag 11.92880694817798 12.602452691272045 7.209120608260477
Ag 11.941211049807402 15.002302198628069 12.155180375097945
Ag 14.069676690231253 9.784304284175352 15.04332941395026
Ag 12.822527103277158 8.654388921265994 11.122773985480315
Ag 12.454705102362954 7.872086174168036 13.781452050050005
Ag 10.4845767518712 12.509840630019069 11.491086984082393
Ag 9.610382350491058 12.350013731176906 8.816515493249252
Ag 12.059673248403119 10.562993691279093 13.201210087828933
Ag 10.017618582854656 15.586213222131422 14.0720116582037
Ag 10.916888808557161 12.948350833145117 14.214858669773754
Ag 11.117866160520755 8.31662964764183 9.03744795105931
Ag 9.39273482681042 10.001860817106266 10.2293066644041
Ag 10.225011825061632 8.253564435090901 12.197606114216402
Ag 9.224040057959362 10.77084332076256 13.28893382275403
Ag 8.385339163382554 13.484065425839864 13.241784971915857
Ag 7.507369858392272 9.05184410521779 11.997511500123618
Ag 7.6364461543452 11.941169043043026 11.017306888527566
Ag 6.023676320671394 13.860597522357832 12.046846119122298
