35
Energy = -73.5390736 eV
Ag 12.705047804655797 13.787603649905055 11.214502230813872
Ag 12.748514426405457 13.019472427856183 17.385219599906282
Ag 11.758348840079755 11.256313447751365 15.525886027083109
Ag 8.102593532604052 11.651847165601156 12.294002401781052
Ag 13.034077106404172 10.99814437686793 10.445099269754841
Ag 13.366002168089226 9.118096081330933 12.891856024258619
Ag 13.335076180408782 13.251714162094283 8.513641136105559
Ag 17.23377779241318 10.876291507349054 10.447650295415869
Ag 10.718452792743498 14.160118004772695 9.030994750222582
Ag 15.296321850383995 12.84610475878503 10.572548914418556
Ag 8.51306127843846 12.381847949368261 8.843047337591647
Ag 13.02621729998519 11.848759304598746 13.102680958103191
Ag 8.5255193186956 14.108365083427344 11.070184743979413
Ag 10.571066794571836 15.843088456962663 14.18756608249256
Ag 12.8637119104092 7.426396817673798 10.705313188111788
Ag 12.85432702541344 15.985044768794669 9.647129884777657
Ag 12.817047841505858 14.21507917689843 14.86546846800688
Ag 10.309358786327731 13.667215450299913 16.059006426454797
Ag 10.647997481137189 10.31173512480733 12.926099119271946
Ag 10.616779682715901 13.232581672348685 13.185284343706776
Ag 14.976143686839924 13.86031057343084 13.11828985072898
Ag 15.122708920606444 9.076355139253032 10.648722519687096
Ag 13.08891705292894 16.080210759141025 12.741137091749637
Ag 10.953235871564575 7.592388994748256 12.716469489770267
Ag 14.58391013842217 12.047993974962148 15.36278041032645
Ag 8.21446014748965 14.097570873766374 13.964051994786901
Ag 15.60163906938071 10.984472089303443 12.74769833964908
Ag 10.648752560155184 15.802489242273051 11.40911310032698
Ag 9.01097566861234 11.441132337905776 14.945718876027167
Ag 10.400062254217874 11.965376812571822 10.74808777205859
Ag 10.755462453641321 9.204983889750817 10.26252948625458
Ag 12.980203730887547 9.08342213165749 8.460933905020813
Ag 10.281979529380711 8.890778090176537 15.222856194248198
Ag 11.210752656150005 11.33885108808875 8.202378623572377
Ag 15.110353725480625 11.001964221151987 8.492515220097046
