39
Energy = -83.22179029 eV
Ag 13.953897808024674 8.578108943905335 16.6078286265132
Ag 15.377107358881938 10.488642558530852 15.266940801173694
Ag 17.183159615317855 12.074113409946756 13.789799341948994
Ag 14.573637178073447 12.92020584659019 14.196164739431547
Ag 12.70621044917193 11.098789480595737 16.195350107954923
Ag 13.4464964162363 15.469069669329334 13.66968866999782
Ag 11.724755760674066 13.293836649311332 14.572390826863282
Ag 15.3813011008756 10.510306463348734 12.412928630959309
Ag 14.271837500563008 8.285645763270404 13.787024734457122
Ag 11.710931498290032 8.55287564268647 14.993120008974298
Ag 15.797599204767899 13.077274387691316 11.48176469392881
Ag 15.352828747267962 10.8578185353385 9.602843002368385
Ag 12.713127621257723 10.793890185967282 13.473730183137416
Ag 10.79948717681747 15.27268395674077 12.651336177812276
Ag 10.139714842914255 10.948496826101804 14.902506878386088
Ag 14.570948759195467 15.512136255514427 11.016313209637197
Ag 12.53939248835975 17.3116592096385 11.73502922912886
Ag 14.43252761657172 8.472251453935131 10.835091187754296
Ag 12.964896366723746 13.350318848088325 11.964517678622855
Ag 9.969900687370908 17.095466680117404 10.603998883832988
Ag 10.538876733756382 13.08108545969076 10.708828297161228
Ag 11.964504332830977 8.2575065913664 12.15853547782472
Ag 8.346540302261198 14.874962277376271 11.19299631973181
Ag 7.714603659176632 10.65268970964768 13.449588964809184
Ag 12.054127801052967 15.344431939759898 9.776906499222617
Ag 9.410127613002688 8.407143661107208 13.396352413787268
Ag 12.746623390172077 10.854810980708308 10.683100999611655
Ag 9.132512988121322 13.10923046164471 13.34941626597979
Ag 13.939655722337177 13.288018985579772 9.251513999068635
Ag 10.225114731064599 10.650438348295252 12.036517936176727
Ag 12.984964114747571 10.908500064541192 7.928154392252039
Ag 9.482968501875197 15.120843118474433 8.662591619395744
Ag 12.143082365392878 8.498268411948484 9.243391778412004
Ag 11.340160657556678 13.101232744054439 8.059210922521203
Ag 9.667600748394563 8.220867064217545 10.545310686844143
Ag 6.847687141609811 12.612568515101506 11.672617119307256
Ag 10.253221603170209 10.607097208955913 9.0321370722303
Ag 8.26030051472686 12.660535661814063 9.21033085280853
Ag 7.810467003083104 10.251077330134304 10.587556832498695
