33
Energy = -69.63550954 eV
Ag 11.59193633182547 16.67578944468863 10.214897276605765
Ag 9.909457036734983 14.887757646705923 11.465701960050055
Ag 12.780664497241997 14.830446227551061 11.997825587965371
Ag 10.873194552994516 14.353555479319192 8.75552896263643
Ag 8.086323038290502 13.217386727849963 12.780262003260285
Ag 10.936356418984301 13.42101852882427 13.65816329339628
Ag 13.581533555876593 14.973609099114231 9.307773101841732
Ag 8.845716898097107 12.731177872710756 9.94738219068298
Ag 13.056871429140067 12.48216826350446 8.207530608596075
Ag 11.656416665679675 12.515017051351565 10.798176972466623
Ag 13.582539666569899 12.532875350654342 13.326560896142626
Ag 9.142228358133465 11.784060646716851 15.050393334979066
Ag 10.296936616166871 11.802978494239708 7.737346226044998
Ag 6.872942112589355 11.197210837448674 11.146615144423961
Ag 9.70827981586559 11.06316212087886 12.28572258311663
Ag 11.70487532007583 10.905038620887874 14.861462491989817
Ag 14.512507006444704 12.718688331052741 10.633259257536489
Ag 14.295979343304586 10.101577474985248 14.495934093566941
Ag 7.320755366853384 10.251428751449811 13.691945501106826
Ag 12.434601156796052 10.16580572532465 12.189621138609684
Ag 8.080601719800377 10.112147969942654 8.933225274585189
Ag 15.27086681810001 10.38027402678164 11.93710269287188
Ag 10.746160452713658 9.978379718034684 9.867244597425488
Ag 10.016778055209459 9.033190532161651 7.250375544270175
Ag 12.56651823348626 9.974732518541051 7.207749447421865
Ag 13.919640748357933 10.095897791930753 9.571976738450958
Ag 9.759755170911657 8.894192590789148 14.064900878065739
Ag 12.416376715442054 8.044132118465951 14.032110684345495
Ag 8.225447311880927 8.704480567791435 11.529936178311715
Ag 10.929111224038722 7.681222752390977 11.699077710739264
Ag 9.379097862338444 7.419454640054323 9.399660429408724
Ag 13.769882869646787 7.86614539712179 11.397997093554423
Ag 12.210257058805576 7.771765855584876 9.048208740373479
