30
Energy = -62.50407658 eV
Ag 8.297167622217838 11.176573918567575 9.289039637733376
Ag 7.020520991503214 12.104559637124975 11.683049058475584
Ag 7.090520756189434 13.718367507175564 9.36890831779598
Ag 8.294102214681049 9.463823690607033 11.59402000290938
Ag 9.730690784245644 10.35546297532278 6.956280808630958
Ag 8.497864494629015 14.604181318750378 11.597776146118301
Ag 9.827966074303953 12.012921132308524 11.579045957909498
Ag 8.401891621110936 11.010848453368451 13.898034128334201
Ag 8.437168100229794 12.837518623582662 7.066755690003978
Ag 9.871148591168398 13.548271855456873 13.84885437050309
Ag 9.650128075120245 8.472223644937067 13.915777797842582
Ag 9.693745640952672 6.975697386306261 11.53026029810691
Ag 11.229726870512055 10.996576110427476 13.942486387405477
Ag 9.905034269234351 13.913854449236602 9.20791297170646
Ag 11.10859041082153 6.044465179523148 13.76073492212573
Ag 11.133263610440201 6.220709302919591 9.275572338503212
Ag 11.295043945984716 14.50567112866144 11.57144353453734
Ag 12.624317611438794 6.866296181245668 11.556136397404346
Ag 11.208113266062123 9.463406587963757 11.56711018872964
Ag 12.715912766596137 13.563500635551966 9.361184363420591
Ag 9.657311877287194 8.639183167021837 9.262497477099279
Ag 11.194386100066842 11.191551360872104 9.300593173380443
Ag 12.539087859879318 8.492742384217262 13.855678819296964
Ag 11.324690352571253 12.83255075387742 6.971958127481274
Ag 12.731059343177007 11.976294243615332 11.753625101606463
Ag 12.835780688617366 8.505186888648263 9.245737261543319
Ag 14.033842642119833 9.361115862723222 11.670251903352787
Ag 14.064221480645042 11.055758079036432 9.434701885657283
Ag 12.612140559504448 10.340618874936721 7.083611141032043
Ag 11.15963606790699 7.890547872779721 7.044031067103005
