30
Energy = -62.2377212 eV
Ag 16.048134380863093 10.69546775511304 9.385983323760133
Ag 15.437824726787905 12.521386433981306 11.55617930728092
Ag 15.958924855247808 9.788203074620824 12.175555506516272
Ag 13.732154241785073 10.467576581643392 7.783235846241225
Ag 13.954043557825328 12.87382882610944 9.232272361254967
Ag 13.713845390712288 10.34220435532155 10.755221298169031
Ag 13.866886805099522 11.363001948472188 13.544621103967867
Ag 12.631723143092996 13.072013995002186 11.704159253315515
Ag 13.475849928493039 8.610631702161443 12.957702434615056
Ag 11.53873014362907 11.386587924917048 9.50411787163392
Ag 12.086957861499872 12.730026060249633 7.129799611573496
Ag 11.11756339619844 14.097038325334516 9.569279214991337
Ag 11.12360999616095 9.650201528555105 11.651462799228813
Ag 11.620007040051577 12.843080650468522 14.322392349824646
Ag 11.627917455601073 10.052411394435198 14.58121651786446
Ag 10.228417327642392 14.350862874410613 12.334688400646057
Ag 9.583218080917618 11.611482416671029 15.736208016291341
Ag 11.002076636041643 10.084869718763938 6.941240840568119
Ag 10.890966643724758 7.54304021671778 13.38438550654858
Ag 9.388339453114565 14.331767102190458 15.056289417362963
Ag 8.99177237532148 9.674838780617263 13.77917734338498
Ag 9.40146465902718 12.230397727945805 7.83792196717809
Ag 9.402161751965052 9.703353432283086 9.416637751180799
Ag 8.396301688340467 12.380611087716478 13.346942665089228
Ag 9.00143450805506 12.550337099761137 10.598984084361105
Ag 8.80286683969388 7.9352687903100465 11.5245007020084
Ag 8.220110993906724 9.59040278978507 6.959195883586108
Ag 7.459927793222305 10.429040755093084 11.568260237062452
Ag 7.030764846712417 11.302598162811933 8.957872857108992
Ag 6.974538806376282 8.490244486792305 9.398693388169056
