34
Energy = -70.8704572 eV
Ag 15.505478905142738 10.867681047085066 11.781166258764383
Ag 9.284537361088233 14.761799653770343 10.894728975651509
Ag 12.075967457664907 14.537256779820245 16.32800559238466
Ag 11.079357395161109 16.952050080064694 11.63282156235904
Ag 10.54529962868764 12.86400780522704 9.299048017193298
Ag 12.688501465773747 11.439696997771 11.97857326726251
Ag 10.390611945993196 13.180230576106004 14.373934820258722
Ag 13.601134072132362 9.060287889954191 10.826164793988033
Ag 11.134810890811739 10.438496130822795 13.954125753207544
Ag 13.516804397827988 11.80078855109112 9.301341495603205
Ag 14.853577539943698 13.85098320238875 16.25305378560948
Ag 9.828502824350473 9.881207204575563 16.288695709979137
Ag 9.890903209293727 11.92814265790836 11.84168658230482
Ag 14.288075719893119 14.55394907974029 9.075322902308313
Ag 12.470945436723232 9.077480616469051 16.035028912995966
Ag 16.66466319701687 9.942982758614175 14.167760291468452
Ag 11.803365048843531 14.114415357419773 11.880464974746674
Ag 11.665133123119888 15.422266506181918 9.362366054754105
Ag 11.111997126216796 10.214477811387132 9.97816524378265
Ag 12.291223306184826 15.98420438845032 13.970576692812275
Ag 14.628242007403726 13.50107069645501 11.583520163042007
Ag 14.969375336403411 15.251971746098238 13.806264867432661
Ag 14.582409985854213 11.066534063320844 15.860664494388812
Ag 13.189702478472375 13.053883314002126 14.196343914966235
Ag 13.138717259399439 9.220396907861302 8.150529517260683
Ag 7.940491047466492 13.595701076507163 13.024267220848255
Ag 15.148684770880095 8.342878747294645 15.849382773892346
Ag 13.876341179737086 9.437724521368455 13.599826676134382
Ag 16.018898070966404 12.611617164355003 13.990389658190617
Ag 11.866721507391125 11.790515140893588 16.403085169271677
Ag 13.800122272768856 16.175476810289073 11.329419472579152
Ag 12.394441572743434 13.590488993224469 7.315387624075814
Ag 9.54749140849689 15.792819135883892 13.59013857923556
Ag 11.242847506877837 11.060782221050879 7.3234658770086645
