31
Energy = -63.82536339 eV
Ag 16.825784723298163 13.98003510546055 11.414488921135069
Ag 9.256435097570057 13.354190731667355 11.166773558593093
Ag 12.186638885775988 11.932123871216303 10.233427720124899
Ag 13.88935512169343 12.714553626256519 15.718093958355615
Ag 12.992457907455961 13.061005263003999 7.737828974242347
Ag 10.807419105000411 8.679626644749002 13.68155573725062
Ag 12.41288129444523 14.877054875754451 9.807935184474179
Ag 12.457566901097596 12.710552626948301 13.055235192379897
Ag 12.359416528281866 10.5216496890475 15.019897700740957
Ag 16.875669646069905 15.825272174157208 13.520066837635202
Ag 10.217100858015971 11.049049788086535 12.311466750222966
Ag 14.919900257842926 13.886939025078384 9.511590456806124
Ag 14.139687725185738 14.92184840639533 12.333031634609515
Ag 18.737902517102626 13.712231079276217 13.399029510629022
Ag 12.893626018614336 10.018497214832864 12.181265055958347
Ag 9.761974902746813 15.772893133440085 9.889354034279584
Ag 11.167591439449147 12.78992488819391 16.32020556307321
Ag 16.046413844486473 13.25313873444317 14.055415251333475
Ag 14.769294210988612 12.022718786690364 11.553737470851592
Ag 13.648841279504925 8.207736932098518 14.130175695185635
Ag 9.525929411528303 10.803971522676695 14.993994903846907
Ag 12.98845316940033 14.715299220854208 17.3886483083074
Ag 11.185326514707864 15.125894319189786 12.228186971696163
Ag 9.532177081312769 11.021209920303319 9.602152466792793
Ag 8.433106025540141 12.88992049305244 16.38171120903072
Ag 9.71461701650645 13.434823957948273 13.93975205508626
Ag 17.369728376099133 11.381431917796727 12.582757105896357
Ag 10.353546101094379 13.386838653402886 8.543859977000201
Ag 14.876590623377474 15.369082958986196 15.396306997980417
Ag 15.003365247634648 10.662904051211804 14.057974010596228
Ag 12.222306328313277 14.927511738104183 14.729037760688453
