38
Energy = -81.44333542 eV
Ag 8.463317449634836 15.414580696853688 8.734684434422775
Ag 9.944584374112205 12.721450040520768 15.577348941494716
Ag 10.253010455309605 14.182609822553962 13.06671221417148
Ag 8.267616246801106 13.560424327967274 6.622106610726765
Ag 7.694768924170002 13.438224020250297 14.005944049887285
Ag 10.691711835276843 15.199255533464596 10.409436182491772
Ag 8.066738805517263 14.449219010925267 11.378265245440554
Ag 10.604844252864337 13.617853327686468 8.075466179155383
Ag 7.993552980601642 12.645836827892985 9.240543101422922
Ag 12.484572320023362 13.386481022115184 14.520183303870171
Ag 12.865992335716935 14.58794949009334 12.008469062589395
Ag 12.14902857848674 10.943973620735717 15.749542864528117
Ag 8.223221541163184 10.728303743918099 14.545069907064171
Ag 13.018228199004842 13.464565334672857 9.47453157691996
Ag 10.708608592003008 11.247918613497552 13.273895229825031
Ag 9.401645204549705 11.092741971989637 7.319156539807356
Ag 10.515437851848137 12.347432292994913 10.684863938168968
Ag 7.9447626674815846 11.64865878810438 11.896923686331318
Ag 15.030178721169142 14.235551520667844 13.700343191659185
Ag 13.061223941415644 11.635675490851177 11.793383437397594
Ag 8.684911859214155 9.979032570951913 9.780740397579189
Ag 11.976171949363478 11.129435865974104 8.370379078362255
Ag 17.12338468696571 12.509030802119954 13.171445317607704
Ag 10.469972984030424 8.88175372158852 14.793002622118884
Ag 14.640334732280714 11.558505650071442 14.373097063614914
Ag 15.31331434055575 13.201993991074655 11.127513965032582
Ag 11.310686810703213 9.580539157027767 10.84963530217469
Ag 8.902311429348233 8.985523139492892 12.456370310426085
Ag 10.583774810822039 8.649307395965433 8.128718453400266
Ag 13.050513940199066 9.388805555835242 13.552948570415701
Ag 14.59862900178463 11.014468398908592 9.450781292189161
Ag 9.454337692278832 7.2837387623429874 10.34258735988902
Ag 11.320562358282585 7.375100985438357 12.564726201280084
Ag 15.707478703075028 10.44971921443911 12.031736366645369
Ag 13.413752709251696 8.74908486100866 8.335487456450965
Ag 13.973218501907292 8.561482509484202 11.08085605887464
Ag 10.43977855513302 5.870896920083189 8.108492766580431
Ag 12.18907823903249 6.818133581814513 9.93987030136117
