37
Energy = -79.07377842 eV
Ag 9.242356143172827 6.1729035598542685 9.323448349432704
Ag 9.300676300778749 8.826094872210888 8.569987584223867
Ag 9.158246420311281 11.458497064468922 7.59754922386324
Ag 11.765870422352029 7.41980487221062 8.469226548234788
Ag 8.81344352194465 8.121258924832429 11.36692135714307
Ag 7.940514521560068 10.770790848474656 10.010761478387133
Ag 11.687420555180873 10.243269874351645 7.833188027060398
Ag 11.263381319038935 6.456907673651076 11.160284825782663
Ag 11.09889540937167 15.667575602983609 8.736860000067962
Ag 6.9845426260896115 10.370620673063108 12.589292623977345
Ag 8.934194934518437 13.830050604087694 9.149270251615077
Ag 13.90830792781063 9.234476663250629 9.231143091657666
Ag 11.418283304214775 13.11586545268051 7.620604663206728
Ag 11.420594206844791 9.173745892368286 10.553297624851554
Ag 8.750685865898975 8.955081074033622 14.304734475229955
Ag 13.802457791593067 11.956837694624333 8.592751091958103
Ag 13.643095879846491 7.901147122300077 11.744678577698071
Ag 10.644387904170447 11.840806438467343 10.053476967995827
Ag 15.506581891025945 9.974524579535146 11.387146990345133
Ag 13.101870239824946 11.345336653667802 11.428789320116062
Ag 9.785460378918707 10.523105517615722 12.324477461691941
Ag 13.701488925615392 14.701301306131022 7.920581836738236
Ag 11.297482363201025 8.253713797608347 13.303903326143976
Ag 8.228073502985206 12.936853969917275 11.751055502604409
Ag 12.613784040809078 13.977668950340426 10.328599564434173
Ag 13.64505237818872 9.793551133290283 13.835403253600036
Ag 15.369094088065843 12.881006491455393 10.681365232370583
Ag 10.140571325387944 15.120021262787708 11.344548225388698
Ag 11.140246890110737 12.880398289994242 12.78987635758011
Ag 15.492533301867283 11.901807719326465 13.37637361313329
Ag 8.520080993122804 11.86105849394748 14.462222806422023
Ag 11.083486225264691 10.53048853341687 14.938320888517445
Ag 13.870834908213343 14.039771961915136 12.751253700308267
Ag 8.940346654641518 14.599181971975327 13.85924395781909
Ag 13.172050899028063 12.384281428676715 14.894527744928201
Ag 10.642524411579497 13.244047592788638 15.648986898893313
Ag 11.679540186401729 15.297964664682482 13.872032656446992
