31
Energy = -63.58713236 eV
Ag 11.484887365952405 7.65539624307043 16.96717556652345
Ag 11.019015448471373 10.334386944757327 17.160828090823244
Ag 13.341323034453868 9.325787167745236 15.702285106622744
Ag 12.944132302803846 12.149347847460495 16.235340776659505
Ag 15.255581951835124 9.463667026170176 13.591145241467046
Ag 12.078253907565845 13.928092559911482 14.140962728219849
Ag 10.471827363226351 13.086939921583323 17.177279047524774
Ag 10.761243516159578 8.986041751030529 14.636944162636995
Ag 13.127677778545543 11.215999916584728 13.67819133326134
Ag 12.753616388526853 8.532973268963183 12.7775732994541
Ag 14.966658494002422 8.323677919436399 11.062959642359548
Ag 14.766553954936628 13.396497912973594 13.088245711376924
Ag 9.455020891995755 14.457963156683856 14.940158239912556
Ag 10.349765257103556 11.754273744338102 14.766787819300177
Ag 14.914016626566289 11.151097100378298 11.258871452856175
Ag 10.720248894980845 10.488957921990755 12.25027573979523
Ag 10.33933863829761 15.830618966207714 12.67524448164488
Ag 12.470755382759217 12.732680788479644 11.471778462003824
Ag 9.73668388985757 13.110469651165353 12.400850928442836
Ag 12.529156592969741 9.819696534709593 10.252809752298523
Ag 14.812832258078247 13.846945518342922 10.283325596994013
Ag 14.930241650889927 9.801467001383843 8.748638728400978
Ag 13.092414370857847 15.492673995595128 12.07327822924291
Ag 13.307519810313156 12.03199033517249 8.78861886109639
Ag 10.489520616182118 12.016500472485863 9.779973752444178
Ag 12.209820888697328 14.537557630527838 9.259233256339202
Ag 15.900658937046863 15.742305495352852 11.937798665194135
Ag 9.597204039810121 14.740845504981387 10.162249481039444
Ag 11.305707383250004 16.972199213986087 10.33771087772309
Ag 12.720871745374163 18.530418810132105 8.641821638737094
Ag 14.179401242949798 16.574480302859595 9.783593954063793
