32
Energy = -66.736296 eV
Ag 9.557810028340445 9.580469855655668 14.272697014048779
Ag 6.829414481796102 12.395843522979098 10.804802361040556
Ag 6.516449244063947 13.093958984284615 13.514552499547424
Ag 7.445037502238985 10.519494488435905 12.719429452394998
Ag 10.347903210978158 11.255816756445718 16.244222138356115
Ag 9.164804579634499 12.425157920196588 13.897192871896095
Ag 12.277459302831195 9.478531855622908 15.153114516760407
Ag 9.44952641315225 12.691129889472345 9.82118172645626
Ag 11.198675655917537 13.631069116281225 11.934966667578374
Ag 10.366675399705901 15.378741752544713 9.968014838223905
Ag 8.24321288674544 10.160429597200924 9.98727918503268
Ag 11.208329964243495 7.5831703178314305 13.37672370405507
Ag 8.869297189881342 8.223881343361532 11.925206217101968
Ag 10.448995756074424 10.788259769129088 11.762006605910884
Ag 8.499274606014223 14.354915054553175 11.948930868260922
Ag 9.111213592432636 7.6929742760770035 9.195623658264468
Ag 13.146322470786624 14.904048426592384 10.328302076592667
Ag 12.978830891202124 11.949033295332367 10.42619780106235
Ag 11.418991177398132 8.211423712772554 10.60081073939679
Ag 11.89953749206623 11.94936784084926 14.004446468908094
Ag 13.86769353400061 13.503297818403407 12.732401688827625
Ag 14.555602312444819 11.15759876041781 14.269397800598933
Ag 15.66535488010485 13.654810393199496 10.610767443588012
Ag 11.696108659803174 13.422909788991065 8.379183724608165
Ag 16.486315952574454 12.979868911235986 13.283727582017613
Ag 10.998812819968165 10.458561420703967 8.928168221024213
Ag 14.44422461050148 13.872818647677638 8.042184731243802
Ag 13.71434723485963 9.392808696933379 9.603688762841811
Ag 13.077597843337976 9.578062595653671 12.389337846381668
Ag 15.402731619256539 10.987011406871144 11.622007435712767
Ag 13.222262107148776 11.266007924638286 7.448406160955513
Ag 15.520657439872947 11.438236578914715 8.910068957522736
