30
Energy = -62.29642741 eV
Ag 15.388951767838101 8.572395340229624 12.879973447568274
Ag 14.652193867516447 9.652960418978555 10.466767935732367
Ag 14.274906605480982 11.150905046218426 12.877171444102697
Ag 13.18958921993153 7.435138489074583 11.580817170666235
Ag 12.856307013990733 8.999603419632935 13.916341924806321
Ag 15.400032799267388 13.54770842970355 12.10459966566082
Ag 13.845719241774427 10.796389862815303 8.076060875180726
Ag 13.514172228068645 12.372474574117534 10.421955396457669
Ag 11.69657949854715 10.418308796338877 11.524584917913575
Ag 13.120639741053804 15.015418993225582 11.68901350551319
Ag 12.416253198759032 8.572010546780124 9.207966791092922
Ag 10.840893923088009 6.435273255366473 10.362426313510216
Ag 10.520489514979655 8.07579965922466 12.668311120914542
Ag 11.972528377944792 12.822746874903245 13.003963637455975
Ag 10.633607944464767 10.58796258114376 14.126482535130222
Ag 12.415054986974608 13.30637170421028 7.890300654771257
Ag 9.143593559465778 11.603013226392042 10.594672467381494
Ag 6.698893515488125 12.091869497796386 11.928652305064118
Ag 8.15078802808285 7.2993314406147825 11.333341259857237
Ag 9.11402825480677 12.709671446890827 13.231161849716699
Ag 11.049639602105948 13.715756052317662 10.36159503017435
Ag 11.19606057644245 11.078808792234591 8.796586526787136
Ag 10.39873568761623 15.171870452428866 12.602620091627376
Ag 9.386485806441408 13.271967793938977 8.190514084115733
Ag 9.727663431672186 8.919855207358868 9.8526243601779
Ag 8.367436491392876 9.869092650006989 12.698043737593922
Ag 8.27201544669592 14.285300253594858 10.926953943172942
Ag 6.96385908112543 9.760752921107631 10.211793375591867
Ag 8.54624954218191 10.595887746658274 7.924968145613585
Ag 6.850230941278118 12.468954421171059 9.153335381124847
