30
Energy = -62.37172491 eV
Ag 13.771171182224583 7.826364456482476 10.34571908616965
Ag 13.287283105990731 8.36023022183134 13.071463712921217
Ag 11.168701720408757 6.579875581475465 10.61773982721882
Ag 14.387913980126061 10.351894517540629 11.456240707710734
Ag 13.414038131474811 10.250865858984081 8.822857925035716
Ag 10.63025940172965 7.586676915633661 13.159601294352056
Ag 11.937248710061908 7.9321914312843385 8.243188723535676
Ag 13.94184699498414 10.869442511564026 14.19813970476655
Ag 11.294950241930708 10.282984898614961 13.571619883933536
Ag 11.440558590940695 9.369113060507967 10.830317300329156
Ag 11.795836785658123 12.142257868455376 11.257239031184335
Ag 14.589324198661 12.558800190052805 9.7350252480904
Ag 9.310890134180848 8.237658174017296 9.106132166203253
Ag 8.445205897010679 7.053230826223774 11.454412418416767
Ag 10.72885016668329 10.43417797334267 7.99081728149749
Ag 14.258253805769336 13.000393346383305 12.441311719310372
Ag 12.056477854906678 12.837289949289934 8.475052654885152
Ag 11.984203824527947 12.975492457862476 14.076226964260686
Ag 8.72072340072336 9.560309740870053 12.673794402073574
Ag 7.954337868468064 10.245906573944596 7.775700104467902
Ag 9.249786398395637 11.145916486845586 10.372393935934529
Ag 9.167337698324053 12.851373653983382 8.128385269993078
Ag 12.981462424143194 14.691061457551115 10.54048060971539
Ag 9.400599521811861 12.345839018723357 13.085701834953012
Ag 7.013376568168354 9.329085413509032 10.396963388493594
Ag 10.660679831385696 14.65030260524107 12.240426950326764
Ag 10.436248427809861 14.890480245440072 9.480703714411646
Ag 6.714746924502302 12.104270695574753 9.370257552698728
Ag 6.920189189322344 11.624696277222553 12.091813443656264
Ag 8.286371514138056 13.860692086010706 10.939147637916538
