33
Energy = -69.29914296 eV
Ag 16.47339479130077 12.917975927833249 10.674391483893602
Ag 15.91340911901355 12.40919719936954 13.707961321333437
Ag 15.722542742506269 14.99796495600876 12.424646993263186
Ag 15.447856895608783 10.346925438623714 10.450082590372473
Ag 14.140452679506161 14.43960138717772 14.63455924378695
Ag 14.643125416024036 9.937480024175688 13.160487875492077
Ag 14.241313933404765 7.938028158425588 11.214200759898498
Ag 14.482203751467786 14.829791240316583 9.889843311848427
Ag 13.157636295106292 9.20642551803847 8.724782337270225
Ag 13.967146207795105 12.761655671020115 11.814515796037963
Ag 13.144262390038273 11.868142785421089 14.420004160591454
Ag 12.859251322466468 15.332168038487207 12.27320590709792
Ag 12.723926690444165 10.350945453499188 11.109372976890175
Ag 11.352149172158398 14.096882633023052 14.424428985086246
Ag 11.539732721533168 7.728639643477933 10.678385491772662
Ag 13.918923387719712 12.197456457211828 8.994068760057523
Ag 10.47708393522187 11.51294228288085 15.1875188685353
Ag 11.677173240545812 9.542355518958914 13.473779639360298
Ag 9.710817961196007 7.694713183646544 12.755745269236323
Ag 11.193258779929499 11.44863097782223 8.887344361675984
Ag 9.91777280086925 8.72142485635344 15.451049050732832
Ag 11.886102940332202 13.942824647732229 9.970200473283422
Ag 10.345181143912104 8.837472170935358 8.39330387938943
Ag 10.08196783409831 14.982498069352486 12.020005100908865
Ag 11.110164313608356 12.254505245074494 12.270277076138413
Ag 9.796326341998883 9.943619100622858 10.987049671618939
Ag 8.697092857998362 13.002573558668029 13.546859494707563
Ag 8.623291011513949 10.175713786247952 13.543033856872585
Ag 9.262280160754871 13.083919110043214 10.10110514756459
Ag 8.363192956461262 10.808398973915795 8.759194930575562
Ag 7.291332023572219 14.400213569466164 11.625872521947334
Ag 7.375917231266929 11.484637205869921 11.512764413773827
Ag 6.586554282208088 12.95091235190788 9.323570772137263
