38
Energy = -81.26358425 eV
Ag 12.774966480361899 13.65884902418046 15.413622880481183
Ag 11.332571035643895 11.266838705321447 15.956168947505422
Ag 10.11622913848806 13.048074327765027 14.221671458125266
Ag 13.807895716833336 9.893361163281282 15.663411902264915
Ag 9.072867978968702 10.343527185075065 14.523879641961889
Ag 11.723799305884768 15.280506840309954 13.396020105512411
Ag 15.20916857646758 12.095185980808466 14.796966606628084
Ag 14.30358087186194 14.057418734417547 13.025111622945927
Ag 7.722325854067504 12.09837096180881 12.851515297231565
Ag 13.621197888484852 16.045674867023358 11.30215587217323
Ag 12.753833832747775 11.692570191407269 13.47396473172119
Ag 6.973537012990692 9.387368541035405 12.927309257934338
Ag 11.576397568598955 9.136404569065805 14.133430328262747
Ag 9.14474705500086 14.34802142267013 11.991425681889455
Ag 13.597875894216669 7.223852932423996 14.748545335339475
Ag 15.421519967549886 11.594121513335292 12.013355463062474
Ag 10.353889163566683 11.112417303223475 12.007167466825786
Ag 9.501101609892329 8.271645745060196 12.54177927075179
Ag 5.875276934023978 11.005314852981813 10.999250576011105
Ag 14.301376174855553 9.258304846265654 12.999979558194891
Ag 12.250085505042327 7.234893623948492 12.274173316471797
Ag 11.7987171335917 13.508726511084449 11.190436884536156
Ag 7.998970488027836 12.520708355207926 10.108384383894764
Ag 11.079876415945709 8.803883889062416 10.344753349737799
Ag 14.563146126765858 13.526189846830377 10.190587966573846
Ag 12.940492067913864 11.013529279726779 10.770442867512688
Ag 8.37980218827876 9.763332502588225 10.332773520916161
Ag 15.234762090128049 10.819970034717901 9.286351070030037
Ag 10.885600225757841 16.26266078835084 10.91888974293783
Ag 14.016896684402974 8.446985883153316 10.387431710433084
Ag 13.25968048223188 12.35905648722178 7.988825658265679
Ag 12.56701757940358 14.998244485510439 8.856124415920803
Ag 9.777350847063978 14.385042611077928 9.23062164723452
Ag 10.507913599803702 11.598538556090643 9.10006140328494
Ag 12.73257466452963 9.601770157843053 8.21513302620608
Ag 9.842624449673504 9.148289080612585 7.910782920636677
Ag 11.298989303710897 10.953380405120708 6.328901328725487
Ag 11.038907632052824 13.594533339222835 6.936158326688215
