37
Energy = -77.79800455 eV
Ag 12.659883551749509 13.385339588154066 17.843416097911227
Ag 15.106583891051685 14.01620027839938 16.557736442640888
Ag 11.788265105329405 14.76105067072874 13.583220222503433
Ag 14.492464213335822 11.30912790057188 17.131135904578077
Ag 10.213558124550518 12.995840366632212 15.124607312205917
Ag 11.68797083717071 10.90941725179273 16.749187052827455
Ag 9.047280258517253 14.5885351522101 13.101432839345144
Ag 13.425779909185387 16.646241689970047 12.12920064362114
Ag 14.558581030093084 14.820991829756377 13.906434765088596
Ag 12.994153190911524 12.816363872713808 15.189172169837157
Ag 10.78324474759249 16.313602913121404 11.477339049889803
Ag 15.686999806242719 12.056319391686994 14.620487536114346
Ag 8.612935591031238 11.585010480508089 13.22641488448157
Ag 13.854113603275861 9.931556547409285 14.809745369188025
Ag 13.22692900025255 14.130788318368138 11.084931397773115
Ag 9.084905463820633 10.520062212063253 15.833152607727163
Ag 8.190423447461868 15.92038731458218 10.780240815676688
Ag 10.783431303967236 12.541590399434027 11.788728569078213
Ag 12.42393159282493 15.970984947009205 9.205986701423376
Ag 11.19431904734766 10.528405152400529 13.999519523706416
Ag 10.193344273696164 14.338523705562018 9.568533868018026
Ag 7.9824015625591205 13.135554345727467 10.981282235703524
Ag 13.329555193692226 11.797532757276821 12.573247543502557
Ag 15.796854787191263 13.196163901205871 12.075327185016494
Ag 15.56869919732593 10.221998128937996 12.277804311662438
Ag 10.150717452579656 9.63577427287214 11.559960034608494
Ag 12.973292423539212 8.991908321806735 12.3523044900933
Ag 14.723988257179334 11.88105944490702 9.998984811329226
Ag 12.544713219058576 13.171357006923142 8.54131211534019
Ag 9.583024734575028 11.596346272875943 9.38645847816336
Ag 12.200769713992308 10.629414980495486 9.909173815677521
Ag 14.513670555016532 9.0081890266648 9.881420858065336
Ag 12.02778013535539 7.561917850525291 10.268801245138285
Ag 10.11319038550628 8.921032273153287 8.811013690676255
Ag 14.07232182133905 10.888350094233243 7.571627697192796
Ag 11.294865863723235 10.968955898357528 7.232562204686721
Ag 12.712629883027402 8.495158257725288 7.7358176944791035
