31
Energy = -64.54199894 eV
Ag 14.233539855061505 10.026581946820551 15.795601341058438
Ag 11.58362874819742 10.784765874906535 15.78931835924077
Ag 13.650484686111328 12.517109570197777 14.770263997852192
Ag 12.415433826841753 8.953701306532851 13.828839447715977
Ag 14.754779979098808 10.516028011677378 13.05141486786549
Ag 14.343957894262202 13.23899927489027 12.148834639416208
Ag 9.770333736895259 10.099418479718043 13.795427795416778
Ag 10.036819177560188 12.802068972935121 14.577045463024112
Ag 12.011867305272471 11.642014026608502 12.654555252593635
Ag 10.520224726960588 8.220095435902357 11.860845324552578
Ag 12.065557170188185 14.41366272344136 13.38792331510871
Ag 13.037296712189132 9.33540042818104 11.143943737037443
Ag 7.7594094327009255 9.455184138639424 11.96028306057846
Ag 7.757177903026698 12.03632738769017 13.190529202414716
Ag 15.25154116184819 11.14478067821836 10.340649496378372
Ag 14.769533599716983 13.917359565968411 9.527151139686874
Ag 12.19342382890095 14.440014944353246 10.600888544252593
Ag 12.63478447648791 11.794910676650005 9.790395768028262
Ag 13.838162575396161 9.520328583830668 8.413820528630955
Ag 10.112278653930495 10.760122581210918 10.81637928754066
Ag 6.465477556032063 9.829021434634106 9.454553006591729
Ag 11.20137301759959 8.925186197475183 8.963801219034787
Ag 9.802369877791818 13.482723200021887 11.859692202014063
Ag 5.547059870523755 11.137064702320902 11.740734973978089
Ag 14.521043932696447 11.99056256278153 7.522266137440658
Ag 8.659273139017277 8.15622792128971 9.70238145122847
Ag 12.479201900395429 13.863201438111679 7.782344409579777
Ag 11.591379855043268 11.224969522321347 7.266206774491162
Ag 10.135469214788968 13.011213012243934 9.08382669470876
Ag 7.705875560038718 12.207869627031009 10.32381208668083
Ag 8.919364205879106 10.596510154757105 8.202224950548805
