39
Energy = -83.145243 eV
Ag 15.870458905409663 14.040304066492451 12.984131489759116
Ag 14.553924949192748 13.547445150155385 15.398018529170477
Ag 15.657531971226582 11.409292107993412 14.106304678616832
Ag 13.417605457610174 15.298226007561912 13.410872409390397
Ag 16.898398991404246 9.559971982703177 12.377772613635393
Ag 10.716056539767042 16.21682802305637 13.940157150649892
Ag 11.872606218625048 13.868317545054584 15.196506564144894
Ag 15.638366846624702 11.851236085700135 11.269387621546763
Ag 12.940446660572535 11.097881810688195 15.179695695430949
Ag 14.240527106154289 9.220409491399502 13.24388623409578
Ag 14.049862355647159 14.281524608010814 10.86775353486004
Ag 13.183366326952745 12.16940958338927 12.645115306001225
Ag 11.945359388030521 16.174820420031622 11.158992660677992
Ag 15.598074656633868 7.271643728791442 11.6005558551299
Ag 10.561656632708226 12.06912482645206 16.76407491445436
Ag 15.727181220920551 9.470567139731344 9.810242379752536
Ag 13.09890247205543 10.01462341594994 10.692957598956339
Ag 9.130880986568949 13.977776783888382 14.967134377826227
Ag 9.574352859761913 17.60199474178957 11.798660497040798
Ag 10.335547153966866 11.583776707415092 14.114403938055572
Ag 14.120942144780305 7.229663876625235 9.224867900068444
Ag 10.900621857885582 13.93110813011792 12.44430972512039
Ag 8.127143748714415 15.460145861601367 12.780826491131586
Ag 13.612480914627566 9.627496681359482 7.878987552299845
Ag 11.473923272211302 9.29077048353798 13.169078999652472
Ag 13.922395227423555 12.136169834770273 9.068722190203298
Ag 10.71440572004665 11.421420061615171 11.27760149974711
Ag 11.618090638131351 13.688644461968577 9.61643524171335
Ag 9.374270536919449 15.247487758847253 10.265404976887373
Ag 12.756822921169919 7.332179148127422 11.642912030682917
Ag 8.218788636974237 12.651929894934687 12.596642820200948
Ag 11.46602793289938 8.279223879557597 9.109521629643377
Ag 11.297880347277514 11.094672379315885 8.48851981207914
Ag 8.684900802304545 9.863780607690263 12.501987334337576
Ag 8.994739832332737 12.617885932989966 9.340801154703572
Ag 6.87245574754425 14.06660749310279 10.660528027012097
Ag 9.988135535350064 7.673097486562189 11.382415593443852
Ag 9.10794364638384 9.70655042366646 9.626259589147272
Ag 6.963280079900911 11.182348620064515 10.623910625439583
