30
Energy = -61.6239842 eV
Ag 14.062416457392622 14.585797224784349 12.942598293784268
Ag 15.473711707816648 14.716001344792506 10.49372572285969
Ag 11.324279308296408 14.968363670432899 12.686891073359591
Ag 12.725347577915246 14.386764197418882 10.398962373857614
Ag 11.849177152278545 14.031521964745846 15.217052410563836
Ag 12.77121515711586 12.15177653675701 13.474385873162564
Ag 14.390023925762975 12.264029377820883 11.202444246360603
Ag 14.350486971965571 13.057208130010952 8.46749267466725
Ag 10.137979728229384 13.432060694224676 10.698667184975731
Ag 9.848459337131409 12.776262574254387 13.461079663362787
Ag 11.491156512600458 12.81830079821909 8.388383093360813
Ag 11.01037166333007 11.358526805549129 15.555343655260984
Ag 12.952856572324736 11.454620733766372 6.518598802089443
Ag 12.96980310073778 9.589389611531246 14.613501956782303
Ag 13.215522979612551 9.875717903632003 11.912239031899658
Ag 8.892707191602344 11.94492685911614 8.684629687334128
Ag 13.173778630719438 10.640005636770171 9.255453574706454
Ag 8.294573056374677 11.491330424388918 11.44323438355805
Ag 10.1368551031521 11.837612534715655 6.079150294671384
Ag 10.58209137892035 8.566089707706013 15.556439996461487
Ag 10.922403644935399 9.900478089225745 7.8275377731502145
Ag 9.099230991153522 10.131431749631345 13.77426271912736
Ag 6.939843369260876 10.154867393580126 9.373550367997854
Ag 11.54462218713123 7.878108849323819 12.952298318803198
Ag 11.563552937217537 8.504235288291886 10.137110082122762
Ag 8.216840232802982 9.926763831974135 6.853179864318897
Ag 7.9163516016484134 8.746858787054576 11.579244505172014
Ag 8.972182384155538 8.280478796681496 9.000705658195916
Ag 8.9017984506067 7.3143230551850245 13.775783349795669
Ag 9.754403949036575 6.714116986307042 11.176439502182507
