39
Energy = -83.01219161 eV
Ag 15.161099871366714 15.797501068254501 12.515900496633131
Ag 15.627623777302494 12.964377869326826 12.620937256675845
Ag 14.876008547047858 14.112943151004075 10.205768838987726
Ag 12.505429572134545 15.056025145809567 9.07031667430225
Ag 17.591640773566823 11.666853292342655 14.361792717695852
Ag 14.721190033502662 11.259470983238767 10.556505564559245
Ag 16.678368984628978 14.326014290452832 14.764782773615597
Ag 13.92271601721993 12.471531453349483 8.185289155110596
Ag 15.590484021049473 10.166775500944137 12.980989663415356
Ag 16.10409956805347 9.417725795074949 15.543786734759468
Ag 12.435043378838746 14.053411018005207 6.464944119610664
Ag 13.520574658936802 8.876336937472145 11.66189836432531
Ag 13.908310139548522 14.450832124124355 14.602894621985728
Ag 14.550464993221738 7.620402292302528 13.970245979806238
Ag 12.657750189342602 9.880118287206221 9.199604621072284
Ag 11.981167573329216 12.409676099011094 10.265395979373586
Ag 11.665759709736992 11.38789993911315 7.001864485942271
Ag 15.028361568522843 12.034159913903627 15.306325598306461
Ag 10.278793224094516 13.502686349343342 8.215948468046928
Ag 13.026434348386202 11.700925540591676 12.891458359337996
Ag 9.948050365958338 10.64931694012982 9.054017780234126
Ag 11.715639567166171 8.031373767811594 13.676154623896855
Ag 12.696082563551425 14.62372098689519 11.923008750557495
Ag 12.290983884800308 12.420345369277749 15.651166765452889
Ag 13.305157883223751 9.838437489905997 15.057081700188247
Ag 10.143687292694642 14.865669352730473 10.673896023612143
Ag 12.763061309444284 16.798303444018195 13.75298106168014
Ag 10.931736203441657 9.921149048074627 11.630297893799325
Ag 10.454902051177752 12.667194841233544 12.545338708470132
Ag 10.614353104500065 10.510969495008338 14.525324468025019
Ag 11.568791989241499 15.136153207454525 15.874911437360593
Ag 10.344266286805212 15.418220989591205 13.429272224848326
Ag 8.424456301943104 12.74024328628275 10.15991434426724
Ag 8.961148098394135 8.617607179622674 13.348616349780139
Ag 9.609886535198315 13.20578684705089 15.159686915937032
Ag 8.05706699313686 14.033067982166386 12.679666762585036
Ag 8.177476220800042 10.125812829304666 11.159342958456827
Ag 8.078442465972737 11.297947344205165 13.714685500741878
Ag 6.236813405463155 12.096336021109185 11.751308729286928
