35
Energy = -72.95135914 eV
Ag 8.236404086711515 11.5320332106323 12.049045205878276
Ag 10.663753305996682 16.360325795287398 11.436553308461042
Ag 8.863492362805506 14.159550733079138 11.219774489706369
Ag 10.716382862739477 14.637622759831604 9.174174755797114
Ag 15.704560892182988 15.77274497972859 11.353414685832842
Ag 15.44130705650757 12.263239099563663 14.773447254692167
Ag 15.418909552104079 17.613028111896124 13.360339820655815
Ag 15.480092478689707 14.946238394248894 14.056699546437775
Ag 13.839697101099668 9.929513604912655 17.853830855069642
Ag 10.784633872419931 11.742309235800855 13.418008832642851
Ag 12.016303533177764 7.293253221017863 11.835844566818105
Ag 13.197290714033846 16.042663446233057 12.78222091290426
Ag 15.50362497895443 13.943686717675295 9.354403694618856
Ag 13.254291095276635 15.688477459981087 9.928234012127191
Ag 8.50771881860995 13.378822481066067 14.225233078618972
Ag 10.354163024465004 12.001690605230067 10.212737935015973
Ag 11.938019085085864 13.839106987715441 11.586822534447538
Ag 12.258311834432943 9.385880638295012 13.570234410462199
Ag 15.26018028461658 10.377039560735579 12.72391198182814
Ag 14.975367699032502 12.132206426038445 7.371513900304333
Ag 13.00606533823273 13.458719283111959 14.191010584872258
Ag 14.83119207588883 13.128235941798827 12.007535729615103
Ag 12.917712194732943 12.831845902105258 9.094023411273499
Ag 6.443429664482011 13.686587413893527 12.481953453063982
Ag 10.2934345143177 9.580606061617193 11.611775389729402
Ag 14.38836985798883 7.693789759725922 13.498303581579384
Ag 10.7035966092958 13.010283743251689 15.877726131024934
Ag 8.194464194173925 15.966523677746258 13.152112548750527
Ag 12.749209260585442 11.121073640279153 15.659038680976195
Ag 12.880104864553838 8.16087211833152 15.953120949330739
Ag 12.761895263933996 11.118822371944356 11.399229552609357
Ag 14.107965877568798 8.728246401029834 10.826996144641111
Ag 10.710819305077344 15.039159758038991 13.904068971185959
Ag 15.166522794007298 9.621354148211266 15.40091848173124
Ag 15.202191842984666 11.166354642490742 9.952068670885472
