33
Energy = -68.72040921 eV
Ag 8.7191449978141 12.885705551738575 11.10072022153613
Ag 12.234874807553744 12.986446748755558 10.3064815742649
Ag 11.108104989607094 10.520804420953723 10.389025231700828
Ag 12.844421582314974 8.377790259982975 10.921468380227768
Ag 10.361058534530006 15.024854791809902 10.42325969971966
Ag 11.562215965184448 9.317992717902712 13.206716974861363
Ag 14.763068340205514 13.577521731960527 11.562642673798043
Ag 14.52328407271112 13.24504138696055 8.691307163665261
Ag 9.894522199312474 8.247534836902108 11.225228476517891
Ag 9.890339389552192 12.510869309993701 8.619399053045573
Ag 9.326727466070098 12.143842142021441 14.94659091066194
Ag 13.936710143889599 12.762384917934549 14.136022199911187
Ag 13.353304143445998 15.489191954532664 10.008277228256999
Ag 14.260580963580626 9.740754970901337 14.28636966469744
Ag 13.576447485967131 12.733862125195465 16.869986729984728
Ag 11.844502552030184 14.369257909397566 7.907169140471684
Ag 7.198234391686071 12.83540034362904 13.361653174110453
Ag 7.185286889338639 12.724039262146809 8.824301877969814
Ag 12.317239607697287 14.802736325560689 12.590285104795077
Ag 8.8716811796343 10.464444636796083 12.688768049408381
Ag 11.182930453927845 12.217158938359491 12.822457811222778
Ag 14.925033339539892 11.268071217432505 6.833416458883744
Ag 9.557527817209765 14.465974038435196 13.251840864889234
Ag 16.107622983372277 11.49303428562762 12.92101753034988
Ag 9.69084529300022 9.377653345802722 15.246204062606113
Ag 14.342810923882853 10.311414081902425 9.34593525723736
Ag 8.378862734781704 10.375405293832022 9.85678106982368
Ag 13.5339986590713 11.00288798439121 11.898632677311914
Ag 11.556700104498468 13.856734544265207 15.205083740383456
Ag 11.978466852325262 11.057045168626198 15.437840807834567
Ag 12.321598222930108 8.34667800516308 15.750440968836873
Ag 15.502429688315713 9.089890980756504 11.649511671200823
Ag 12.34373218174942 11.537450717922644 7.812765312763837
