34
Energy = -70.98762415 eV
Ag 12.08217389939956 11.753478610056472 8.26452657014103
Ag 10.698530635161335 13.755585445311105 9.84441046337966
Ag 13.029289329206307 9.63751284303474 9.946453305370756
Ag 10.406883680918343 8.672609864036488 11.261221146746886
Ag 13.284727246485513 9.496910660018411 7.194091334969435
Ag 8.115098189703621 12.712417153559192 9.985345197929338
Ag 13.574339861299528 13.822123678962313 9.605525755089161
Ag 14.968416190882557 14.556555176107905 12.161363939919909
Ag 13.688973876013971 14.649923272908987 14.552562108107521
Ag 6.817868725835737 12.629205698992042 12.615034577954065
Ag 9.501875083044272 13.33713115578715 12.421316554357245
Ag 14.823882405245834 11.410725751164977 8.720805031786334
Ag 9.581927181679307 8.936944443586066 15.72733119299386
Ag 17.626113961097353 14.894108619494569 11.925060287553586
Ag 10.312988031401602 11.602502068888276 15.52058299647967
Ag 12.580227730842571 7.099599804515673 10.958569148065578
Ag 12.685372957582112 11.98591841188485 13.999159380814074
Ag 11.191520669623786 7.56091961338381 13.766101825126489
Ag 11.248671460770423 8.034000991788226 8.56279573037761
Ag 12.926893475984649 9.475219474955516 12.729035956608119
Ag 12.243102401318884 14.078024080919082 12.16787283904739
Ag 8.262375033516177 13.432652004853052 14.91777753842442
Ag 14.137599277100627 11.795090903097917 11.47947696828342
Ag 9.686375144645822 10.419100991475501 9.20764577384019
Ag 8.502568758836277 8.283791671671093 13.28349724759466
Ag 7.827854005405759 10.715036180077899 14.475858696875944
Ag 8.446129599255874 10.570441100136145 11.725789461658433
Ag 12.22889710124272 9.601603524109407 15.413241700840391
Ag 10.973456425401173 14.156256744452051 14.698377076613863
Ag 16.318496596442557 13.187365865633758 10.22727166556891
Ag 11.29759969274383 11.425492846277669 11.392690205345833
Ag 9.513149458272895 12.62228612626263 7.4924804586862255
Ag 10.541910723081857 10.013676820446344 6.6239708231528835
Ag 11.847215931649725 14.367992261906219 7.418725211081078
