37
Energy = -79.02486933 eV
Ag 11.269315727561233 15.008280378879034 10.437691819630436
Ag 8.687615461586685 14.848072661908228 9.157580808677038
Ag 13.52556868070693 14.007066384811734 11.908905480102115
Ag 10.731568814424826 13.706873986166723 7.742941238517902
Ag 15.702217668800733 12.8088710579648 13.30507165540224
Ag 10.949397193672286 13.505365010731623 12.995318466361978
Ag 13.027729306364039 13.10885433039793 9.252577269404222
Ag 15.046241689383097 11.828705580202381 10.77570946183509
Ag 13.144926356322689 12.404080622151312 14.320383192862371
Ag 7.936686389977934 12.686397522787624 7.6157333914736105
Ag 12.643880798769832 12.022634203947614 6.629915374405461
Ag 14.40716469446706 10.747813713197598 8.299757836295113
Ag 10.002462877034688 12.547266623615704 10.344795972907573
Ag 8.660465776107797 14.604468458293253 11.898672304582567
Ag 14.60702548103522 10.20358586195323 13.069800520718138
Ag 12.348117852749457 11.408221014737546 11.68336414861498
Ag 15.37935602949094 11.265660468583318 15.610526377142435
Ag 10.085021617393263 11.079412995685841 6.688410583287503
Ag 11.557040437928388 10.596827526777284 9.027344372826317
Ag 7.165729514389563 12.618772414981702 10.429805969201777
Ag 13.773161103309498 9.18394419389128 10.52806822914077
Ag 7.552908386187256 10.054277029829306 6.574040290702852
Ag 8.444622043880582 11.99894092655773 12.903041722251237
Ag 12.80427923757211 8.414309267169626 7.9450980610383235
Ag 10.71695771423894 10.927548239836034 14.185917819725491
Ag 8.39244918782817 10.406692053367625 9.139320551749185
Ag 13.021784779865728 9.752221202164728 15.341796207505766
Ag 9.930832035309649 9.910131418943557 11.46193973063838
Ag 9.940598275408801 8.474036061895927 7.85964152345276
Ag 12.275076130311717 8.595313662630511 12.804293139681157
Ag 11.328729540302813 7.706977314547605 10.222678154178524
Ag 6.975146175910911 9.968683772491802 11.52631899003555
Ag 8.395617002913704 9.359737660315309 13.889146487364375
Ag 8.454844402673926 7.75211421145457 10.174503526510076
Ag 10.683723860248481 8.231752730313355 15.054034934364775
Ag 9.831422524001301 7.202854369061984 12.575149629935044
Ag 7.035481060370113 7.330962731716577 12.571650862347498
