45
Energy = -96.63229974 eV
Ag 13.481833377918251 12.472182168223853 5.962407091975955
Ag 14.567407002530555 13.944096181847465 8.052140433345157
Ag 11.82169628646579 12.904995726594159 8.133668262973801
Ag 11.91362961647926 10.322796143746357 7.047638667264857
Ag 14.269248743304018 11.144369682195292 8.314861484175378
Ag 12.581429879999861 15.15086091126764 9.635960507962231
Ag 16.74003587198672 14.036928553203385 12.213134398487574
Ag 15.222023494030706 15.495387029809084 10.365695880748763
Ag 11.877622740621176 10.62552994570838 9.866300896978952
Ag 9.90449369400111 14.78606895795097 9.110010586422213
Ag 13.159495604715584 17.26325110659126 11.364975526112252
Ag 17.08413228792664 15.281766456715992 14.753539742640804
Ag 14.749469466395729 12.720226402330512 10.617288314167155
Ag 14.549639513126667 9.911403136330437 10.785393488627363
Ag 16.12072219044627 11.159782853905456 12.646064874116439
Ag 11.094134542235867 13.032698406241 10.864330002402875
Ag 10.699814037347664 15.691772756405648 11.790903554409386
Ag 13.198276000365667 8.458095174470925 8.822966479931972
Ag 12.346290085707944 16.85742110475415 13.977935607112595
Ag 14.927765379093593 13.15217548929491 14.133415841664625
Ag 15.314995693288605 16.49728893045397 12.97545460532111
Ag 10.420984170235245 10.58578512711525 12.28907350946945
Ag 12.292192271497447 8.443270227175528 11.544435193280739
Ag 16.26558807352678 16.372966995879157 17.24592666024657
Ag 13.226566473672035 14.557611937823825 12.456629569345568
Ag 14.29726406453527 15.549928405824978 15.42742655625216
Ag 10.105009298413098 13.270536351248326 13.378313117299346
Ag 16.03904785045495 13.571824554228652 16.75566901751459
Ag 12.948287837227078 11.715609106167834 12.608044398449344
Ag 17.618027104139433 12.49789336689075 14.578721485683042
Ag 13.679610210661812 17.627041958695056 17.166505855725198
Ag 9.784196794547864 15.803962085649463 14.44152097384023
Ag 15.51665211916195 10.848413652729027 15.587959087212207
Ag 14.14761331366827 9.296701074874337 13.602145768227517
Ag 11.60975652763238 15.826563571980664 16.513286969266776
Ag 10.36521887900101 11.042484297546617 15.025125044568629
Ag 11.406900980221474 8.626042414213794 14.155499464067942
Ag 13.70589350631026 12.278900140323122 17.483453240940243
Ag 12.37485959951696 13.271815487427887 15.121865187787082
Ag 14.029718019768291 14.99176179972256 18.213416955765517
Ag 9.826823428359619 13.584527701703445 16.240435866164972
Ag 12.879725100864412 10.08622885016186 15.973004598082923
Ag 11.885067587414614 16.605277679987406 19.137904495410016
Ag 11.495635579899647 13.900497669534618 18.57259804174514
Ag 11.088157213542999 11.3682099373159 17.679904209073346
