41
Energy = -87.87589233 eV
Ag 17.10557649808604 13.163753364890937 12.026717348362796
Ag 15.041634349335405 13.731685297200837 13.835406546766633
Ag 12.887231968436343 14.230893005943082 15.569849839921083
Ag 15.799964826728967 11.023626575785938 13.223903776934423
Ag 10.372696739994632 13.503110677775638 16.746971597927136
Ag 13.659012859869806 11.546295931947165 15.082450158118222
Ag 11.078129344617835 10.832678002292138 16.19333690935976
Ag 14.346417185380144 8.945697648314079 14.3195621678881
Ag 12.012437297965796 8.231906022883054 15.648286058857204
Ag 14.72736236044847 14.347900132892283 11.027682113696663
Ag 15.46132640602102 11.574896813158434 10.434207390859576
Ag 12.606325620292631 14.977859514938014 12.86072974732335
Ag 10.406835055890598 15.409173816356743 14.6391022654801
Ag 7.943433811695641 14.622651092420545 15.707184230201507
Ag 13.232920114808746 12.15673607998863 12.275534794273128
Ag 14.067926697523756 9.376801565511059 11.592052203684803
Ag 11.090244691643843 12.696814267472032 14.094683645324196
Ag 8.582771369486236 11.91459861953168 15.212830078393651
Ag 11.682032488714352 9.990434170124583 13.54632368778513
Ag 12.415813998877404 7.365338933982299 12.900469663608595
Ag 12.153349329537267 7.8783883742137535 10.120330521718854
Ag 11.425021485449875 10.584674739005893 10.754962028258422
Ag 13.564255512697523 10.037163931887987 8.907631050201973
Ag 10.063025239749656 15.951854754573377 11.893026101107582
Ag 10.712791471392215 13.28738252139054 11.31362768296386
Ag 12.857441468559049 12.771898958134214 9.502864270186477
Ag 12.186686332841132 15.501985021752706 10.110066031279707
Ag 14.921375561617504 12.228161540029081 7.74849714915549
Ag 14.246717069581639 14.913834240383496 8.283990483934263
Ag 10.68139142957233 5.827897289131695 11.30811166792671
Ag 8.535041178672554 13.83700961480998 13.109250893077274
Ag 9.88246961798806 8.418577671506021 11.98314656218923
Ag 9.194047418474987 11.083419311911342 12.579078110902726
Ag 10.854901080488155 9.514164167867033 8.14766713747967
Ag 9.417369481167128 14.913313833643356 9.321469366603433
Ag 9.435718075142734 7.425425380838274 9.3651439738699
Ag 8.025534794461212 12.751385358330824 10.544574717040202
Ag 10.01252826763357 12.233841946537154 8.609315860077613
Ag 12.223482227236357 11.689993212766915 6.9634331850901265
Ag 11.499263152014242 14.405117005060328 7.521949113048192
Ag 8.68801744788943 10.061094133873429 9.973867339580755
