43
Energy = -92.33951879 eV
Ag 12.724644923221458 13.850604906419441 6.67410220739212
Ag 12.05405492331083 11.229111117696062 6.35552584751416
Ag 10.198264870307554 12.94756702133556 7.671672986955034
Ag 11.772947680900964 15.063419809879862 9.126440158179923
Ag 9.162194702783557 14.23396806923994 9.980147649578187
Ag 14.59664996851045 14.316174338872447 8.641888474870388
Ag 9.924133600358282 10.055120879019594 7.6568614736263
Ag 11.401714030866364 16.161590143262337 11.743921249770922
Ag 9.030003837048499 15.015941697021638 12.662417431997358
Ag 12.518263094656003 12.3258479424355 9.126234126218144
Ag 13.919908951383233 16.24092026720428 10.565495622171964
Ag 12.680028394369641 9.480529102880434 8.419055352011956
Ag 9.67681406024327 11.470332514856587 10.048144994188927
Ag 16.464141206236764 12.495884505863627 9.71071304347526
Ag 10.526456748625694 8.618384986357986 10.064834789468351
Ag 7.890172891782844 9.461873468565535 9.491568838568993
Ag 8.116631985463176 12.445567183776687 12.1171553178243
Ag 11.310228287808744 13.346744661400031 11.527098566017022
Ag 14.34950409148857 13.427321127669424 11.268074380395724
Ag 11.282949077576987 14.494915321310117 14.209666503180562
Ag 14.654399146485536 11.654945018743915 7.52798782321956
Ag 14.702628774977367 10.451038093329478 10.1799375105565
Ag 13.187279089950671 8.132297357223367 10.834079579681777
Ag 8.765009367076296 13.324810540999946 14.863438141961376
Ag 12.137074914604163 10.693499672752132 11.344039578129227
Ag 8.90071390280132 9.597176037461699 12.138827236260715
Ag 7.683059755826087 10.767062733899245 14.339833510244784
Ag 13.704763178382082 15.388866374851853 13.197984444987457
Ag 10.443203072889183 11.434594257990545 13.546756894822495
Ag 11.449401922737739 8.637146394858018 13.056345152140306
Ag 13.665602308465623 13.98016041819463 15.730046974316092
Ag 16.143438161639637 11.517187246051517 12.340821101481184
Ag 13.147575427674576 12.31352170549363 13.537643251475464
Ag 14.212897113292469 9.573440667686238 13.009938296341122
Ag 11.299606390640006 12.473663623859647 16.127072026187147
Ag 8.889259968789593 11.343205503606196 16.8941086575322
Ag 9.909390162440486 9.293336175687498 15.302928782900358
Ag 12.670148390115665 10.031103615471725 15.302087338906222
Ag 15.80049797814203 13.72892948210916 13.950816312095194
Ag 16.065808924919388 13.221338577027936 16.849414277350068
Ag 15.279898441046726 11.212187379590924 15.082958337407403
Ag 11.313333480855963 10.24651715093273 17.761949354993497
Ag 13.72486956790327 11.67821346496649 17.418553925855587
