42
Energy = -90.50308632 eV
Ag 12.591294942845538 15.527557446707029 11.112089215549464
Ag 14.585852591478695 13.83105466087294 9.802014635806016
Ag 14.925053500258258 14.592289008014633 12.47332802448702
Ag 10.151925740589768 15.040399628325575 9.748367367907166
Ag 12.59571805727011 14.86188964074277 13.97407132980661
Ag 12.620120908515942 15.21953696856771 8.327214571777898
Ag 10.276362975078788 14.4877656666406 12.482758669283074
Ag 10.158859888023985 14.703454531313813 15.406906859933704
Ag 15.725373687298971 11.993377232933224 12.024831193405205
Ag 12.735885136649033 12.73894592658305 11.737426849878167
Ag 15.211491059822626 11.14207078822226 9.341522958767008
Ag 10.846416500743493 13.177723412226356 7.76350989489707
Ag 9.976944814816255 12.311900117204697 10.554603426869615
Ag 12.310472035559453 13.223370951551212 16.588331626213524
Ag 7.779553837690683 13.762614102437649 11.356817074849952
Ag 13.633626819471617 12.627166256417803 7.489888723476166
Ag 8.446486057325247 12.945222868763022 13.978151282577391
Ag 14.202351804946597 12.546265759773434 14.362301300197077
Ag 11.247186735866082 12.391109814622826 14.169508677505219
Ag 8.163401413079155 13.339109279550092 8.535768135617207
Ag 12.24377166175987 11.042193773584593 9.406015809383858
Ag 11.537347252751937 10.821125033387766 6.4941734283285175
Ag 13.929890342117737 9.795481049404172 7.239100014067863
Ag 7.361432677914196 11.163991726592688 10.149806774842581
Ag 13.768758140693478 10.071923373273705 11.604555554657189
Ag 12.767033623675356 10.586936580288615 15.730514281661103
Ag 9.636668225929597 12.16972178268431 16.51200069278731
Ag 16.408543843530822 9.36204362202716 11.2141010664252
Ag 9.304161083766054 10.77546711290669 8.089369162206387
Ag 7.375617386133686 10.762037905369677 15.252244087414978
Ag 11.115847767960801 10.428174272540414 12.20326149408909
Ag 14.294298247128124 8.25353511368073 9.503748199862356
Ag 6.114848018080509 11.954022290199381 12.7483174871184
Ag 11.48300116014963 8.59988809343759 8.301257783073257
Ag 15.048637748585458 9.858095594157907 14.032674691718439
Ag 11.963104087010263 7.840934307618778 10.990611596410849
Ag 12.495060240289265 8.58138787577663 13.812813354993745
Ag 9.478533318512259 9.133341535195346 10.279860211514443
Ag 14.577617991406873 7.469007864969693 12.25542888631047
Ag 10.099048896707973 9.91231984852273 14.878257670504684
Ag 8.363777065949039 10.39853607366562 12.627508309767526
Ag 9.858719971414406 7.967108368042731 12.855064882855771
