43
Energy = -91.90105347 eV
Ag 13.71518466445256 12.463112458892606 7.3991157496956905
Ag 15.28069262643608 11.950699648675268 9.548858925426861
Ag 16.297101869902516 10.677858643441215 11.75391462726226
Ag 13.85277413767177 14.326708949742471 9.57240511538212
Ag 15.922034926525928 9.423274635851483 8.933250813364136
Ag 11.800981998257823 14.427596413750965 7.706582927904545
Ag 14.904384808041758 8.270683824942656 11.176435603557254
Ag 11.10871069584925 11.613262831377162 7.198821938844728
Ag 14.757399073415824 13.21033764305157 11.964980911506466
Ag 13.105688424202144 10.078403618112327 8.774822393697354
Ag 12.956217193285113 15.465108981145116 11.977077570418059
Ag 13.240723766072282 8.310486847725555 13.398522389764816
Ag 10.25142214056504 12.716643119642473 9.58672090537571
Ag 12.265372004889482 16.60084695245698 9.510857886873147
Ag 13.435369755196405 10.636244519519778 11.594174618429037
Ag 11.797960044566285 12.90672308934281 11.924717857709528
Ag 9.681484341532736 15.628722934481619 9.172711978539807
Ag 12.115045987618254 8.162951302014484 10.707945054626396
Ag 14.827692428390414 11.424292794480472 14.097048150836331
Ag 15.868884405558196 8.844177835729369 13.986434586056966
Ag 13.289769843002611 13.794133930751574 14.21606759315306
Ag 10.449721943469088 16.657622357999124 11.678483923170067
Ag 9.197801377576774 13.722945558670657 7.074216146063147
Ag 10.508624753906615 8.277791880935983 13.120898320629404
Ag 10.319918069777739 9.426592314944635 8.72179944630128
Ag 7.475349570207182 13.93473045678636 9.209633581452943
Ag 12.078619258989708 14.82874752151461 16.455918102885978
Ag 10.682710556498707 14.744521292333822 13.835188457663511
Ag 8.97960871998027 14.306522261715592 11.623185457771388
Ag 10.552269717615832 10.484544440638004 11.322668424794157
Ag 11.945609843158882 10.8554076685141 14.087277203859031
Ag 13.32077329292275 12.245845867525825 16.463152666408615
Ag 13.923352464498361 9.526239208739735 15.926121996750075
Ag 8.261759946692127 11.29069140196917 8.100609032257456
Ag 9.332447476204756 7.7455214620483925 10.684373986034213
Ag 7.849308457159916 11.80130497348384 10.942198835338266
Ag 11.511544760512175 8.049777448276897 15.647580729648771
Ag 9.316619399881358 12.15319109796706 13.335360493068853
Ag 7.299447121746703 9.341621855821606 9.82581131463091
Ag 10.524054150869583 12.660179904205155 15.795534573139417
Ag 11.401442402143582 10.357089358837115 17.15588215335185
Ag 8.075725118221362 9.55510179765855 12.59281576700748
Ag 9.439893481850108 10.023235913601495 15.121318808664162
