40
Energy = -85.77525832 eV
Ag 15.657981525144908 9.785094349345622 8.43111630898716
Ag 16.455398885220568 8.357966528566612 10.735930437599288
Ag 12.900818706621271 10.308678899001764 7.841594966018689
Ag 12.503953194694326 12.87476809388147 6.707946697520838
Ag 14.551471171739394 12.416614045081975 8.666681658187908
Ag 15.42819811556417 11.013959626871513 10.95916145491844
Ag 13.684430838338699 8.759484095377774 10.134349178195963
Ag 10.980125577785158 9.222537323672032 9.515118245530239
Ag 16.130522091878337 9.551642483023834 13.253738831887997
Ag 10.526414652284062 11.848706670371133 8.418781767365507
Ag 12.385795398613038 14.139295232036565 9.207989942347236
Ag 14.380891159472352 7.478760498842529 12.523455602704974
Ag 12.549088904997264 11.424744140723735 10.524804712971044
Ag 11.660961113399505 7.9001558824941425 12.01113997549143
Ag 14.400167183355364 13.639149203705035 11.159071812216816
Ag 8.970816679346989 8.040104514727195 10.91143848929612
Ag 8.635108123198593 10.699440483328758 10.09463996080303
Ag 10.229378114566861 14.42340947908593 7.383228844772179
Ag 15.226562898870693 12.202934492769243 13.536955314979748
Ag 13.368703619509962 10.020851773143873 12.952846935011973
Ag 10.433702303818599 10.419372075704597 12.409776533012806
Ag 7.4317651567837055 9.797259537467554 12.522647545722915
Ag 10.062595972428802 15.512006165904198 9.974790461011711
Ag 6.625336363192073 12.20929286897353 11.245122563685321
Ag 12.323350882617765 12.638522981145357 13.12179338467557
Ag 14.22612263721911 14.812149944425398 13.666393333978666
Ag 10.251989620464323 12.960924819982996 11.17683277933327
Ag 8.221581165936525 13.396111402129781 9.158430331062252
Ag 9.313948732636737 7.9152977387585555 13.627475578471598
Ag 12.137825353089543 15.204169926579869 11.830067563198417
Ag 11.413347632597544 9.334801946786467 14.84537427472919
Ag 13.281632736762 11.348365785679878 15.526118926472543
Ag 8.07195485601298 14.621258772097711 11.842043749109186
Ag 15.007684063887016 13.49799207377013 16.028523852018917
Ag 8.397368414082598 12.287835706458942 13.439711033543984
Ag 10.513228127222433 12.012578102611027 15.302778809781868
Ag 12.306876609925242 14.093370197740992 15.60681611255923
Ag 5.896981829701514 14.645983884441536 10.161172750059924
Ag 10.187901019473898 14.43111625105344 13.75432054898484
Ag 8.581661608996328 10.063122680002529 15.118719058703915
