47
Energy = -101.52803128 eV
Ag 16.50303608160088 11.056094825403 12.605887234965154
Ag 15.943865606962405 13.569748270751784 11.310464095272607
Ag 15.83698302273263 11.140281590399221 9.777476995716949
Ag 15.412649082281103 15.666671596268046 13.1181445147971
Ag 15.53067143123463 14.851785846183581 15.84992190988097
Ag 14.93042089829693 12.949943311303835 13.93195415931163
Ag 15.07862749979016 8.912823758910852 11.586492582102128
Ag 14.091550127067395 10.064623488726864 14.09208993620388
Ag 12.032102618108546 10.636879260132071 16.15821301935887
Ag 14.573808355630968 15.979981337572502 10.271287819167986
Ag 13.865478029937242 11.583387161333576 11.632475730005567
Ag 13.886839388137156 13.310053026104919 9.305770532496998
Ag 12.641122085372386 7.820361721710115 15.80348790308792
Ag 13.097735728009518 17.11407383805813 12.389458231257152
Ag 13.049319526713713 15.287004996347346 14.647089589605358
Ag 13.201500356517922 7.280578685092343 13.106597772815478
Ag 13.235913151774033 10.549518398002533 8.82616700801394
Ag 13.4729930337324 6.837588027157068 10.413583775707203
Ag 13.132811359551207 14.345325791307703 11.963805995685519
Ag 13.369263458741736 13.028321751629882 16.22768861442582
Ag 12.049190747900175 12.18198460833214 13.667022141337245
Ag 12.358938515273794 9.287934148000708 11.19770650543566
Ag 11.846041184554899 15.27734028949473 9.308161536742952
Ag 10.509359424756838 6.681439068478188 14.121787156561787
Ag 11.391155341156088 9.262879261461793 13.846609641823784
Ag 11.535618532760827 7.9153873101638625 8.76899909332439
Ag 11.523219377047479 12.622534760856654 7.847581985097674
Ag 9.698816728521026 16.87175909430023 8.468685702657641
Ag 10.443966334102631 10.391845890136334 9.427797871818893
Ag 11.121484307913407 9.977032721587355 6.822473561892641
Ag 10.853473383537207 17.49684848309845 10.875088377514677
Ag 10.680793530461067 13.86647955412909 15.371665631023912
Ag 11.276651390903277 12.801140332085719 10.678951370800801
Ag 9.889379081766888 8.679153361665104 16.115090930246176
Ag 10.742816204634364 15.752633999532327 13.10662579665142
Ag 9.985135626733841 10.761419812182906 12.091165553414234
Ag 10.073523230511638 7.780298406232552 11.362294804768945
Ag 9.495258382787087 11.258239393506479 14.858473922881783
Ag 8.88291144820303 8.596636132848838 8.005616516715211
Ag 9.275507436151885 14.16589512742264 8.231076461695725
Ag 8.701876306341607 11.447234044499279 7.634954606634939
Ag 8.554395107549702 8.75200834142327 13.564679271275205
Ag 9.247767845310111 15.217047036999926 10.793379352435183
Ag 9.265715072553508 13.409391501515747 12.925152897187775
Ag 7.9557514343435525 9.59016855190214 10.497701598643339
Ag 8.431527736950025 12.478724682338628 10.341314474903436
Ag 7.345346224108221 11.22411213066812 12.746276911468598
