47
Energy = -101.40009297 eV
Ag 10.9682888104793 12.60293818360077 6.818696662538307
Ag 13.874371287190744 12.656238067642226 7.195123965819177
Ag 12.888292435884718 10.26548704339893 6.12951227865343
Ag 14.084861583535897 15.26217723832805 10.292715094499705
Ag 10.222166980667708 9.946314541999849 7.19451440177535
Ag 8.245033559575152 12.073565279599904 7.375815090118708
Ag 15.036873061507283 10.254886515457866 8.200762737725547
Ag 9.322249360692291 14.527556555561167 8.612708939223099
Ag 12.054206104530888 13.994498022981045 8.922495987694857
Ag 11.266520590197993 15.825255764088473 10.890637540708177
Ag 14.283923529326106 12.491084553437528 9.938602087747372
Ag 9.938194661284237 12.038558715686186 9.662475670029613
Ag 12.294463106295046 10.921732319096325 8.824755983767739
Ag 13.497419073645672 15.075412658143923 12.980984096992598
Ag 10.70287514597042 8.66797378100851 9.66116027351848
Ag 15.742004331237311 13.601868150059941 11.990852640352758
Ag 13.055771236250019 8.256619218909279 8.030890520716982
Ag 8.138079243414838 9.910969282167828 9.153374849576924
Ag 9.018095276858404 14.13941597589089 11.523784707695441
Ag 7.167590798208061 12.76576214855913 9.881525670612534
Ag 11.744344623569667 13.211976168148315 11.709331623081027
Ag 13.325421085995686 9.257026518277405 10.897271805553903
Ag 16.007862153675067 10.496352777890293 10.847869944439363
Ag 15.397811594434037 7.901265504225095 9.79089704105595
Ag 9.944386719481471 6.089403185152035 10.35601174888917
Ag 16.43200493671112 11.319159750980134 13.600935410368535
Ag 10.780169012713577 15.176301811396291 13.649059238796172
Ag 15.1131211075663 13.561712369813167 14.704115703346673
Ag 13.84078920680983 11.547400320485748 12.613848606090361
Ag 8.148283054271825 14.954198851719473 14.188339788793703
Ag 8.526608222311728 8.245769881386218 11.557828139869034
Ag 6.7030583568009625 13.033362714265364 12.732455089948266
Ag 8.25834500220934 10.966386252430036 11.730028541860332
Ag 12.762919190519277 6.57039131610323 10.17104231614717
Ag 11.06705585387548 10.591243044545449 11.818149736057276
Ag 12.33210122707666 13.10009473147279 14.665672942518258
Ag 11.1893973944492 7.654389885883533 12.255691522653462
Ag 15.175274631750781 8.848238263616041 12.92327908292326
Ag 9.656552386237234 12.337716266682628 13.727161378918588
Ag 14.196456284846857 10.989061506917485 15.378201430207877
Ag 7.047596237677062 12.91615792942801 15.594302880849302
Ag 12.53994727942427 9.34091560831542 13.91144488474404
Ag 9.843999904184837 13.561892505329217 16.136376435417716
Ag 7.039110887494865 10.490070468365007 14.117918787727852
Ag 9.63072122681741 9.400006289329692 14.010950699961905
Ag 11.369560471734179 10.876970710219986 15.90632513817741
Ag 8.704427373149093 10.875420211468454 16.327834741369173
