44
Energy = -94.99354006 eV
Ag 13.550312001916573 11.604665273905828 17.071322851076843
Ag 10.743850570706764 11.911067047642353 16.802135411623926
Ag 12.081626731305358 9.58016094529054 15.699832623797244
Ag 12.552649181764385 14.128278975169131 16.47005003414912
Ag 8.106156356709441 12.582237619425456 15.939059348249211
Ag 10.281112631566675 13.876308486180093 14.786665382117501
Ag 14.799729529897597 10.366565964584735 14.959281607581682
Ag 14.854923375748193 13.249590536684332 15.081026187073423
Ag 9.766558645456909 10.862670293693899 14.38508620998857
Ag 12.406319672759308 12.093024086426782 14.381971193636783
Ag 7.7906055943217165 14.388035426399934 13.686927173293586
Ag 13.743791785779095 7.859201229503245 14.289270460030737
Ag 12.813265473800968 14.948459708127029 13.777277645169436
Ag 11.0171131866083 8.342087152731468 13.3818550315124
Ag 7.1587296153358775 11.651734877953896 13.480020225604104
Ag 16.64234318432699 11.886009928115266 13.426142771134623
Ag 10.291534957956708 15.408814913253742 12.45528937787744
Ag 8.731797031403591 9.819470129790089 11.916295257361712
Ag 15.903416672322232 9.18084608630892 12.66344884378826
Ag 11.395059098702838 10.698156407686444 12.041304679850194
Ag 14.151759079243538 11.27861137737524 12.249981797392344
Ag 13.348134181811616 8.534834107559252 11.633722193364443
Ag 7.0674870947156885 11.857611585444719 10.701002809735968
Ag 9.394632102024879 12.695198638686819 12.045959171563217
Ag 12.99833196516359 10.616755177355602 9.643440666533865
Ag 16.39119375576442 11.965565076595695 10.66359014423587
Ag 12.141314281979268 13.243982366489892 11.641019069135943
Ag 15.073269785196201 14.003032286642988 12.291099610921172
Ag 7.804996494356792 14.668244614038157 10.89664336431005
Ag 13.151748811972316 15.662348499410617 10.914264833094073
Ag 10.73727568184918 8.47566319033241 10.416975347081191
Ag 10.463053297144873 14.793303067812525 9.777875274810162
Ag 13.155841851849585 7.873529969188257 8.917440714610802
Ag 8.296277366314737 13.154550291516221 8.557915358127563
Ag 15.502084582768624 14.400783027548558 9.585894310533467
Ag 15.450369001121437 9.459370685394806 9.845779159759482
Ag 8.584393483599086 10.089615141596253 9.089158138599899
Ag 10.639543574461305 11.969860910504396 9.429209133629236
Ag 15.059801479702953 11.867498240237108 8.217399021172206
Ag 12.970296220102739 13.647942998521485 8.872300625731173
Ag 11.040639826479694 9.276532673119373 7.792215469533481
Ag 10.713817058268864 13.87349141515064 7.153799897351659
Ag 9.596002417911567 11.378853299084193 6.761195512245918
Ag 12.461470586495164 11.600065550208907 7.0324853402978595
