40
Energy = -85.51339646 eV
Ag 11.804099907188847 17.697589776737587 10.947349657296213
Ag 9.25291962083153 16.45182354339305 11.10786540239062
Ag 10.653555743402178 17.107253718582026 13.423215043727463
Ag 10.901913676952997 16.001759827282136 8.915175010652744
Ag 7.1215147611057 14.693490005544911 11.448037328444682
Ag 9.43288823167058 13.772580445367526 10.13821226852761
Ag 13.63517789827776 15.741234259370133 9.922908975512394
Ag 9.282042586090842 14.540655511520956 13.235777194842557
Ag 13.4773908422487 16.478405407906415 12.92213607047914
Ag 11.70138120679296 14.777912022838445 11.658442553841422
Ag 11.773968664266967 14.95505262194872 14.658729048541241
Ag 7.990776386454623 12.111794599671962 12.168146563843813
Ag 12.069834905506804 13.545653772035992 8.950162729135076
Ag 10.683157932167273 12.257460005478661 12.19951269089313
Ag 13.015812454302154 12.464250039072768 13.759960071152102
Ag 14.805841554993952 13.30896617192759 9.115237395622113
Ag 14.511748566850617 14.710015002491826 14.837219669067677
Ag 10.558214074665402 11.31017240154992 9.276965655100188
Ag 10.265713004672225 12.753409149176614 15.201016621407375
Ag 14.650293605560108 14.065903617964358 11.963302691107721
Ag 13.168252137051217 11.7652987608486 10.96601376397365
Ag 13.238325740564516 11.021588747429663 8.191824003672801
Ag 16.07858806979307 12.554742389910455 13.919870645246988
Ag 12.814003895725905 13.06852758786078 16.56226013746046
Ag 9.514610694468258 9.74375209777077 11.308519635047114
Ag 16.064654045995216 11.035435727159838 8.187019004743508
Ag 16.225795629032906 11.850078307733932 11.05962459907011
Ag 15.624387221131117 13.16489249140857 16.825192292233545
Ag 12.004113202164454 9.877124114415855 12.855134498247383
Ag 9.389346538031733 10.387276429821062 14.058417008351352
Ag 12.047214929454205 9.091489472324062 9.973766476391173
Ag 14.832214933825739 10.26344962636824 12.899186586766461
Ag 14.83857771482222 9.539072311800222 10.104540766918777
Ag 14.56396290540237 10.921623202878925 15.696709282401162
Ag 11.770480482319806 10.50394859698748 15.760933713167688
Ag 10.910710905240505 7.413591511795342 11.9165004599221
Ag 13.751873636639187 7.797070353278665 11.956520483659625
Ag 13.633299711409766 8.482131219704316 14.759767535876684
Ag 10.80037801469207 8.086286068673703 14.724339852640435
Ag 12.541317238985117 6.052789536434385 13.802603393102718
