47
Energy = -101.76522593 eV
Ag 6.426228508221511 9.36602408578556 14.231196427298324
Ag 7.553169745625308 11.930145535630983 14.025056990323801
Ag 9.095481003637584 9.697605692720892 15.064670680207966
Ag 6.9052258073154436 13.355137589013244 11.66402357082523
Ag 10.208983291906438 12.238561459484115 14.973570937445574
Ag 6.789932879816561 10.541567537308826 11.69254511080764
Ag 9.259773160426654 14.035021158826526 13.097170916986036
Ag 7.1541460017262235 14.662136641129198 9.182754703739826
Ag 8.435925644058791 8.413413716246737 12.63753837809003
Ag 11.857040510703923 10.046457731814302 15.805060008519096
Ag 12.573973536731364 12.854986382361433 16.17432321732956
Ag 7.5505877627057885 11.790190618941919 9.270505606648227
Ag 8.404401939516722 15.990746859690569 11.317646261413687
Ag 9.746849614456421 11.293024547772315 12.245845788073662
Ag 11.957939044568205 14.22168838816774 13.689785496200578
Ag 11.196732010415044 8.767846059184098 13.389791090011318
Ag 14.610732963233898 10.992122222245724 15.737628302305708
Ag 8.895733605760908 9.489195448214485 10.103523069638127
Ag 9.46679040791049 13.565824621451453 10.30785748788591
Ag 11.269058541648844 15.540982015704522 11.27310541159572
Ag 15.042951329593675 13.261310288332567 17.34842023434733
Ag 9.035222274126886 13.487798587343882 7.471787414435484
Ag 12.560994700441048 11.393280577457368 13.500634727477554
Ag 9.781013082132189 15.979840193227984 8.805239236408731
Ag 11.65646500387939 13.945569665365914 8.435919944875534
Ag 10.474071262226085 7.361909535733476 11.057381887102544
Ag 12.032190189707556 12.701715171471518 11.103210737205348
Ag 13.82101491556044 16.05195317278155 12.560562079222375
Ag 14.22677303093641 14.915811486926744 15.220138114346137
Ag 10.470976544882935 11.39094116609245 8.745203024537412
Ag 16.424260626302488 12.980520955254137 14.97442644160585
Ag 14.018225892221114 9.001545354249096 13.906004261417733
Ag 13.158545627047962 7.57689364312184 11.681682726471493
Ag 14.579312285245537 13.338441967742586 12.585938935150924
Ag 13.705784857765524 14.722733938062047 10.044176557535227
Ag 11.69242089431631 9.845952697243298 10.715080758539386
Ag 13.341755084442834 11.680231622098114 8.809846342553481
Ag 14.375150291378365 10.71209887798426 11.345650240559959
Ag 16.432551484286613 15.403896668768471 13.63254635703993
Ag 17.363498049474142 13.065755524626187 12.283939405657163
Ag 16.23097457009851 15.3766859140072 10.914304118101049
Ag 15.80276247565424 12.836372131969886 9.868751990106375
Ag 15.86770617579194 10.452944828763043 8.47550294421401
Ag 16.28762301879047 10.634021218309622 13.475053697320137
Ag 15.831424329226772 8.3759629846208 11.744667915982488
Ag 13.866476893886903 8.78462709686324 9.296384930548182
Ag 17.29409581002049 10.655501927522208 10.86908507313212
