41
Energy = -87.99341459 eV
Ag 14.913217448824627 9.389084791699519 9.79511817015129
Ag 14.871794107629347 10.071109731262032 7.071683260633133
Ag 14.827146683408909 8.757924541865732 12.539677128269552
Ag 15.14485371289407 11.439339006794565 11.672625224502475
Ag 15.246984528043722 12.146843259992075 8.94316592830732
Ag 12.557050559237995 8.851245133581036 8.374787231006007
Ag 14.584730796807591 12.854113984722868 6.347092651445552
Ag 14.923324122178654 7.938541036424025 15.183682948706489
Ag 12.405934825522202 8.567119945807201 11.214976969509992
Ag 15.207537164016141 10.70397822733369 14.492624466783294
Ag 12.695454915565575 11.221674600387257 10.008994800028743
Ag 15.100037447240124 13.391649676058947 13.634707154951895
Ag 15.431247689213865 14.169357245870593 10.932944677760998
Ag 12.39800259810777 11.288478329042933 7.029555243998364
Ag 15.199876496721455 14.938405561315372 8.26063432432225
Ag 12.378670994903553 8.328497350116665 14.069668319643444
Ag 13.25418368616813 9.822973047054672 16.338923223960883
Ag 12.645845227043608 10.938878625089526 13.034602904882107
Ag 10.228439325216844 9.653658335629128 9.825177141820864
Ag 12.848508056631275 13.510534194928434 11.796334603866372
Ag 12.73778082712727 13.703845706478669 8.393831638254666
Ag 13.467141934077373 12.536082889509547 15.70136587726152
Ag 10.137885404583033 9.389351432099465 12.695488889716458
Ag 10.386906572835361 12.032084202412662 11.481191806183396
Ag 10.756708281094658 10.460682458994317 15.235079287266895
Ag 10.324260010448036 12.222678075109958 8.541320932676943
Ag 13.001627035429806 15.07183221712505 14.427349575804442
Ag 13.190989612863863 15.793097917804017 10.172692941102376
Ag 11.545862848888008 11.661787592811201 17.635678806561707
Ag 11.042505912078623 13.112088484649227 14.015971812352403
Ag 7.9569659627509335 10.547066972776854 11.289728079737015
Ag 10.62777705815601 14.556996395631773 10.051106402579626
Ag 8.58761928451617 11.577152717833503 13.823520445288722
Ag 11.605517536434807 14.341392225749868 16.73989102929573
Ag 8.151713402792884 13.120385574445317 10.016760481143871
Ag 9.363891497014873 12.779355991135914 16.30774823234384
Ag 11.34202387025277 15.920296418960513 12.371559757659766
Ag 8.931332193872228 14.461470546780964 12.347653031804278
Ag 6.581093202861825 12.803227080217702 12.319853785589643
Ag 9.961623384393967 15.542519501070037 14.793167791532559
Ag 7.514417412645051 14.082957321120993 14.692689200438043
