47
Energy = -102.08391146 eV
Ag 15.037360405722117 9.869554106057912 10.723882552453926
Ag 12.531251985574807 10.82281805418779 9.452473928556362
Ag 12.679020910027184 10.309697117161656 15.150125281456571
Ag 5.892832463100842 12.466251903332484 9.836871322106903
Ag 14.17682674528226 12.412624195397033 13.882173832104002
Ag 15.076471670340371 9.678006506490071 13.571616731964992
Ag 11.241918626333664 12.84440237618488 11.072712822404375
Ag 11.128904740670531 8.384021123516566 13.643455838797216
Ag 9.92897051722632 14.724677697037794 12.837129477794889
Ag 16.365234169302276 12.022415358855085 9.402617210612162
Ag 7.304542811356208 10.006188529203932 13.908250461020089
Ag 8.648936390100395 8.081421388140765 12.257470923305757
Ag 8.33385684958853 12.946156421636253 11.20342752792182
Ag 11.13731500691688 13.073924937726234 8.074141728232577
Ag 15.50359417172819 14.706228859983687 9.63323850501323
Ag 7.1656967137958345 10.523932203486217 8.198033714499909
Ag 10.92606557748847 8.9074987427991 7.884541043743692
Ag 8.270024798740822 13.164927433917384 8.299797909875673
Ag 12.6124267747288 10.571479298919508 12.315089942943715
Ag 13.964210786357809 12.883546099735469 8.09008292844251
Ag 9.536259930950477 11.12801852481784 6.71098839726237
Ag 9.652234782447946 10.94772949081961 9.52534716722121
Ag 8.433045643589702 12.654084807079142 14.09049203016825
Ag 5.985749162095852 12.154570027403977 12.708401749955199
Ag 13.352549843023526 8.06760233496943 9.188767805653711
Ag 14.107652796876707 12.682438389872376 11.014083148081763
Ag 16.484405868624176 11.783411091088295 12.309664136925253
Ag 12.773492374473406 14.653610482281106 12.832445977972196
Ag 7.129037242929063 10.214114239411305 11.038093127341762
Ag 14.22618186542502 16.549791040886582 11.314068587466673
Ag 7.037786663929781 14.781717758514542 12.857976563978871
Ag 12.674412668116208 14.955301365540262 9.547416045417311
Ag 15.627592397034864 14.474608649678055 12.58819601439333
Ag 11.32477397637438 12.560414049276357 14.063728240247636
Ag 7.040728478880499 15.096679449608533 9.954344688679303
Ag 12.382951075121483 11.013946245375454 6.600876396927285
Ag 9.852301884615363 10.440158356237779 15.255409085401373
Ag 11.426310229083708 16.646178013577597 11.395732833633936
Ag 13.443978119349248 7.853433611860798 12.033946378838785
Ag 13.557801155794987 7.6903296542818005 14.830107774287823
Ag 8.558177795491915 8.367353846473085 9.402796075898049
Ag 14.847660889196781 10.129380242966851 7.890005633893032
Ag 9.859229132276342 15.017852386262128 9.723051302161092
Ag 8.768503786686358 7.883473624786216 15.056367853423776
Ag 9.743049210449856 10.70601348565882 12.398634964395255
Ag 11.034982372404464 8.640886780383106 10.762237617722116
Ag 13.231581922651214 8.36384617800358 6.403876427846723
