41
Energy = -87.68576931 eV
Ag 11.483944551500755 10.35199495408772 16.118354840270936
Ag 11.647241715718483 15.275812059403924 15.974973860141123
Ag 12.91550603190365 17.52689770762794 14.740417932559408
Ag 12.711226282233143 12.679218100506546 15.232044104860526
Ag 10.512846412697654 12.883994630557906 16.974721273341146
Ag 13.861650455178415 15.011320344753894 14.073388851378105
Ag 14.774550140771147 12.444790788199192 13.272560661722762
Ag 13.605923947596683 10.02941134769328 14.341177809913129
Ag 15.463236039873722 9.870353877631485 12.247083113526992
Ag 11.2235608695939 8.242817635616195 14.316911025467727
Ag 11.127066350063282 15.993124735663171 13.308028155094354
Ag 11.060754100451318 10.868229014519091 13.219839407183262
Ag 9.939169990702974 13.575047474885103 14.375803308531689
Ag 8.997959393157563 10.984960696875365 15.128166635294221
Ag 14.357412612020306 14.184198475126388 11.055529047205262
Ag 12.105481432469224 13.48425919222998 12.531047432790764
Ag 13.421096874290784 16.716235554923696 11.93613428482332
Ag 15.442209264416308 11.73700315114865 9.945767599011432
Ag 13.181001648271485 11.155001596917797 11.329731139983327
Ag 13.112545577645344 8.193498731348699 12.22318666641833
Ag 14.403949313765416 8.97741978749696 9.833997689231998
Ag 11.148540368487739 9.426080495310178 10.581677832136682
Ag 13.12020020086468 12.972005313617487 8.869636131302302
Ag 10.550049863416985 7.00441865901944 11.817959468479398
Ag 12.347776254865929 7.02861480475398 9.597547891260316
Ag 14.200602819632927 10.62838703087301 7.634828595645232
Ag 8.856495977210708 9.069554501598207 13.034635395275105
Ag 11.769642036678436 15.152351510886024 10.21858978678693
Ag 10.656235773943733 12.123044244099583 10.584865177825016
Ag 7.90333572659492 7.291423958583473 11.082981672598867
Ag 8.401419751349204 11.911625230128815 12.528393260739296
Ag 14.102105467590693 7.64267271539107 7.448175386849027
Ag 11.860518221460325 11.753531965714872 6.7010845737740645
Ag 9.63216262403519 7.8515069980692465 8.975423776561318
Ag 9.373355652311703 14.458600642219565 11.787064842235118
Ag 11.812853606406435 9.098723636564808 7.697311100294867
Ag 8.269698402062877 10.051652389684593 10.453892791297507
Ag 10.444501049696388 13.64156916796676 8.181465647957422
Ag 9.689247668960274 10.843305220484398 8.213926354999293
Ag 8.157731994954574 12.879724942683744 9.752840283561246
Ag 9.117652286058975 15.74807546604122 9.421293942574328
