44
Energy = -94.69578035 eV
Ag 6.532109996571672 12.15919888713846 13.361681782834108
Ag 6.401442196598432 12.117626045916415 10.567272522282384
Ag 8.680112752514635 10.814568364810704 14.703788288850877
Ag 8.575881172955588 13.663679702338769 14.560680511571507
Ag 8.507608050541739 10.784913382584195 11.881978427693623
Ag 9.338718699493809 12.370545942674438 16.952184443883084
Ag 8.28446569832539 13.815363428715692 11.800466538558542
Ag 8.290814693801819 10.71908302809861 9.062295037107093
Ag 8.234259433346052 13.63044435003228 8.989254201111242
Ag 10.777192020318537 9.52595988163602 13.235754980877303
Ag 10.680220976929926 12.38034211293387 13.07346454694767
Ag 10.419791301481196 15.268302765751322 13.09020563917411
Ag 10.55405497563112 9.474573212707533 10.414191842081987
Ag 11.360578246956507 10.998616208561483 15.61281358226376
Ag 11.19867853933705 13.977406382336191 15.453379918269825
Ag 10.23047743213269 15.236870324132239 10.268231211501137
Ag 10.402234471133532 12.334747524173187 10.245744622664493
Ag 12.851126512756966 8.266082925540463 11.714110872515654
Ag 10.25373053080526 9.320944448455363 7.625231194269744
Ag 11.973146209318317 12.629597417148634 17.861649965024284
Ag 10.128860701257624 12.15759577845614 7.413978716647824
Ag 12.793234655236793 11.105805253805416 11.510273404871999
Ag 13.695550462249916 14.387909470843026 16.495977780424035
Ag 12.241553271271226 16.763376770419747 11.57314024115397
Ag 12.432552511649224 8.082087942874107 8.887563678763986
Ag 12.143281223735341 13.836863312460757 8.548974803345992
Ag 15.993089397749147 11.353066794289264 11.455313287817807
Ag 13.413702869304725 9.740688103974682 14.150504424938035
Ag 14.085903607202265 11.601151344213198 16.330849860932826
Ag 13.242233515724388 15.44353087359727 13.89810831457588
Ag 15.462995334245848 8.786646273119262 12.565179420535104
Ag 14.153983092357114 15.442666944435418 9.747744363408001
Ag 13.424330989496108 12.602597564276753 13.830556349601274
Ag 12.505942426595535 13.944414245588236 11.451556184722895
Ag 12.404244638144977 10.930626325384997 8.505262622558208
Ag 14.97000109448269 16.76547959309558 12.121248613868168
Ag 15.724943705863904 13.927738200670035 14.68009090774676
Ag 18.038575324220172 10.032060942786172 12.842897733479615
Ag 14.546172149814087 9.663834214866528 9.776777154434672
Ag 15.932944509474773 11.053163898657974 14.354287169886556
Ag 17.14250075102723 8.96664922818062 10.390423978759195
Ag 15.386881113182918 14.037945352997598 11.892924941358151
Ag 14.40808085545214 12.596512629162904 9.585808722490343
Ag 17.71685521340145 12.83874892138561 13.068880653880965
