44
Energy = -94.48127755 eV
Ag 6.8351459659848635 12.22183346238884 14.574536795888758
Ag 7.446250314914956 9.656104296055531 13.397822043766428
Ag 6.912186442129776 11.782712817429822 11.729810090130947
Ag 8.756739477385253 13.839970057797409 15.909476685988105
Ag 6.29712438372177 9.299787982060971 10.690137386245182
Ag 8.851618953972158 13.433593334623273 13.04946733106187
Ag 10.172810835170463 8.713627929205186 13.688648713046268
Ag 9.428103116957729 11.238060927935713 14.808122586804101
Ag 11.430837062008129 12.983391389051258 15.839193593732864
Ag 8.734573266313378 13.293162870847292 10.25470677101665
Ag 12.111365716086105 10.273151984573795 15.06558782347305
Ag 10.23339441253429 15.551744084776683 14.162450597468533
Ag 8.75498356803283 8.224992539056842 11.227915413600487
Ag 9.607507143795514 10.846114178780445 11.923928859210154
Ag 8.582363905568737 10.521602265050898 9.395402848537364
Ag 9.044332454291418 15.817410172332954 11.548613756821885
Ag 10.979741023941845 15.513785935155502 16.77367930920189
Ag 10.879759229932729 8.847788329031191 9.561011578277817
Ag 11.610002151151553 12.32896566140164 13.175720004387218
Ag 11.310587437634853 7.05696123198605 11.692775842649214
Ag 12.435127048174007 9.737847689204338 11.973213715977803
Ag 11.33353261771913 12.325080718988211 10.241508256273441
Ag 12.937168548668811 14.958742097197527 14.508686727038944
Ag 12.748874749392696 7.693424651749573 13.981153753177718
Ag 15.244649906001335 9.587771374840925 11.234628666289248
Ag 10.903996923068576 10.879009444258509 7.699455007855051
Ag 11.614458967989991 14.765117550029217 11.88974001416216
Ag 10.693310467159202 14.98647168730257 9.264087801586882
Ag 14.032231672249997 12.327559783967478 14.731516272595195
Ag 13.86597280594696 12.316232304347883 11.500962007542244
Ag 14.660412566795774 9.740591607283244 13.952563839584137
Ag 13.241125766357587 10.532620556945613 9.356264470347375
Ag 12.322094026465686 13.289662911967877 7.655180809700409
Ag 12.798464935674549 8.570702824444334 7.413111257145408
Ag 13.478599878664903 7.787705214080709 10.04432236237098
Ag 15.603036341348314 14.352745207681624 13.712964201301562
Ag 13.471135066806553 14.693558340704564 9.75265331585559
Ag 14.128435362229796 15.976364748636223 12.122479195799704
Ag 13.668223301219038 11.090108293394222 6.624994295510801
Ag 16.263431550622286 11.766859106287672 12.855432046816894
Ag 16.847198444270862 11.493382293784471 10.09859766442892
Ag 15.58489957291411 9.718810843703098 8.254017243071123
Ag 14.987454850294613 12.704462958748696 8.511628011669261
Ag 15.978684908571683 14.040199302903684 10.942185944447541
