47
Energy = -101.4662936 eV
Ag 12.97984552368068 15.995143744269924 11.044543089392267
Ag 10.428715496919107 16.844167301975336 12.338456451256528
Ag 8.099689644990242 16.630309164333166 10.873304319817784
Ag 12.820691222750554 16.764102887100155 13.707154399116977
Ag 15.272789565796717 15.414196701201027 13.013314832654249
Ag 10.606128168397301 16.377188688111616 9.515789777972891
Ag 15.491459295287155 15.05790794605226 10.182983101764579
Ag 8.396941225883173 14.83215676484183 13.020851429427134
Ag 13.234772002504155 14.79993799308288 8.536584759058517
Ag 12.945892938206768 13.860794980699664 12.975741626364782
Ag 10.653235301233183 14.270223464187124 7.679113850431772
Ag 13.42018073625514 14.86624074365322 15.580557410332586
Ag 15.161009237360613 12.646442412299972 8.820825340123125
Ag 8.432853043207718 14.329840481907937 9.35018188495514
Ag 12.818775360412902 12.626604003306202 10.461777598687611
Ag 10.63365277009626 14.24195188203166 11.258609000955374
Ag 6.328262064420647 14.418429387856804 11.15849748795801
Ag 14.796077673956415 12.278638781560199 6.085766157487104
Ag 8.819909228740642 13.080185867858477 15.21515797994246
Ag 15.42694712036754 12.791576177560554 11.76169715321707
Ag 10.747077193601267 15.02238319521667 14.525326634398148
Ag 10.196510676207787 12.081038466282301 9.327296590221051
Ag 12.521735128249802 12.18896813801596 7.620623052095397
Ag 14.425177841393385 10.085793384810435 7.738792337526675
Ag 15.413478643465778 13.046732793722967 14.614074061271028
Ag 11.263891337960358 13.259296748675416 16.7066515361704
Ag 10.585919674953807 12.27194774385319 13.20500991251884
Ag 12.113178502911381 10.014101447014276 9.436560639291214
Ag 14.209018222726655 12.899862278405882 17.28044243054616
Ag 14.817011140302824 10.361480435979848 10.535812876059392
Ag 12.910466789195967 11.838767859669684 14.919973188691909
Ag 15.222023307075162 10.476100515119297 13.412359730113346
Ag 9.937636789902259 10.11387663339276 11.273674405661934
Ag 8.284424068952834 12.429328523358366 11.462553769258772
Ag 12.59725098126124 10.42835835166418 12.402337631926475
Ag 8.354527597604767 10.631424561296713 13.679388409774974
Ag 15.0294056153427 10.389962445960299 16.213860302873876
Ag 10.368311650274658 10.732389527848847 15.654789638249918
Ag 13.94294535839091 7.868194583567268 9.384634732694881
Ag 12.44114107016569 10.780131308812958 17.563176906768255
Ag 10.508864256819898 8.734557541531572 13.628691097236223
Ag 11.697719757371866 7.859755460228466 11.22604120017268
Ag 15.132313557472735 7.933407234762606 14.801458868698242
Ag 14.50346554180095 8.08509119472373 12.112365314213951
Ag 12.679685886769516 9.044461421969755 15.297258671895074
Ag 12.60055308534018 6.78837069243932 13.67485474364558
Ag 13.462514094669613 5.709918460367083 11.145274746530417
