40
Energy = -85.13714898 eV
Ag 13.163426772872358 8.384800460300726 17.044797504920613
Ag 14.178177571340258 9.45191709195607 14.593764165957088
Ag 13.009805635432949 11.071576028403001 16.46686428215782
Ag 11.647255491929997 8.177302934066324 14.594450761269227
Ag 15.645597649090995 9.783373885902693 12.285566671528901
Ag 10.647930625278603 9.611510787297664 16.746858599419102
Ag 17.04763770869856 10.187356460177286 9.826233159448671
Ag 14.430698623156417 12.254123527933002 13.559438451466537
Ag 13.147421035032355 8.391616914142595 12.20900162739628
Ag 12.96622948257549 13.60662009864305 15.55493312584226
Ag 16.586698318594493 12.288808491691249 11.694693123086395
Ag 11.870269356611352 10.908250514444447 13.623348468340762
Ag 14.690905432500317 8.771753572225332 9.824926996556771
Ag 13.647816090577983 15.199891766248324 13.415887013011055
Ag 10.460681746980411 12.263533148240182 15.83727038981859
Ag 12.562097841102469 16.385486675761825 15.690709304076293
Ag 10.349005264588882 8.746893610531556 12.153505707536748
Ag 13.423289305109563 11.066054353131463 11.0688504916244
Ag 9.266290775881323 10.028071484977886 14.387690030972546
Ag 15.338744408918757 12.228522481756817 9.132085082434674
Ag 12.642263844865157 13.11204414645138 9.235541859555038
Ag 10.624493922260406 14.765994080333742 14.576613424895095
Ag 11.925572159821527 13.322492791836876 12.173027601624955
Ag 14.507782874933651 13.996958252635704 11.12999159201412
Ag 11.505065977992839 16.998114539636912 13.10637690623736
Ag 8.025954866496853 10.612025873762892 11.83479070660462
Ag 13.458349425147329 10.57606272460498 8.023632739929964
Ag 9.347923821558828 12.645233400754924 13.276958525187887
Ag 10.542381857348687 11.337018394843932 10.857307879756418
Ag 12.166243871246248 15.619313297839778 10.68103057081572
Ag 11.887455632694241 8.925307564813862 9.731288804132571
Ag 9.11657085063997 9.20068270289259 9.641403930584735
Ag 9.666669925751112 15.22403813010251 11.983763399384591
Ag 12.213108460194839 12.67418026958864 6.54954254974219
Ag 8.154779479782409 11.69365268185059 8.92848766419351
Ag 10.056837957393059 13.971096767674371 9.510588965359924
Ag 10.68130081456587 10.942515993179024 8.032284397847917
Ag 7.772129613583505 13.382167833089566 11.098064715181172
Ag 9.508586152460705 13.252601875881265 6.854891990387093
Ag 7.527797906323875 14.3660009902814 8.4330175632102
