43
Energy = -92.35525326 eV
Ag 13.80535021391066 14.474307076687893 15.57483771397116
Ag 13.644930388631268 12.880339996526507 13.202584105122066
Ag 14.113900174369752 15.745563216156404 13.093811476487968
Ag 15.105451205700755 10.453895898972792 13.703114898786719
Ag 14.533269758305845 14.222353829815663 10.724865454144991
Ag 13.587651122549836 11.668562141190003 15.780351986919559
Ag 15.519748169673818 7.693234422984113 14.081108982595373
Ag 15.062559648261622 11.481289862397771 11.092462843308276
Ag 13.339144639780177 8.922978792787484 15.29315886692554
Ag 12.169658595346492 17.674032748824313 12.567888317721154
Ag 11.568156905822313 15.853137903164825 14.548726105716291
Ag 14.927751662905372 8.630707802062458 11.481584533857387
Ag 14.268892201156799 12.525600431888112 8.473812702854183
Ag 11.303152457587421 13.259616506458864 15.335151196532154
Ag 12.648592927524037 10.03593142033102 12.291306065636944
Ag 14.408252921358615 15.373095604030071 8.065156986101698
Ag 12.369092359322162 12.395452782956767 10.650212397261436
Ag 13.413417595655998 10.003425677431913 9.379992350892875
Ag 12.94876876222901 7.233292195483467 13.086385377990185
Ag 13.484937100103142 16.735588938881115 10.337710539629596
Ag 11.031871583872324 10.506610776134105 15.374388383875885
Ag 12.617548904461044 13.673272231254595 6.589065854219761
Ag 12.491764449673614 10.889736742037641 6.864246199015754
Ag 10.773694119256366 7.795587838971247 14.85056035122489
Ag 12.49610308578197 7.543940356137837 10.356241087507872
Ag 11.704225390563423 14.921188379925743 11.906209082774616
Ag 10.701612859491997 11.95096439143614 12.876753471517908
Ag 10.486992178793727 10.344204616868565 10.459973667408267
Ag 11.901453160561712 14.782711627930807 9.092521121229403
Ag 10.358318337112872 7.8945044353496225 12.125031755094437
Ag 6.682958978558488 13.613246680975033 14.038884090352857
Ag 8.734003460476698 12.109986240533598 15.017108135491773
Ag 10.634621936967076 12.466950413084366 8.249082391363503
Ag 12.079169310517678 8.232800854817008 7.66072656614335
Ag 8.916165168893302 9.619221346268693 13.743656413826951
Ag 9.866287142613766 9.927009828007451 7.633254339627408
Ag 9.311080591739069 14.366506109655624 13.375538815042548
Ag 9.674648887224635 13.523074558015482 10.618144818529595
Ag 9.861209738375972 7.7579557597574205 9.404489365174955
Ag 7.910910533159068 11.926265047796592 12.197268676716478
Ag 8.146580109447012 11.44956236254534 9.361367767984671
Ag 8.006848393860352 9.152767923145092 11.122098948811406
Ag 5.83397132144105 10.771380278206873 10.783140704616129
