41
Energy = -87.86318679 eV
Ag 16.2054019854572 10.369949011460275 12.335837152170358
Ag 14.484070962539363 11.16880027123187 14.42043092154304
Ag 16.58329326012421 12.88039196229936 13.756389405328779
Ag 15.144736263559244 13.21342964194568 16.275842581776573
Ag 12.634488116746704 11.97030882795477 16.309536200413195
Ag 15.399417164535011 7.988983099918466 11.111953403335132
Ag 13.485293323332051 9.689447719179652 12.255217247417503
Ag 11.933323113648111 9.826251492169078 14.60250568415992
Ag 17.42458832943476 12.472567110555302 10.995425191409893
Ag 16.958592784181878 9.874752384764585 9.713951941983218
Ag 12.46460637296613 7.7310783035481405 10.50556320786844
Ag 12.728990697616275 14.796705996215112 16.396239423418198
Ag 10.090728191668068 10.75287379775808 16.467004152107418
Ag 14.716565406809751 12.818834737197468 11.716403127321582
Ag 11.174185186486296 7.627689222304151 12.924774914790213
Ag 12.152564597195754 12.292057637314143 13.133978217254217
Ag 14.026503861283743 14.265048486826455 13.972575256974038
Ag 9.297746888943701 8.83834793769957 14.546377289874751
Ag 14.153958439981585 9.549929916532772 9.242266526782824
Ag 10.385097307596057 13.44824300637634 15.630907512902368
Ag 9.334240117461992 11.583495790262118 13.840800310443342
Ag 15.365465094764424 12.060697990409658 9.077032365074201
Ag 12.59389387776279 11.765385958524025 10.305431086309756
Ag 10.74543537934951 10.140410890315808 11.797546405198048
Ag 9.568764563858712 7.994181750615708 10.506193678299159
Ag 11.461461376796969 15.330491228692482 13.879955414888041
Ag 7.970076344075621 9.69440586996619 12.169535265237338
Ag 11.259320117862568 9.702503021499865 8.906597010380997
Ag 8.845847039889444 14.328239693967907 13.470403602734402
Ag 13.085726842905318 11.395162044300548 7.458144864283439
Ag 12.562864580202252 14.635478634190141 11.409564419635279
Ag 10.1608864630448 12.984813490071836 11.27309873832771
Ag 7.439346342689949 12.43574163840542 11.744798372263006
Ag 13.277916827411854 13.930987291145426 8.724099454957123
Ag 10.655515315614691 12.467433954088925 8.323949443706802
Ag 8.791052279852538 10.885330263324333 9.777725482647897
Ag 10.043348991804494 16.069122715385667 11.577610839294122
Ag 7.2966635449658925 15.25513643494625 11.375883799555234
Ag 10.843287752918428 15.13581015764867 9.119979399739638
Ag 8.297800418515969 13.692253404588172 9.24267660147904
Ag 8.479097427318662 16.494415007904454 9.19328637132781
