48
Energy = -104.89715696 eV
Ag 11.528064159859516 6.129212271863724 12.09216305243986
Ag 14.530154088677572 8.552386308967943 10.707590470921362
Ag 12.194211115639531 7.495275721144791 9.725851651025588
Ag 14.431769403470101 7.480208731659458 13.303524693775342
Ag 13.357310472157378 9.971054371400356 8.604996993004205
Ag 11.999624165115835 7.180140034452757 14.667677020203124
Ag 9.496569193608913 7.592931694304785 13.44975581932455
Ag 9.60242074064794 7.659498930486038 10.668951966292028
Ag 12.199689804914506 8.849581866077376 12.351868864747471
Ag 15.365708225158937 10.157903413570894 12.793337396267649
Ag 15.881410343049389 10.840460583067577 9.966790072683587
Ag 10.521305717076558 9.4269719794105 8.616977040689225
Ag 10.758159685272656 9.674852448620806 15.082393822271555
Ag 11.793364830545316 11.091451410605076 10.605570006065895
Ag 13.526004740843971 9.68290612127203 14.887731446768976
Ag 16.447297713611963 13.614019911853955 9.914497064298402
Ag 14.112514994581026 12.686513843360519 8.658535896795657
Ag 12.15864960740255 11.682274421372533 13.275679608879539
Ag 12.173745806196345 12.127567237634958 15.966294357978404
Ag 7.810837436901229 9.079331312795432 9.111448837734585
Ag 7.985022709213141 9.673761787849637 14.555504283728432
Ag 7.349044730734602 8.975192544475249 11.884409068500744
Ag 9.773880773868495 10.242682187559847 12.369669029193677
Ag 11.361362789264312 12.119212379788705 8.064926053369053
Ag 14.314120048198006 12.437406945555177 11.559015127900292
Ag 14.650004484226367 12.260683528997983 14.562840191928093
Ag 10.061393087908778 13.060899848353674 11.918689608340253
Ag 12.342223776893427 14.040947010058042 10.549142012046536
Ag 9.463632379399666 12.118411966675653 14.70249888582502
Ag 9.028024645393359 11.59031228735164 9.665808948665187
Ag 12.333948983566607 14.710249356821357 7.760331796827948
Ag 7.4312127435331305 11.819142328679057 12.784960061737017
Ag 16.855035282845698 12.6781911652529 12.553013306134353
Ag 6.337393561150724 11.146501914210448 10.317406945074497
Ag 16.23544856351748 14.514659037824545 14.5690338264637
Ag 9.898351836523979 14.342883231763714 9.32584470255946
Ag 13.422277118268326 14.582146088632634 13.1093764644432
Ag 11.000462662623084 14.386217265293311 14.642461019436665
Ag 14.467397783603145 15.584173801006735 9.534653524881353
Ag 10.72365354754551 15.815732653124217 12.150934757943574
Ag 15.965776120055969 15.450697335493611 11.930885712039908
Ag 8.393540323939593 14.536496062808318 13.460939691916268
Ag 11.802250663176066 16.670458653669552 9.663003581562105
Ag 13.641372402920204 14.687769491862753 15.837972890562163
Ag 7.547369949276447 13.755729418673878 10.778293749169979
Ag 14.931971606251533 16.873133198271905 14.164692610888716
Ag 12.187999090855469 16.867730203975015 14.323114200159013
Ag 13.544384019665028 17.078288914001217 11.752168188148495
