43
Energy = -89.21614527 eV
Ag 14.897368727302732 13.340144202316413 10.296299946379033
Ag 17.672148898710585 13.104410816350203 10.05656973060251
Ag 17.263298165168628 11.65100815497813 12.402424211984512
Ag 18.637463351156036 13.666104669659058 13.857112211650268
Ag 16.091430121889953 17.12993220714989 12.998687098460756
Ag 14.12331325331193 16.34658315423967 14.824618681936169
Ag 16.195704765248628 12.553702565545203 14.827083685724158
Ag 15.75697577992883 11.507024435165558 8.388874256277411
Ag 14.27890345030729 15.627073002464689 8.734687914429966
Ag 16.6974369549992 15.313170845633833 15.052946480681264
Ag 14.52156803154875 14.115544615298495 16.41617341011856
Ag 17.84533230362843 10.326762994783342 9.953237588608406
Ag 16.331839502462135 14.143057559937946 7.813396062461211
Ag 16.442775110439733 14.347959894632805 12.408583547240827
Ag 13.3893401218937 18.135115802198676 12.726968296727396
Ag 14.178025995477077 15.707025417661287 11.623045297960891
Ag 15.005529025607187 10.3114617228384 13.629508889895622
Ag 17.002965370731584 8.8980704765977 12.196900193434118
Ag 15.143403426119793 10.461262026294703 10.833572562956704
Ag 9.553047144699203 14.436529295084721 11.27927248217669
Ag 9.411858959122473 12.889243347609431 13.605926867381834
Ag 8.969724272412433 11.14777833227787 15.721390930490577
Ag 10.374290394832414 14.78482254775729 18.641843306241352
Ag 9.320387126412573 15.611586412999623 14.016298845837452
Ag 12.380879430142262 15.791454524801788 17.010985204214336
Ag 11.445966059020055 10.527631988331823 16.821318359863092
Ag 10.882752434908527 11.999978999641801 11.367286555637165
Ag 12.159134191521904 14.395365411327345 10.16096134851908
Ag 9.677147718275952 16.520577743039855 16.64243127042355
Ag 9.66325131136506 12.151310878487267 18.22386211480698
Ag 10.23382999031871 10.27782152993668 13.353323847843258
Ag 10.48515197704589 12.751197888648004 8.765507933058865
Ag 11.401755011700258 16.172071666086843 12.289311001316438
Ag 12.627654756390598 9.321046506046953 14.630238752177144
Ag 11.112672929340262 7.7041449339243515 12.921086519043614
Ag 10.02130899705784 8.47846779097997 15.408976444404255
Ag 12.667029054129674 9.873155968229726 11.908516360354367
Ag 13.875450062745067 11.455730757111896 15.944213463023958
Ag 11.543380213139955 17.314551491609357 14.77637784227053
Ag 12.563109152045893 17.315137645109466 10.050354294755332
Ag 12.942148040963488 11.530883037980598 9.487936429128402
Ag 8.91567350383645 13.896638932882166 16.23650677175866
Ag 12.334192337331434 13.004075231040467 17.73200041243454
