47
Energy = -102.34158125 eV
Ag 7.415196578292467 15.943099529252256 10.085532480202327
Ag 8.230075018246605 12.933435148761118 8.28776221111574
Ag 6.311231812948177 13.42113513701683 10.412014590234474
Ag 9.623327455930683 15.573739856369137 8.438558725821805
Ag 7.574043862797261 14.789673905663006 12.643973728671517
Ag 9.73138210114219 16.495363349614717 11.612509145426015
Ag 7.921324992596627 11.169803899142469 10.565915793974554
Ag 11.160738566277944 13.255139604377497 8.278065123800436
Ag 9.242755637142173 13.808199175449856 10.650762666862752
Ag 6.590506344593672 12.131871073309103 12.8812128905078
Ag 10.041227984169572 10.744976597368554 8.739953775469383
Ag 11.770068412417665 15.159743004048902 10.275537942177671
Ag 8.124228717566918 13.322520785921467 14.897284240038614
Ag 7.795646891881234 9.599865526042406 12.979275637980523
Ag 9.516188951551646 11.775757945427832 12.974967021258424
Ag 13.834546471869988 13.494683849690633 9.303325540654953
Ag 12.91791185273704 10.979748784026885 8.560223854123276
Ag 10.612113907745911 14.298788869535487 13.13845985583936
Ag 11.484480929929404 12.119343837878452 10.907048429902005
Ag 14.460964057693742 15.948576864369137 10.694378113526545
Ag 10.148859535567587 9.562031031103837 11.269707152452638
Ag 8.928292007046467 10.603015433082442 15.540961309518577
Ag 12.483530815698312 16.35175083040294 12.707712840516184
Ag 10.372824705431858 8.84171249915609 13.921841085911472
Ag 10.742360742869593 12.768766575880894 15.53450831104867
Ag 13.493515959815573 13.65739071711449 12.125129099065628
Ag 11.786765486431777 8.490110679957938 9.249708766492935
Ag 15.283408090988008 15.40985235441444 13.36207103587953
Ag 12.907035503766796 14.459875775208353 14.793328345642653
Ag 16.135425584679513 13.74188590408685 11.037801052286131
Ag 15.50041876003552 11.308730822073864 9.755333548922206
Ag 12.462440146426538 11.492989577884988 13.58823084959975
Ag 14.583221758046507 8.735800760322054 9.083011003444408
Ag 11.722024968909937 7.364359528761926 11.886499289506848
Ag 13.220108426266972 12.440447400596707 16.694851062336255
Ag 13.190211512548805 9.871508511863686 11.303784014254598
Ag 15.191060062935492 11.372961523449652 12.654149124393658
Ag 11.750137757835324 10.122259605581398 15.964191052668575
Ag 15.390247713736771 13.131187904777702 15.061399589703047
Ag 17.562640875662304 13.677731491496118 13.411838926722242
Ag 14.523224405224173 7.387386278448555 11.69811725458434
Ag 17.803913518165086 11.506129473433262 11.66868745608788
Ag 16.61522416795121 9.112788664993898 11.031831810503881
Ag 13.175461860840047 8.607048243479584 13.934028989023442
Ag 14.642157351640012 10.444918794979415 15.414226834261372
Ag 15.986596244161106 8.713563323775812 13.689405244462996
Ag 17.277972384359618 11.080573640501756 14.52566294156513
