48
Energy = -103.73815287 eV
Ag 15.715453634254768 9.601393625880423 11.741376546532607
Ag 16.663257777229205 12.03699532713356 10.464329285307388
Ag 15.680792775582198 12.059079464783261 13.137353628113978
Ag 14.215851484979877 7.913820749217998 10.083475020752728
Ag 13.716676952573966 7.717926477854604 12.839873636415273
Ag 14.353954477749435 9.945028816134194 14.34198887596266
Ag 16.468779623463323 14.51865029293921 11.966437921297922
Ag 12.632039372438802 8.121349361209898 15.521291478998537
Ag 14.782997603164008 10.514421285368453 9.101531933057274
Ag 13.039887828457074 10.273930332740488 11.46786841221027
Ag 14.222705528497888 13.219356801500858 11.03299499511507
Ag 11.36705806735298 6.556899080528292 13.60684301314576
Ag 11.381748292755757 7.91593739852709 11.096291877414519
Ag 14.24182529509 14.489008448783673 13.708775385743932
Ag 13.206630409146346 11.232123180286612 6.741138879488034
Ag 12.395015217993425 12.125956897177975 9.357447811677995
Ag 12.215729682434164 9.303995260643179 8.66987001456891
Ag 14.544485783180143 13.283354426944266 8.13905975601454
Ag 10.975833040051926 9.694401029158897 13.389830876740529
Ag 14.013682954917117 16.163078356753925 11.46013814696529
Ag 10.445920086775136 6.568219669347658 16.252022610993965
Ag 12.633098000436856 12.137498003861355 13.498929991735796
Ag 12.352360642586433 10.858430909408096 16.091382956916988
Ag 14.559411561930512 12.422123105046605 15.716282408179291
Ag 9.985643609829868 9.345731814578958 16.094354776018267
Ag 12.179466357181632 16.388968909009424 13.716239762600818
Ag 10.367502362341138 10.527762471055167 10.47615582020634
Ag 12.75734042225691 15.176126849515507 9.159371826224293
Ag 8.890295168952493 7.658021723632346 14.181831011861815
Ag 12.204595643580877 14.031662256839667 15.568126358545207
Ag 9.39047562346482 8.603206098353914 8.835917703013791
Ag 11.663905835514582 13.721793844580242 7.089204819135873
Ag 11.79877990649953 14.361162450967617 11.734678041735913
Ag 9.914076869092094 13.174913005658203 9.693740428082744
Ag 9.998002605070065 12.075700777002664 15.232416548106727
Ag 10.45559976815891 11.143711716762992 7.44421596600567
Ag 10.019644144425797 12.392979178007423 12.453952461583405
Ag 8.633969603214343 8.735416215144504 11.636981804513367
Ag 11.380560179877989 16.984275243839814 10.78179317136858
Ag 8.170660293143705 10.365171914600928 13.956686579070062
Ag 8.032495849441668 11.178704543253962 8.711252662033703
Ag 10.00355984045243 15.72862195480486 8.629677749126788
Ag 9.980947552236035 14.718695272270612 14.026443207380904
Ag 8.857685235191088 13.534627571815248 7.151521462395627
Ag 9.086102956671763 15.196080143642623 11.40178036336352
Ag 7.679509557195205 13.144016815583067 13.751659878237131
Ag 7.619447379288289 11.494962478187006 11.405288108228344
Ag 7.258367049225441 13.784988932679147 9.590962671631157
