45
Energy = -97.14087677 eV
Ag 13.162121553873595 12.74459587798644 11.217704410674704
Ag 14.318840792882508 13.56303402731255 8.649739054596045
Ag 9.158242756020007 13.222348526593633 15.057316683279076
Ag 13.806412100601747 12.752339413538415 15.09014024683266
Ag 14.849616064341484 8.097218448364623 13.604309649485833
Ag 10.196144317813197 8.017527525445656 10.320694753131265
Ag 15.717264971717098 12.735358373429264 13.041566017338964
Ag 12.327153822535976 15.688377412717855 7.807307277608668
Ag 10.067832655414085 14.155281441692876 12.512697217273422
Ag 7.944631782649866 13.453682607725222 10.710357904751334
Ag 8.502539456577823 10.366845689853278 10.370347616698774
Ag 11.72166297648571 12.873363118979139 8.059471005874444
Ag 10.517208848698166 12.254413650723144 10.598339439983617
Ag 13.081803672629693 6.248228940208865 14.730269962711464
Ag 9.94063810071366 14.622900466254201 6.76194265549978
Ag 13.821933325154745 10.626949997423937 13.062097755732072
Ag 15.59836834063105 14.55465848954076 10.884862601255277
Ag 10.181553754905375 14.828881001953294 9.522124415289497
Ag 11.638999213175838 14.529506532920811 14.767879816966985
Ag 8.945473870140711 12.435683440563615 8.255738701028433
Ag 11.076648428394703 8.118411168988972 14.963356366852672
Ag 13.761819966125014 11.033095222348887 17.313702103592504
Ag 9.558147614710315 10.437683288233059 15.267756316195909
Ag 15.55924925645549 10.489919488628198 15.225908406305091
Ag 8.771278503718188 16.298990498234815 11.442280569211265
Ag 12.268005947962733 7.6327847591591 12.429087837967918
Ag 14.974309876825997 16.239099958786785 8.623250922476418
Ag 11.392587152561955 12.239626180192644 16.432634593473217
Ag 13.785448710502397 14.813863092212532 13.088497146821595
Ag 13.558178906709825 10.857522066077639 8.829625519961628
Ag 7.369418071894228 14.444350656699182 13.261334050168664
Ag 10.734838814367833 10.201332873276476 8.532925484321822
Ag 13.663308331009391 8.565755680077809 16.106329500182493
Ag 12.697326043708916 8.18729219798566 9.025016556061116
Ag 8.355537803228481 11.699463251952505 12.888168389056359
Ag 12.007573525466894 10.004403827939338 11.108242826149437
Ag 12.983152266124536 15.517849685126905 10.469760739713712
Ag 10.986500069916982 17.411035032157507 9.988237118250566
Ag 11.348600841091098 9.582135589926153 17.29399267243798
Ag 11.511246046851522 16.48068984495895 12.65016824246699
Ag 11.333737792879564 11.798860481488257 13.43785070903333
Ag 9.780349463291682 9.270362018352136 12.75384636636455
Ag 16.581033461340297 10.11505285853217 12.591895470411226
Ag 15.748098826653983 11.717430252898742 10.389269599073664
Ag 14.661045075341267 9.037678216633955 10.827838481533364
