48
Energy = -104.94570348 eV
Ag 16.366631349467045 9.269437348346933 8.330242745108325
Ag 17.575856318262662 11.110477655759238 10.025583035238451
Ag 16.09992249008224 12.67014665178902 7.862684157458244
Ag 16.514052183759595 13.589991379035606 10.597689873395124
Ag 15.97286524156822 8.98888515447485 11.06951317049706
Ag 14.174417454509243 10.212825103993437 7.024687663646878
Ag 15.449413450115763 9.033218473843082 13.793048276240036
Ag 16.192995668375243 11.502211091131308 12.515468539998565
Ag 13.789207141651703 8.505442641903025 9.307350378783903
Ag 14.763429042200825 11.240841408328905 9.72257059111309
Ag 15.259169335590405 15.762350881583894 11.884478510643566
Ag 15.23461638002126 13.798975618324297 13.907060834178978
Ag 14.45898834309126 14.770072430234954 9.096462353525984
Ag 13.249019379462577 12.708511426440161 7.581802156525979
Ag 14.396380411107089 11.338880259428743 14.924544974754543
Ag 13.584616468581453 7.691383227004261 12.004855158061167
Ag 11.367907701580231 8.962802313782442 10.823626551401013
Ag 12.705916072715738 9.039750009876608 14.398765542954603
Ag 11.641447181481968 9.813703143322849 8.088082538652555
Ag 13.54331335409022 10.560971309501888 12.175803235403194
Ag 13.785143369158181 13.39420238612247 11.413118533203956
Ag 13.220646551278636 15.757534973893941 13.91022058562955
Ag 12.586470822913105 16.011391375800645 11.151696966573269
Ag 11.989275013256771 11.725965227153408 10.110499246864967
Ag 10.967732490936559 7.329216070844528 13.066062735943444
Ag 11.617587054065531 14.503264818518115 9.01144835793309
Ag 10.461474678783981 12.324768296893776 7.729132339657227
Ag 11.682479800715228 11.194711158639105 15.853272518939924
Ag 13.300972763609362 13.682457964889498 16.290611476435434
Ag 12.416510533737462 13.026515075772718 13.818860475588167
Ag 10.489004597094102 16.194545201054382 13.174709972475505
Ag 9.392427192282087 10.70899811532339 9.87501778553669
Ag 11.06324549056179 15.344803478671198 15.75319887469422
Ag 10.808157157113264 10.977831403127919 12.965573757784965
Ag 9.85252547460091 16.194758940912124 10.37243407617029
Ag 8.880324979371716 9.200724937508888 12.34491562678668
Ag 10.810950429292665 13.780528241973109 11.699879486079265
Ag 8.901205382568659 13.568981608206174 9.674630917448022
Ag 9.292364081418416 10.745593137427049 17.2064155281049
Ag 9.986466220623258 8.995675847659282 15.098018964083886
Ag 10.707423929569725 13.214263203352418 17.45643982129294
Ag 8.345596627740749 15.651137816141805 14.968797540141962
Ag 8.131768965452022 14.911619368017165 12.19434584229844
Ag 9.667476656620375 13.327792788201206 14.273068233208102
Ag 8.262797579599008 12.052778746230459 12.049336263548152
Ag 8.091171234927243 10.951416513851894 14.650132795174853
Ag 8.071044381140831 13.181007537427291 16.56299754809767
Ag 6.771741554751483 13.37078821917827 14.084993423620729
