48
Energy = -103.99339139 eV
Ag 18.814118269760613 10.528142068720953 14.602107043154486
Ag 17.49344399255899 11.046725001859969 12.297020414290253
Ag 16.749517647656113 12.391653733346665 14.772439182743701
Ag 15.740242242265147 13.232434900916395 12.118140846195958
Ag 16.24786430146542 9.43813898837403 14.318739214268293
Ag 14.61772651994011 14.261259571938236 14.472296425286087
Ag 13.692793905423882 15.24993089063628 11.854190422567079
Ag 16.182076456969543 11.40165707526114 9.859459545531816
Ag 12.496579656973203 16.17216852750061 14.208491667719619
Ag 14.284977101060825 11.394262520114445 13.892180914759198
Ag 15.56797838508569 9.203761246348092 11.524654019739609
Ag 14.616466403172797 13.861368298170273 9.600545555821606
Ag 14.439677062078822 12.390174557704455 16.543883816168236
Ag 11.715058784255554 17.267211549742715 11.674265544431309
Ag 13.816794751717408 11.542896393676891 8.219615359683123
Ag 12.208039317930144 13.315605675876508 13.2958273378783
Ag 12.61533506020737 15.991021439879978 9.29173751621918
Ag 12.26533513611894 14.204483540114605 16.200537596261896
Ag 13.66999181570418 8.557726982965564 13.46094578667804
Ag 14.925534091015834 9.047971965813414 8.817316693576911
Ag 13.647288731011304 11.596899254735112 11.165341608969854
Ag 10.101206475652381 15.360272777018524 12.938168110478928
Ag 10.095541856082697 15.990283965176907 15.716844805086064
Ag 13.067274685116693 14.019865759571312 7.268531770676077
Ag 9.814854617157032 15.81333662735486 10.195078956179719
Ag 11.723579279557907 13.581105651235598 10.358285038364498
Ag 13.955294668758695 9.567618018734295 16.05294522045063
Ag 7.705654628069239 15.185598327065867 14.420480834491364
Ag 9.781439602448643 13.328977199813234 14.990914530073606
Ag 12.90333971244379 8.698948643087268 10.729950585308044
Ag 11.03872965254061 10.852164975910581 10.226913743880885
Ag 11.05539802978373 12.100180301225109 7.755468791789458
Ag 11.869877706492714 11.495523252064434 15.648642510199817
Ag 12.120766711055925 9.378066410078938 8.096985693266177
Ag 9.69118543075916 12.530218682530387 12.154146373615948
Ag 11.71149155647122 10.580953321321596 12.920958054863231
Ag 10.492516656358335 14.945832898676302 7.661612383471236
Ag 9.001142728385982 13.258719049546285 9.387515627283298
Ag 11.312578973338994 8.756678813952632 15.14330846229093
Ag 7.692535513276664 14.53621652675722 11.652038263403774
Ag 10.901371799463751 7.9277575512134 12.482016249416525
Ag 7.293741953288239 12.527472540274976 13.634536839346698
Ag 8.645020547146848 10.50602465784116 8.94014350572479
Ag 10.15083193737632 8.207328263820475 9.790533014277166
Ag 8.744931993763412 9.716677036117046 11.791356815890905
Ag 9.267637054525807 10.665381290545815 14.426932942990026
Ag 7.117379043459713 11.84176663171344 10.886994792325828
Ag 8.669893606692032 8.003047704388715 14.087333981016384
