46
Energy = -100.12772585 eV
Ag 16.298043125913917 9.275933025871675 12.616139923030941
Ag 15.56660973275182 11.345625647991739 14.469284168222169
Ag 13.823969914259152 7.773174413845127 13.505801538548127
Ag 14.856367689244042 7.5693414413331706 10.86237715923265
Ag 15.15808381084732 8.238997374956915 8.07327510515074
Ag 13.633447762640024 12.687412466560476 16.08376196014559
Ag 13.384855267521425 9.92270661346375 15.345302299101569
Ag 16.163365985992886 12.168386315985796 11.868853989185167
Ag 16.060136683948542 10.089597681670684 9.94498001474253
Ag 13.7486859811097 10.310432281573965 12.436783511988912
Ag 10.858578412584576 16.275446027020678 16.67772275586208
Ag 12.531780478943588 14.989010886499464 14.874080667647723
Ag 10.716618514658776 10.706997842930814 16.073911141647052
Ag 11.248614795831923 9.175988391766628 13.701102546834164
Ag 14.653667016115403 13.819000075629145 13.559335957738723
Ag 11.989557554251713 12.065131827445729 13.98810414758635
Ag 11.86216680369329 7.726056397790395 11.452989351143515
Ag 16.147037872896387 12.805028029931675 9.033140760347836
Ag 14.854900456747611 14.626203086610355 10.896433400113898
Ag 12.559098559450067 8.993702600806078 7.013583858139704
Ag 12.783056435611755 6.856153860889682 8.951776490435945
Ag 10.876129498122129 13.488868022392294 16.496008670434392
Ag 14.472900367959976 11.0316595547346 7.655890053511685
Ag 12.999461227810531 16.46333260610651 12.54328519808481
Ag 8.394060664505231 12.338567310145496 16.046747986147974
Ag 13.779081197055415 12.099958444023702 10.307798757399942
Ag 10.374043171388017 16.800535252278245 13.945552497635598
Ag 9.976229618682064 13.943017834754013 13.55906327639318
Ag 9.235177476140368 11.12926591798604 13.627299197638669
Ag 13.43031058133853 13.715832667137107 8.146322558500735
Ag 10.571042752924479 8.851828668073276 9.069763654188339
Ag 12.242811662996512 13.879786040498242 11.911427125364924
Ag 11.289678216851406 11.176634255066068 11.300341303377232
Ag 9.325783821019268 9.17089251922092 11.58723134392455
Ag 12.730647495050857 17.73469542307849 15.0656883196671
Ag 12.593512801083483 15.815335644290863 9.779050690240755
Ag 13.201524477963336 9.484964170996022 9.704746118371272
Ag 8.517247033983656 15.08981056215329 15.609390986135454
Ag 7.267476685858225 11.118145657739342 11.665636341773954
Ag 8.505895015001602 13.571667605093408 11.126437208314023
Ag 11.65865024875868 11.403180091998646 8.20377796480065
Ag 7.220828383996069 13.231185256793113 13.649581299630889
Ag 9.128562818253293 11.300553562447128 9.539934518658102
Ag 10.26451064124269 15.851288503416638 11.31883779617131
Ag 10.745275547178222 13.703889308431766 9.437405599621739
Ag 7.947591690126961 15.831854780875291 12.921116737470811
