43
Energy = -91.72845585 eV
Ag 18.008913271556917 11.081127865570034 9.857475750065907
Ag 17.24354655804331 9.775079792869116 12.18004737330644
Ag 16.75038417176357 10.306079595186535 7.520942063329418
Ag 16.18793509116703 12.319057566847343 11.649149985195518
Ag 15.436831028407946 10.019158110211928 9.977757005661404
Ag 15.75570291368835 12.583912682999253 8.731073902998647
Ag 15.534865200171343 10.931147312307626 14.081347144124079
Ag 14.20988744651406 13.381664393628025 13.449575630437552
Ag 14.604476230484787 8.683726152901349 12.490475170896257
Ag 14.021389476821069 13.789977847744149 10.631262102048684
Ag 14.391545157963314 12.722726666728626 16.147540251551693
Ag 13.171219841869839 11.534121841659145 8.966268998966136
Ag 12.84823303491481 10.958928452970378 14.576742996138092
Ag 13.469662703241735 11.17429992412666 11.808533681945711
Ag 11.872318433269298 11.762097260694933 17.06225240439804
Ag 11.990652499791867 8.418719039089511 13.648050585353003
Ag 12.884608656153683 8.974414987554924 10.12863316094782
Ag 14.440646386847815 15.46098667598554 15.257523244260806
Ag 14.262989678588843 15.991889406010024 12.411898399775348
Ag 12.807973835161011 6.672096860485315 11.641829751678513
Ag 13.95785767534634 16.38656075568195 9.599968326665893
Ag 12.143334115572745 14.432644307328765 16.47652640630716
Ag 11.958692508567719 15.495538876712354 13.942202524808058
Ag 10.473553319946054 8.24897680358213 11.212890710715882
Ag 10.375840691088452 10.03025095716906 15.477204172950898
Ag 11.709348026723635 15.860957934291417 11.123162502305666
Ag 11.590804367035116 13.24972891609453 12.149236868318761
Ag 10.676946035397124 10.726329933266918 12.732893665953819
Ag 13.518170080268673 14.136745479773843 7.908996860132086
Ag 10.667915163252685 10.818000081096754 9.919167203285529
Ag 11.087671561181038 13.4558774109247 9.195065283434351
Ag 10.385464576900121 12.859728127433995 14.788854491202528
Ag 8.915143700333727 8.566028521998113 13.546526329216272
Ag 9.608885020186571 15.369085634705721 15.609117673790616
Ag 11.438943866741967 16.08001633557768 8.311547918017755
Ag 9.485878225873883 15.098188911086343 12.730558709356364
Ag 8.258572515229446 10.154991646441173 11.220367279621525
Ag 9.219855113531667 15.379092805474116 9.905238926018207
Ag 8.22101760540353 11.240660866624312 14.06785511827098
Ag 8.976590935808272 12.832168237894917 11.110330452534471
Ag 7.578675094914883 13.895747640764055 14.2785457223051
Ag 6.24603543626709 9.629321938497231 13.027071923137255
Ag 6.431508563395961 12.303094099430611 12.235078115747465
