45
Energy = -96.69204847 eV
Ag 11.289088854544705 16.488992162210838 16.666319395892913
Ag 7.827932012092072 12.781043699009821 11.308805568334074
Ag 11.297459992062045 16.38976182676919 13.842477995747467
Ag 7.261178477694756 10.37884135707941 12.661221376819528
Ag 10.345719471657839 16.827267794891085 11.179329310269884
Ag 9.34291423238581 14.695377223405817 12.598714919086904
Ag 8.829091614598124 12.318540914222291 14.008680501146697
Ag 9.402704638873187 14.796710549617814 15.371579000010783
Ag 13.392424897133097 15.193766564200162 15.360601016018538
Ag 9.846208756810173 14.29722313280833 9.822888424076657
Ag 6.280031718344102 10.841983921403175 10.077089041140814
Ag 8.379530698967454 9.798449687171223 15.174731371243181
Ag 11.432772135346106 13.692738592088016 16.9277236659118
Ag 13.96263850137098 16.47367755160212 12.863476671661592
Ag 8.257337590595279 12.316894848006719 8.561492696292223
Ag 8.985166740506957 10.27123616007056 10.349672378396672
Ag 12.611131316105874 14.20250316315653 8.873653097731722
Ag 10.949252318146812 11.07128455213885 15.535601665955236
Ag 12.905566517553272 16.926031971311495 10.127103996739667
Ag 12.137423201862763 14.70972849445876 11.633892497167581
Ag 10.710601648225888 12.209055007733474 11.70583971167136
Ag 11.549215444501892 13.405440940448788 14.0925532911007
Ag 13.532142775137473 12.335411743695929 15.825558282724842
Ag 14.82787087912808 15.032583675283604 10.549583638951555
Ag 10.07486947262986 9.749470053737138 12.991826286562285
Ag 13.566375289705435 12.335025056068643 10.818540445029708
Ag 12.979439810428165 10.958914157010895 13.218350425539048
Ag 11.002319151270488 11.84473743936234 8.890734862303077
Ag 14.493052452194945 13.569488176230452 13.324306752173204
Ag 10.772767018020264 8.275253054436659 15.296294846513044
Ag 13.326863848210722 9.459848044597319 15.624614099908847
Ag 11.678196248751748 9.738310764777836 10.66179972340484
Ag 15.211640838209954 13.127398444740312 8.527946869924339
Ag 16.9907673328967 13.380685212271931 10.797168469426841
Ag 16.606854951461845 15.451284788880137 12.658530552980631
Ag 15.735433504803924 11.174422397610392 12.347681729788993
Ag 15.764706457812817 11.039047585514778 15.060020086795634
Ag 12.41771124619544 8.187497544910055 12.996093808676806
Ag 13.581122697255491 10.710802813167444 8.631899014632724
Ag 15.09585493235115 8.651013934659531 13.615435246369024
Ag 17.35538128718393 12.973349039846374 13.668754840867226
Ag 14.315547036414662 9.162468131054199 10.978421692692928
Ag 16.286610992043208 10.828532501468079 9.665430964327179
Ag 18.459443721821817 11.239011067603373 11.647085499558221
Ag 17.029570852981422 8.778447360356349 11.567719620156087
