43
Energy = -92.6037679 eV
Ag 15.417638004524246 7.838948855699986 14.301531324701651
Ag 15.712028117302827 10.58230380387184 13.711666193775514
Ag 15.23695992123039 13.915949117416753 17.796284424429906
Ag 15.624031695024481 13.306818468215935 13.067765305460187
Ag 15.117652806688092 11.47370012352188 11.009792345134569
Ag 14.835921690721886 8.78251590273501 11.726914189704264
Ag 14.493979168468089 17.020427532039232 10.14907547708277
Ag 14.983670819147394 14.206227561129941 10.434764550279896
Ag 14.61145866249214 6.036367472297515 12.273201606984221
Ag 14.58660769813449 12.27311001570445 15.64945978462039
Ag 15.071133429783295 15.048142579311019 15.256709408201575
Ag 13.857855956516888 15.135128605428097 8.063492828952974
Ag 13.497564463920225 9.652648087142826 15.419763918860953
Ag 13.935926071780791 12.322910506338559 8.53798620049725
Ag 14.42347791408916 15.824247932053703 12.665454034304693
Ag 12.881851424962838 10.04750446358196 10.081821142177887
Ag 12.744581304981377 7.773486042532381 13.486796017966784
Ag 12.741236917018123 7.2378222499077065 10.638299126231084
Ag 12.74656398131145 14.27646040015041 16.721259355243845
Ag 12.961701410035731 10.79996354971097 12.926892730698622
Ag 12.904376785858654 13.64795401294745 13.732642970265644
Ag 11.426594502902798 11.001526237291545 7.887929672317872
Ag 10.761318645337173 8.540999649633877 9.06961217006925
Ag 11.705844969374265 11.837459916635238 15.758250896315381
Ag 12.469014157585983 12.816668716627857 10.945497886742347
Ag 12.404051288308574 17.633198510765457 12.176511549208614
Ag 12.49855989558428 16.283850265671145 14.722744783561742
Ag 11.432847995558319 13.764056478371355 8.263140754151252
Ag 12.163359164360708 15.555767081029131 10.300537865041846
Ag 10.557646849777091 12.281055738803952 12.990212158149282
Ag 10.754407699793525 8.79444122868818 11.854091136392938
Ag 10.230775086344718 12.55290553435491 5.99885899107076
Ag 10.738376566388572 9.621864102018248 14.479897772896878
Ag 10.10661721415374 11.038029880026619 10.426331957388822
Ag 10.741209034136928 15.42246507377684 12.73002951667891
Ag 10.360213279051468 14.262524060896338 15.23441897084141
Ag 9.812661770058694 13.97464613865289 10.609635356115112
Ag 8.894984324087782 12.516095557611441 8.416113893560752
Ag 8.86017296893805 11.775857152618794 15.167663206652039
Ag 8.525888623351124 10.245730794428543 12.767226873793419
Ag 8.344040594899138 13.97025111278942 13.250809408297894
Ag 7.641614460208379 12.286822634623933 11.030886369157887
Ag 6.4685147098905595 11.940073564406786 13.573259610792107
