44
Energy = -94.2644234 eV
Ag 8.710794174757794 15.519044289637588 10.780373055306367
Ag 11.18081860010119 15.388841036265974 12.183027184751454
Ag 11.190948832496952 16.205565939301426 9.535487047556309
Ag 10.714858242788328 15.210632565576857 14.953896228276536
Ag 13.664954384858769 15.854291021251491 11.004987040532171
Ag 8.991917694564025 13.976586335181176 13.066984031927017
Ag 10.30524812866156 14.462450933914967 17.57036578649051
Ag 13.393611122155589 15.247856279864557 13.871404359589476
Ag 8.909342795220551 13.017734511342512 15.639080996968167
Ag 11.416082079525058 15.224393271305892 6.9627251421012195
Ag 9.347333697545722 14.074399891273673 8.59157314346604
Ag 12.904337649823514 14.013801719656508 16.42256948629328
Ag 15.695306183589043 14.484898184296732 12.390122474857662
Ag 8.315680094933333 12.646604518677433 10.73695479317667
Ag 11.668384195928937 12.60660413479767 14.331292408893102
Ag 16.234012846769616 15.796599929552533 9.789912865125403
Ag 13.072053437196308 13.210735463577796 11.914348208826857
Ag 14.674491658885444 12.789490493076917 14.393516042771386
Ag 11.057658878585992 11.826665728148885 17.03809027386388
Ag 13.839052320647097 15.748177703808842 8.23924878132921
Ag 8.268903595114681 11.327671273906304 13.343499022697682
Ag 17.472851803204332 13.353518032949198 10.66918989170913
Ag 17.314838226612817 12.361580953351222 13.362303018715048
Ag 9.091156686239405 10.20639462978938 15.762046797778384
Ag 13.765073546626965 11.297160484332625 16.62919691712708
Ag 12.075060467179975 13.519352984376232 9.192066983012644
Ag 10.722142256773672 11.677030213354183 11.886181413046042
Ag 13.106396187426968 10.560081960304931 13.018219078403652
Ag 14.821858607245543 13.454487469348411 9.567696167397516
Ag 11.773611047000125 9.580585070302464 15.50988800168102
Ag 9.631586219989353 8.34626844857441 8.948804745872389
Ag 8.659294026657596 9.792319329602082 11.048664189232452
Ag 15.45390343867197 11.513708433063737 11.430306472126283
Ag 16.38798749068561 11.007378289889145 15.677377531958312
Ag 10.026291009303785 9.09841205209006 13.407310894665363
Ag 16.28672157092943 9.680117249747568 13.213060451706609
Ag 10.341937084054958 11.082881892483137 9.16327455121708
Ag 13.115370423041679 11.083208788968609 10.001364780298257
Ag 14.438438927213301 9.050234896071558 15.150729029090478
Ag 11.480491941670246 8.97420049279434 10.912033981523523
Ag 14.3461885857063 8.781826485434108 11.28780963668099
Ag 12.542431556031723 7.809420020119952 13.417843226323836
Ag 12.687469862593572 6.510728144638058 11.011770824783477
Ag 10.791217675738606 12.514167708746454 6.861512295595816
