40
Energy = -85.82891346 eV
Ag 15.887224174765128 11.20571178368555 8.479100170113664
Ag 14.587939228273951 8.74494962504005 9.246594111591063
Ag 16.33399733140733 13.208030350162543 10.43876736745479
Ag 15.462612414053051 10.721451289738678 11.159452652286433
Ag 15.133401341505543 7.954002564429728 11.971343779087809
Ag 12.958012031858157 6.780461469324837 10.622626062490806
Ag 14.32471749380291 13.605859551266802 8.492013083499163
Ag 14.51493354890575 10.187275064467562 13.696242241109225
Ag 13.137139345356282 11.093173508398214 9.027353234089215
Ag 15.258738822401114 12.923788262368435 13.092715451723985
Ag 11.148987298652127 8.680871723691581 9.248968204735995
Ag 12.883485050833619 9.470041742864534 11.365028563819765
Ag 12.841632527057875 12.28235114440184 11.888461706921957
Ag 14.040485557615648 14.720454767384487 11.042424000152257
Ag 13.267696536628668 12.192728983249738 15.142944011755931
Ag 12.758136889343355 7.799962408234343 13.65448193383319
Ag 10.63183679315546 7.753102871373049 11.918623096424366
Ag 12.64579861412394 15.959670368977847 8.899097840210397
Ag 10.595679417989102 10.76653951502343 16.23890109784026
Ag 11.508634321389417 10.460874829602794 13.588939690840105
Ag 12.98942823468177 9.430788542145637 15.905324572340824
Ag 12.871425566452434 14.521600598181992 13.61208209612374
Ag 11.698533620980605 13.437388500528238 9.477149774768817
Ag 10.646120628193307 13.10334941649109 14.713563046242866
Ag 10.567934709396734 11.08133199857175 10.907508134335696
Ag 10.598346476700996 11.185033216809575 7.9812354637759775
Ag 9.94384417529164 8.463292899080203 14.558544207382827
Ag 8.69093428642769 7.325992186797778 10.046974778781964
Ag 9.823837779846134 15.532960166053051 9.516053634304898
Ag 10.185741879095811 13.743893157037242 11.884087297570332
Ag 11.688933200778145 16.15356341769888 11.52099361782774
Ag 8.74656831227226 11.114217812113518 14.111185025402262
Ag 8.857592922375192 12.881314361605137 9.273625380769905
Ag 8.290838754512079 9.1689934527953 12.191747721825358
Ag 10.337665811005671 15.73657686052553 13.976192358452817
Ag 7.792110568634386 11.87474519219406 11.642672960827412
Ag 8.436223196274367 10.026598749721257 9.472498909281853
Ag 8.909412789882555 16.74355046852411 11.878089970074951
Ag 8.0724581499581 13.872268686585024 13.656973582260866
Ag 7.419881214917514 14.580159509650576 10.948340184465014
