44
Energy = -94.88235204 eV
Ag 14.289355692717004 9.817481018584116 16.75021172538911
Ag 14.322233196273485 12.665444129592448 16.579215744582434
Ag 12.187437202162032 14.061367368064236 15.372744074234902
Ag 12.090763744141473 11.203235501030779 15.630286647166288
Ag 12.170481532309267 8.331106358836443 15.722281286553061
Ag 10.065840915876121 15.424349116099906 14.117089981907576
Ag 9.955668857264946 12.573265362278187 14.367015562932234
Ag 14.748390165136808 13.948783841976194 14.042126647067864
Ag 9.998440039144908 9.744228268696158 14.330558435729905
Ag 14.69638403591089 8.36811947976337 14.306392792153122
Ag 12.633866766566484 15.411700035155 12.823937109987638
Ag 14.837782713026929 11.128491010736562 14.326418474447166
Ag 7.831768951835339 13.873116735871132 13.018468966045365
Ag 9.962858182600778 6.980744575244007 14.531950160856072
Ag 7.882630840993527 11.037577413373977 12.964626318479274
Ag 12.507439089160913 12.536187989124041 13.013956265322351
Ag 10.434798995205593 16.784312074432634 11.6503814181265
Ag 12.558624427102563 9.688037387992507 13.063836315137909
Ag 7.9206185619013985 8.182279143395519 13.054186014601976
Ag 8.034375143357545 15.282140186805577 10.619253518394384
Ag 12.506828278952165 6.816400029511255 13.387679900307715
Ag 10.354433326832853 13.99276446902333 11.751320538495497
Ag 10.45450602279577 11.103935310756679 11.72042957072598
Ag 10.432939293902601 7.929109455219373 11.871110275346476
Ag 9.933878335632505 16.379690983021842 8.9138565060901
Ag 8.464906634338618 9.482903245069197 10.597729347075909
Ag 15.138726099536322 9.772120451838415 11.775577001751271
Ag 8.218221479885974 12.425207686619327 10.51353664019718
Ag 13.027338566625435 11.209698809831021 10.55727951044505
Ag 16.339870987754395 12.281536883559559 12.314393194870284
Ag 13.145373003917038 7.9360993764506835 10.942064873186657
Ag 12.293669113895163 15.286601544621801 10.004892026445303
Ag 14.35533842365921 13.83380270630711 11.176953856553517
Ag 10.996699627110564 12.7350866986205 9.342679966645395
Ag 11.160092121817662 9.244014341775008 9.492781073823682
Ag 8.722721408566587 13.97381184945874 8.164419826840314
Ag 9.209595796617348 10.891651881777383 8.301268040274707
Ag 15.692580666979737 11.678513012821984 9.646343635067456
Ag 14.14281157074461 9.37905010933372 8.820388961278395
Ag 11.422701927277913 14.71175053131773 7.331179205822211
Ag 13.670999711358197 13.286453333276127 8.464005244190858
Ag 10.159729605638121 12.511933120012994 6.299115781958307
Ag 12.176524840177612 10.926156988273606 7.495616161982418
Ag 14.912671221682249 11.279086517581753 6.95127628580043
