42
Energy = -90.66402799 eV
Ag 11.73682481605744 13.099827334420917 7.476326965084334
Ag 10.398273774285963 10.956702011988922 8.661153173515673
Ag 9.893039825757253 13.631868477335727 9.526544332586145
Ag 14.199935831181671 11.522720367059383 8.039813391659736
Ag 12.451387299035558 15.057020537287983 9.349798817625105
Ag 9.13484658613344 8.811834115562451 9.887128048033626
Ag 8.527868546946445 11.437377567440056 10.754855655612758
Ag 8.147500039420066 14.066607968056012 11.717962626206935
Ag 14.26928984728454 14.268762158857024 7.336410974942491
Ag 12.797933386111891 9.41359287255684 9.362684692503251
Ag 13.112373191789429 16.927039106043097 11.370617618187133
Ag 12.452116632497532 12.204116979365818 10.115945869399294
Ag 6.874667123086973 11.843564499526323 12.957689602684649
Ag 7.436234519829905 9.151920335052964 12.091581730632559
Ag 15.047391156841087 13.516435020327632 9.878695708066198
Ag 8.542891545062673 6.451877342911278 11.136774172714155
Ag 10.66549618416899 12.780660878041699 12.272643851051866
Ag 13.146933907714095 14.184262865560132 12.040807022371768
Ag 11.071901185222654 10.06320810215275 11.489408945311817
Ag 10.566720588130856 15.595051834620088 11.418326780164099
Ag 11.339254146654778 7.261513172518662 10.836829179301766
Ag 8.873261639278475 16.03767886955241 13.618369645668011
Ag 8.862657956873056 13.30660443040472 14.4049606216073
Ag 15.589792003184982 15.546988685359548 11.820920799748718
Ag 11.328159624444611 14.73263632129593 14.376862052244096
Ag 9.288861669527169 10.619328129848578 13.704876712822683
Ag 15.021845323681433 10.713523366855437 10.59857859559827
Ag 13.865005084782435 16.207608411552673 13.99772007787767
Ag 9.753384553839927 7.895440012423532 13.072601339062114
Ag 15.778664635596538 12.760424150530039 12.473689760584682
Ag 13.202018503539101 11.428671106156797 12.787322186800811
Ag 11.362069972203324 17.371969933173578 13.49441438409281
Ag 13.636416583842614 8.592606987763316 11.957390385081846
Ag 16.261815976147115 14.79912271074658 14.425018962963437
Ag 13.856560342003494 13.437151291829709 14.859264081775827
Ag 11.397375874086608 11.998519480332735 15.016974648795381
Ag 11.840360172139441 9.303340121016777 14.267841506445066
Ag 15.71817059461184 10.034447552068938 13.2390068850546
Ag 12.226646538827154 6.631458571073217 13.440250195993801
Ag 16.396103155148552 12.050815403556898 15.101757402814211
Ag 13.95275669854348 10.693062173357298 15.444366705141942
Ag 14.365348983118439 8.011333212208447 14.636395422292896
