40
Energy = -85.91897363 eV
Ag 13.206042688648266 7.9972368581294155 10.094406824829054
Ag 11.428512474906963 12.684845371556714 8.821616624118072
Ag 6.680150461759267 12.505296352722496 10.253912044871091
Ag 14.191852878139134 15.67491991913079 11.717252653951483
Ag 13.579253435671214 10.876407613514445 14.44319990967839
Ag 8.531240040680606 8.661915041167312 10.144104410896858
Ag 6.4738544920846595 10.047859622801017 11.596472561420557
Ag 9.612180557198261 16.289140492942884 11.77300656395705
Ag 10.753096309967182 7.657612700343156 8.707294668282398
Ag 11.774825209004952 15.14499913253318 10.343229724020404
Ag 9.28291569546692 13.996160704954079 13.30197098634877
Ag 13.139452749538199 8.232263577082628 7.327461505635643
Ag 11.478007473799648 12.717983113834196 11.747051470723502
Ag 8.64298949784725 8.820864203942845 12.945853912327445
Ag 8.89655144324888 11.40274189564977 8.705303048125728
Ag 7.146914722883195 14.945288958471139 11.719347462014337
Ag 11.527003538374517 12.840248322359901 14.662690157931833
Ag 15.58750082354802 8.828772180377682 11.489661218178684
Ag 13.884823076846004 13.26881983040021 10.123438416363928
Ag 15.937348640273878 11.304709121768546 12.937462741093478
Ag 11.15343557699465 10.207554133460887 13.077366035188055
Ag 8.956095681038805 11.362587107446368 11.631556526066946
Ag 13.552285312012906 10.757558760884745 11.566901466657061
Ag 11.823143731030983 15.243556927573657 13.188601055373004
Ag 10.777026650382842 7.564703312535583 11.542578833296119
Ag 9.24636093209411 13.888381011786821 10.192943719831588
Ag 6.830835802427937 12.514006450287887 13.057314977207948
Ag 13.967840212668417 13.383922428014664 13.261941635957097
Ag 11.117245224050034 10.13998956340451 10.210927177733883
Ag 13.201418163641184 8.22455216091163 12.888009313812143
Ag 16.217913495154065 13.728113773613977 11.593758845074893
Ag 11.073869419908492 10.167543091350813 7.391143287827473
Ag 13.537892754274267 10.780596560016624 8.644957681732272
Ag 9.03028615705165 11.479264625271965 14.513775174959294
Ag 8.567986173008327 8.846280877826885 7.37359922862444
Ag 6.459371159253684 10.026144538837038 8.80166174414848
Ag 15.520406834074718 8.798672068455893 8.704772724532345
Ag 16.01573989927581 11.254133672615128 10.126065317300908
Ag 11.21887476044426 10.329323570851571 15.878958785810779
Ag 10.836098082413825 7.728043503853815 14.343993239194168
