43
Energy = -92.62695375 eV
Ag 12.317668895923168 15.784945981592145 12.083153749528162
Ag 10.446534954597105 15.32066002071214 10.032956670872794
Ag 13.887954756210824 15.603173427002586 14.574814067487418
Ag 11.232865667142601 16.607728996511632 14.490661469361703
Ag 13.315865638674378 14.508883947331556 9.655602429177986
Ag 9.818687068787606 17.264257591465554 12.072703226437023
Ag 14.457741938958982 13.959991867075678 12.164130137690078
Ag 7.890447304039404 15.401384978699687 11.01764382117784
Ag 11.224038584898848 13.245322177948662 8.229748825686947
Ag 11.52183626474663 13.082823036302948 11.269393588759435
Ag 14.909139413741318 12.909496596512309 14.67030560670273
Ag 13.04618699288507 13.53267937530379 16.628392870528053
Ag 13.454401935786645 11.26666977258219 12.59444426825287
Ag 8.522874799937574 13.476206822829257 8.994025003337281
Ag 13.988861703561996 12.872783488004567 7.505504869031896
Ag 10.392799735196451 14.231583281409087 15.921450392879729
Ag 13.025914946032314 11.312342501612214 9.595201512957718
Ag 9.724333329763086 14.712819382957353 13.082437516963752
Ag 12.175046193386214 13.547700085464404 13.93478757992239
Ag 15.488687623520704 12.500561295423747 10.036266932583754
Ag 16.13334485763828 11.252712210465791 12.650377520323534
Ag 8.563499002947935 12.652741193274023 11.613994359701117
Ag 12.065553232113334 10.837118002678402 7.012692842233977
Ag 10.7622999204077 10.91111079944781 12.777263003219364
Ag 14.398544377619935 10.260488567178106 15.069918691906985
Ag 15.204588596455245 9.709486987666592 10.410675160497433
Ag 10.264441925468722 10.826203239502739 10.003622237250507
Ag 7.5225871151625014 10.83231146616995 9.65588608013166
Ag 9.054085769845939 12.277159874408882 14.407894462266214
Ag 12.31243948386701 9.078449484468488 11.213523741144499
Ag 13.22532196025973 8.686131728440127 8.487314534188217
Ag 9.302261325119533 11.270387946051041 7.425291449955628
Ag 11.705764101207544 11.301458220428815 15.48702107427986
Ag 12.159151001713687 8.779785494962573 14.224867466534167
Ag 14.143312667087438 7.035215872065116 10.508712396701409
Ag 8.168269582856118 9.949764606311705 12.315953495081613
Ag 9.983093124417696 7.732671144486632 12.607435935260487
Ag 10.483072521872938 8.763463836939259 8.050863666511512
Ag 14.647883392244445 8.53471527617016 12.893681214926428
Ag 9.496870690688935 9.48741625953124 14.806494087915071
Ag 8.767271825383949 8.27053799363256 10.15149115776151
Ag 11.268536262594573 6.852840915622062 9.988037312066997
Ag 12.487108337601814 6.517003075722655 12.644552393167372
