41
Energy = -87.42802502 eV
Ag 9.313693427542274 15.035723838746787 9.550979025222661
Ag 8.11801073735241 10.393615083096238 8.511243498510868
Ag 8.704431445033794 7.9026453338067775 7.508522142474069
Ag 10.077187909140447 12.559354935796078 8.317490037948073
Ag 7.5690785004087 12.86085258614614 9.53922710283465
Ag 10.817071235575591 9.917437987451954 7.592705126158784
Ag 12.791297703359172 11.867929041051585 8.081360504158832
Ag 11.98918604854101 14.455580258259069 9.124705469031197
Ag 14.691995926643319 13.846679668129102 8.803661253472454
Ag 11.152432195764417 15.526601359478464 11.676782879187343
Ag 8.296619407318431 8.219725739855436 10.282870130493187
Ag 9.94386280822079 12.89084541650618 11.2885847683629
Ag 7.788518427554547 10.754704020152207 11.343149425450925
Ag 7.30548382654099 13.345542751301945 12.303464332221631
Ag 13.043280658459684 9.470642549992975 9.503558381967025
Ag 10.476420891025935 10.252789095534354 10.431009605234406
Ag 10.877736643352971 7.678402571392697 9.282596663483798
Ag 15.1911000783842 11.365311120432683 9.951974357731958
Ag 12.726499729153884 12.236747539916985 10.888380060549347
Ag 13.895797398863968 14.916442750910608 11.246917475060773
Ag 16.492153004507966 13.815428714085071 10.901620158898368
Ag 12.394173632241486 13.64213984965144 13.356058831571938
Ag 14.149018401661097 9.772100158603322 12.010741535514956
Ag 13.177940720440718 16.335945434082927 13.590748072169681
Ag 15.618803029301436 14.952972244321712 13.553241013599733
Ag 14.987879171961483 12.331004299754433 12.761497927819594
Ag 9.506355901094429 14.23674158925386 13.713934418526254
Ag 11.894095120297148 8.097608768950264 11.836988750722297
Ag 11.44633967491593 10.971121658296768 13.018097787245274
Ag 11.309789120661547 15.380462045506189 15.403523586673472
Ag 8.730047689094263 11.50744358893648 13.940254116537965
Ag 17.746779776725795 13.247860336653336 13.332954880829705
Ag 15.584915433725085 10.058273423131407 14.38027844701814
Ag 13.86847180927787 14.368616232093094 15.64925566951315
Ag 9.290408732471567 8.916253397256353 12.832905535170461
Ag 16.03065479089385 12.650268730923187 15.405318493959125
Ag 10.817512454716136 12.554098429303744 15.557869616446188
Ag 13.031268096337717 8.80528958394077 14.36557405737526
Ag 13.366317761789597 11.509754551557704 15.134013864386397
Ag 10.54400323167785 9.758694163118093 15.327531264265252
Ag 10.798485669369649 7.13363281352032 14.252144119602878
