42
Energy = -89.8450608 eV
Ag 12.638394291470155 7.783900504259726 13.945786649374703
Ag 15.225441005659171 8.640876404928925 13.789439258332877
Ag 17.80038808868754 9.493701355945003 13.602895687972094
Ag 10.422203228293547 9.270579919002522 14.739389413585636
Ag 8.225677712949066 8.49178107967279 13.203984447367512
Ag 13.3323054483777 9.440610807057354 11.752308886238342
Ag 13.086533734494525 10.401225236160105 14.864957811493438
Ag 16.120281022970875 10.092505268340206 11.499513674735418
Ag 15.935211067494292 11.031564294776528 15.017318764034707
Ag 10.59014778164124 11.88344011578427 15.743677017131867
Ag 10.72536244432162 8.340255575151359 12.030641575099246
Ag 14.543740912205982 10.174042997464193 9.216759013612648
Ag 11.541826565358296 9.401202438461782 9.633264738501806
Ag 8.563146078310352 11.189692303847531 13.982553541174024
Ag 12.443380703411117 10.922778274460102 7.470007192054637
Ag 11.381069421257559 11.480620017922497 12.777230963418821
Ag 16.947365760906887 12.485264365145275 12.819783100790033
Ag 14.146808314365291 12.128534175923638 16.814243672278124
Ag 6.584278135596939 10.425499151010545 12.160411633274819
Ag 14.18875011016524 12.061164253714319 12.681683946729807
Ag 12.667863057979478 13.265034671736448 14.746897498830664
Ag 9.184361180712104 10.492013045854105 11.114298655883367
Ag 15.422982952149722 13.803580169372712 14.812039845270318
Ag 13.74742291448497 14.952830412671997 16.792539188935574
Ag 9.913046378435492 11.37400809553271 8.534863341333368
Ag 12.67927568020795 11.98602966804234 10.195306803231553
Ag 15.600208801258686 12.619504881697889 10.282535595772124
Ag 9.866286134919456 13.79361909947395 13.711608583309118
Ag 7.81224321143365 12.933338939801642 11.95440995157625
Ag 11.082203406164174 15.26327470920106 15.783560349874344
Ag 12.318718383860876 14.201083025256912 12.084597683927296
Ag 14.446629482473755 12.786306888777931 7.752822199392731
Ag 10.143748215991256 13.18188288165833 10.582611925815604
Ag 15.112002765806176 14.73776322673861 12.123836777707378
Ag 13.478569534759965 15.921517125979758 14.174503448595294
Ag 11.68300896432023 13.624403102479935 8.094818499422638
Ag 13.745881821241536 14.728294992046385 9.671868745219378
Ag 10.872500800787302 16.516971299071646 13.328524241846813
Ag 8.92442184253699 15.53866141362222 11.588679672789514
Ag 11.095247688826479 15.753707682983674 9.79090057249826
Ag 13.033499317772506 16.882791381218574 11.5491657163929
Ag 10.17558065557642 17.995018389087523 11.11203220328997
