49
Energy = -106.95882013 eV
Ag 16.792315477353895 12.208635100044827 13.374602412527208
Ag 15.468384458216923 11.684282657714508 10.960678040722094
Ag 16.416812232788715 14.426705122677523 11.591828691482137
Ag 15.845565266276775 9.550064782415186 12.758133158765009
Ag 14.981204728182796 13.519446985263686 8.94353871969396
Ag 15.79695009862668 9.013482200563466 9.995816432072026
Ag 15.117200109431204 16.13115441006488 9.79241046754907
Ag 15.15638753038338 14.370314791359428 14.126777014798394
Ag 15.396448057230351 12.12037259707207 15.845666658408328
Ag 14.051045483812175 7.617800663100066 11.683660099213167
Ag 14.020729987507035 11.614026613829303 13.429458611941724
Ag 14.163279532943973 10.790767431873018 8.656562503686292
Ag 14.380882093475659 16.53144382448028 12.460142630323578
Ag 13.538912704750455 8.698018854347325 14.121144978391397
Ag 13.697273586558165 13.995251793818413 11.494170579922008
Ag 13.31118053654821 8.095934980539248 9.00449110698272
Ag 13.287230958566484 15.4652588361836 7.733170497389966
Ag 11.80297601997768 6.191415485356035 10.893016020694526
Ag 13.19992255692528 16.150181375896604 15.035926813713045
Ag 12.989272726932624 13.499333257604428 15.816424301166252
Ag 12.898974590205016 10.697116222372019 15.897118664114824
Ag 11.590970304402292 13.120482311301696 13.261474135710433
Ag 11.395831542026542 10.343317132423847 13.394548633313986
Ag 12.410399411924532 16.496087551514343 10.169849451137836
Ag 10.475507717326192 9.04209996324846 15.607085064701302
Ag 10.915348316577655 13.968111325643829 10.710475781163328
Ag 12.465615618440271 11.53892890482688 10.927158472326736
Ag 11.390103980063362 8.943264332786342 10.992680838902984
Ag 11.162770287703637 7.384973170139409 13.35658002095693
Ag 10.50492425273261 15.137270302402833 8.263575197125649
Ag 11.430925713986062 10.169413453265811 8.46941563911685
Ag 10.467742704096628 11.99947759012532 15.70136545349625
Ag 12.292162715397247 12.91458849518715 8.3222941939967
Ag 10.550677305614238 7.422096653396227 8.741859158742656
Ag 11.613811158845213 15.949640205106334 12.768944089752694
Ag 8.132230218806301 13.334307971900449 15.122740606313538
Ag 9.635388187249495 11.42865266744352 11.48724041070009
Ag 9.120788761294946 7.2287838856187605 11.302929112984481
Ag 10.595110903421729 14.857550787066677 15.261520563952262
Ag 9.577119363668558 12.29237490220123 8.751355395760632
Ag 8.42218446569094 10.588676858332567 14.38004806670216
Ag 9.648328881836246 16.444419024910793 10.681224933160056
Ag 8.482210194624164 7.853126212267196 13.961646142640168
Ag 7.254970691607504 12.44245483044575 12.605198449931784
Ag 8.089925512530947 14.122871643922785 10.279120906408622
Ag 9.114379469937733 14.567517600388792 12.855599327973898
Ag 8.849859336141263 9.453001002922102 9.517177707891461
Ag 7.455910241493494 9.519533052255731 11.973938734528558
Ag 7.10612421125332 11.530240387766348 9.98248531243586
