46
Energy = -99.30231568 eV
Ag 15.470751438038024 7.9537815324563095 10.693834234393819
Ag 14.002378583773643 7.970331989664441 13.137535096088136
Ag 13.42229750354472 7.875428131603404 8.613031218027109
Ag 12.784010420819532 6.685422681206147 11.024439011030662
Ag 17.039773897570573 10.2982081305783 10.181007560765094
Ag 15.615679596489015 10.193729233739212 12.532173806885123
Ag 11.769857136026788 6.342470943738972 13.688807159855934
Ag 14.066711292980056 10.047853392387603 14.981179562832528
Ag 17.052515716510985 12.599750813944148 12.036114570181102
Ag 13.352362093437813 9.758145924077718 10.691268307566721
Ag 14.870991209136562 10.297472536076425 8.32501074771602
Ag 11.530197224153806 8.794976487091988 15.218450974725693
Ag 10.822217731917581 8.367384502048877 9.681601449430929
Ag 9.93035802682924 6.485043313498391 11.536583724318644
Ag 15.394655465236946 12.387494500691112 14.306751341217504
Ag 11.992769432572235 10.408301681211109 8.262539703242473
Ag 13.017437432966814 11.550448861115497 12.838108465043101
Ag 14.997583069806957 12.254942613650067 10.26973446455364
Ag 9.216233551315893 7.751672505203242 13.969269532342315
Ag 14.564501386948265 14.130975682079045 12.338608414989189
Ag 11.798877004440365 11.523531398881556 15.498118363843114
Ag 11.368339222149496 8.88320504552579 12.50608115590908
Ag 13.485365791103222 12.764228976500835 7.977099610260864
Ag 12.421417408341743 13.430957974134525 10.54783596258354
Ag 10.834209504894204 11.178143001773485 10.94733927661437
Ag 13.071623096858724 13.927567758971968 14.76946932619103
Ag 8.732200360658915 9.11738878442952 11.51241225720814
Ag 10.616104355781797 13.056615043937999 13.114480785638383
Ag 9.453619862903352 10.622242583643677 13.907738316845997
Ag 11.66158305332354 13.739575906957182 17.210010539541553
Ag 13.649611605399222 15.899665635806938 10.331101930846947
Ag 10.570881862300366 12.794143323775492 8.264758015458003
Ag 9.067649310364617 10.507733013296704 8.95541802539164
Ag 12.08274706956898 15.140675590813812 8.147828922740452
Ag 9.359309979065852 12.619785012581449 15.99347178693595
Ag 11.99971881942939 15.4498822951878 12.624531228669747
Ag 9.65142515423576 14.103454903853818 10.647627099355361
Ag 8.099197569189926 11.836830095682904 11.495440739363367
Ag 10.49498155450749 15.097752406830006 15.081617752863561
Ag 7.9498359048364735 13.434563310541021 13.810627108721041
Ag 10.900841733293062 16.60252109700723 10.23544473149495
Ag 7.75602766809692 13.063610216987174 8.907024033476675
Ag 9.29478682198247 15.361805912316017 8.1224785592072
Ag 9.197552365351534 15.874941835493797 12.746692155113985
Ag 6.94644578529891 14.470620783130187 11.455871072752249
Ag 8.142245973811795 16.71812717573881 10.32077153121838
