49
Energy = -105.9433762 eV
Ag 13.055658777866777 6.925489027434212 11.482942867030651
Ag 15.762242142849514 10.650273444454081 13.573314138178205
Ag 13.604080492632415 8.802065972271963 13.488345572636067
Ag 13.557520196853318 10.740722414444388 15.487564377809315
Ag 15.104665607790404 9.260135267439187 11.123230481312486
Ag 11.571531503219953 8.90958890767202 15.859356590746529
Ag 11.499595049632672 6.978360812963382 13.888335539942704
Ag 15.516601948186283 12.594773672961399 15.647406469855765
Ag 15.466955884370194 14.360299763830211 17.785723946390686
Ag 13.984294674810114 7.862446147474668 9.003855550702067
Ag 13.056018098050581 12.9730018472687 17.200779055784828
Ag 15.718812223508294 13.396597021461314 12.925645761899842
Ag 15.70007955639643 11.962246800464275 10.406985690787147
Ag 10.835391312774247 11.688005331656063 16.048813895826754
Ag 11.177551275294402 7.319520480792956 9.305289304704187
Ag 12.312651174766009 9.5146824406473 10.778996986656393
Ag 16.287522204977197 15.173518330539164 15.174069434522446
Ag 13.564816003371424 11.615381344337298 12.183962132886872
Ag 11.290942753560907 10.455065305142448 13.477084225513789
Ag 14.963658237789163 10.338314429832899 8.134419966582799
Ag 9.239192650973134 8.726176901098084 14.347021932626145
Ag 10.117193793034765 8.094924898284404 11.785869893479608
Ag 12.785307527997803 13.227427373792928 14.34354812117612
Ag 13.58387913559672 15.512609517963401 16.148387454744476
Ag 12.029263383964205 9.47079725661167 7.787018523945153
Ag 10.865001504515792 14.60187246395633 15.923807565376398
Ag 13.863142707309603 14.15880825655114 10.78461157427683
Ag 14.230105416958429 15.678397362506335 13.397827533461916
Ag 11.835498115330145 16.783162938958892 14.3847281782626
Ag 12.940871334939915 11.844934600146892 9.286782800415441
Ag 9.78278486333693 9.848307631881251 9.608054448572496
Ag 8.749224311833029 10.659579435314352 12.193487703090025
Ag 9.990341386289222 13.069763660407078 13.66858077414067
Ag 8.225165314763446 11.252411696473558 14.902478654798433
Ag 11.026396332647009 12.303065924629914 11.175209336758504
Ag 14.89586671234536 13.267893433345323 8.007784774275835
Ag 13.976476706873655 15.932428398863618 8.62485869499818
Ag 8.066471470805595 13.942259184235422 15.465584016652247
Ag 11.636566229540115 14.939149940987862 12.363085722535404
Ag 12.963142771264863 11.67805557278849 6.456532898558802
Ag 13.287738732832759 16.959972272546214 11.18371500551802
Ag 10.446781818197024 11.888354380049277 7.865581347925545
Ag 9.229909185395877 15.817452683586044 13.725792464689222
Ag 8.477680463029955 12.342970382888979 9.96264344313782
Ag 12.156062437949181 14.097064508108389 7.574054595235
Ag 7.424454948058936 13.21517126830484 12.70007253517662
Ag 11.371442971307378 15.699671391128048 9.675885211277246
Ag 9.12636822162683 14.801091332890246 11.117750316451149
Ag 9.374019315331216 14.43165124982683 8.28590170022409
