40
Energy = -86.16390553 eV
Ag 17.82265468885436 12.454089820830692 11.107124597005287
Ag 16.26554745073259 12.408678347730655 13.46068897439587
Ag 16.026943397808797 10.360546830657057 11.548379680554948
Ag 15.878406399578864 14.482092984578298 11.449781578084039
Ag 15.38473662453344 14.943904286142937 14.294935006030482
Ag 15.487449983859028 12.359213040685571 9.5729719845863
Ag 14.39379022075519 10.204149694105926 13.819883618960985
Ag 14.330890241086005 8.099768640030385 11.967397940690459
Ag 13.856391184312978 12.543782021932822 11.931882766875045
Ag 13.789941491210536 12.717119353518882 14.865306613752436
Ag 13.619343066036235 10.243108937058862 10.121760061858906
Ag 12.267849092545847 8.224829526334096 13.893025621142282
Ag 13.505912450748456 14.427140307429818 9.768062678856005
Ag 12.659807953410477 15.237328242456913 15.239771282195846
Ag 13.113179271268969 12.210318537252116 8.06619285099059
Ag 13.396955603855218 15.387287753863927 12.440989467136035
Ag 12.346631856930227 5.965621302702723 12.370458006388123
Ag 12.092359555641625 10.534296434353884 15.381531238777205
Ag 11.887335704132553 10.650161681754213 12.487327422757664
Ag 12.013604597117396 7.967635197398784 10.452117704464618
Ag 9.650542756772666 10.755857385060684 16.71994713254459
Ag 9.974772543088358 7.485016485259072 12.445763717488525
Ag 11.395323371160913 12.371594070241812 10.349612583043662
Ag 11.35534936149239 13.39467379713255 13.233060051088936
Ag 11.304444894164464 13.006594847656341 16.248206034845634
Ag 11.069268414912985 14.288796732355168 8.251081800417202
Ag 11.402597777244502 9.954172648554703 8.45764435545013
Ag 11.056564474298021 15.241673803666671 10.880189776983627
Ag 10.656749813076464 11.985544821137399 6.697337152201603
Ag 10.940227597012788 16.3782031830529 13.378989199732414
Ag 7.698668320665702 9.389143569256998 12.290146503041555
Ag 9.728639053541459 9.792062926444544 14.074428574606134
Ag 8.966464133721232 11.954925729998761 11.875743560319552
Ag 9.674388905748701 15.095703197129863 15.467913021813413
Ag 9.847660555061356 9.642226672616099 10.6789455274535
Ag 8.994978177386544 12.476744896320104 14.638363422024108
Ag 8.704601150081858 14.116213493920965 9.973347433686314
Ag 8.989090406378214 11.57451729077004 8.922544256602489
Ag 8.815245206322013 14.633454102238408 12.752211698921814
Ag 8.54120796578985 13.743417573633998 7.1947023225969815
