48
Energy = -104.23178343 eV
Ag 9.827415374440907 8.116094150071493 14.248068298024677
Ag 11.74031960859368 9.928054003076596 15.574831602019085
Ag 8.475751433704955 13.395540637837774 16.2440568391082
Ag 9.10105589643481 10.697922712171142 15.495563602260868
Ag 14.407035110765724 9.435454187984632 14.852457233117265
Ag 6.8773971452385805 12.04155682826803 14.459969504984917
Ag 11.076613562003686 12.41080320552165 16.84634328000133
Ag 11.314530423376862 6.124568293678333 12.189732370392184
Ag 9.845696131389655 8.298697619850504 11.37679697607443
Ag 7.845634038515826 9.75736675503867 13.085504832443958
Ag 10.530336019418069 15.254846115047709 15.87220349564384
Ag 12.450027444517941 8.354150403593158 13.231827472850975
Ag 10.60282086797321 10.524509918154168 12.91157262449935
Ag 8.617923259170936 14.947188824068167 13.733855959788556
Ag 13.80760505496966 11.763005554557907 16.505158234306176
Ag 10.526678996022307 12.973622304780426 14.226619638713851
Ag 6.033782386655748 14.197799102834814 13.000953890572898
Ag 13.099325226080719 11.745087793430912 13.800610010486974
Ag 15.213637372498725 8.181177325177188 9.309879847141154
Ag 15.519331815635548 13.11570429303505 14.568129388278034
Ag 12.502707330172132 7.946201310317898 10.333479337731665
Ag 15.09748325387017 8.375442854324364 12.066061311012113
Ag 8.231366886439998 10.407056602766746 10.348918207240137
Ag 6.081134082415039 11.591805991901927 11.80607130674603
Ag 8.661662342534958 12.544556051812304 12.172841743312759
Ag 15.76254112309704 10.906272045627729 12.960605965053302
Ag 13.262498981773879 10.413636168811985 11.396163151790024
Ag 7.075136889601933 13.940109543489605 10.397625842176945
Ag 10.92643456171733 10.346266706661705 9.720961053788391
Ag 16.433800618021195 10.432716895859903 10.392135458048026
Ag 13.022529900681812 14.205814197294396 15.238980106329754
Ag 13.48178090612136 10.19077294553835 8.570951709517374
Ag 11.557438826335392 12.780635306847673 11.515184631595238
Ag 11.496174199507287 15.386856454747072 13.107623559104765
Ag 9.389694612463666 12.736907893080394 9.349396061857657
Ag 9.645852794771931 15.035596834564302 11.008514589375755
Ag 14.060304991058379 14.262457487872567 12.467625689381
Ag 16.182154107224587 10.230728247703881 7.631570861082667
Ag 14.121775608907354 12.671093614024796 10.063285896004615
Ag 16.56913466639879 13.147810477970221 11.642436174793172
Ag 11.91391449698168 12.563470132514762 8.276601316119734
Ag 10.60833289465625 15.087416627333663 8.351500737893149
Ag 12.467701057512517 15.239101204222345 10.418420658924044
Ag 16.863941223876374 12.74436264030266 8.881423946345091
Ag 14.536434362239003 12.422648190912604 7.188003645871746
Ag 13.353320343505091 14.925724070248918 7.7777196404041
Ag 15.393486505142647 15.076326604080721 9.909282105496084
Ag 16.06423414500434 14.730451943278322 7.134452089376875
