45
Energy = -98.16820533 eV
Ag 13.691564350443262 8.88094059320546 9.6996743557465
Ag 11.224010697478642 13.106301536946605 8.366045554289522
Ag 6.59288716801942 12.142944537944842 9.90636175339838
Ag 13.511499546782042 16.403681344145365 11.256968996402327
Ag 13.726427919174943 11.549414346045356 14.131913426036085
Ag 9.032299684267239 8.774448910386768 9.813196904918929
Ag 6.663938818415612 9.65955741711409 11.306075125297033
Ag 8.916775378158942 16.288858342183637 11.37294902652755
Ag 11.34843624037836 8.057860378615874 8.351758008424039
Ag 11.19979261477911 15.54457426253585 9.879929413317202
Ag 8.979006434692861 13.896190262930315 12.851989889432108
Ag 13.588605794049187 9.015983136188801 6.8889429266902145
Ag 11.458265956509933 10.634951756877028 15.60644276179671
Ag 11.297478432037064 13.065722599411703 11.288819299015927
Ag 9.106016788248034 8.738501215644193 12.658626392474678
Ag 8.92755812490628 11.43841667956291 8.312929795953767
Ag 6.667289180814907 14.541478584229868 11.364922345257725
Ag 11.363196158577189 13.09871573841141 14.221188223477379
Ag 16.08360035461663 9.892337005574204 11.079154398665715
Ag 13.570324858447547 14.03573230202043 9.653854829859075
Ag 16.054591906329257 12.355475052800475 12.522805563333357
Ag 11.39073090034385 10.561487441080159 12.696953391696997
Ag 8.99665269910097 11.356779987652216 11.296598531591425
Ag 13.674645504217368 11.470788368080079 11.166220498092962
Ag 11.269742035363521 15.56167085860588 12.790749164517653
Ag 11.414983515900646 8.006072758094692 11.201932761484844
Ag 8.90352466642131 13.91515240337114 9.78535861283583
Ag 6.639611734535883 12.11508452551159 12.76303173351287
Ag 13.774854556008053 9.004922294799151 15.375433623057924
Ag 13.639505336208504 14.012636835832888 12.723688234977347
Ag 11.321770543277815 10.578723733429898 9.812158606592218
Ag 13.757062852574087 8.851956364129267 12.54263362520579
Ag 15.843153705967627 14.772132486219794 11.124080534259058
Ag 11.252697539075012 10.607440117665776 6.955108075009164
Ag 13.599844023941548 11.55736274219226 8.185524808767859
Ag 9.07507605735101 11.428217871672917 14.261657267958599
Ag 8.999189479318682 8.90214096790542 7.001951666963456
Ag 6.717856565183431 9.712637745842219 8.502363527321132
Ag 15.89318933793857 9.930946897275938 8.28571608770529
Ag 15.970691779891224 12.37308061661902 9.668925049312811
Ag 11.488295040792085 7.9786587423584745 14.028216861414522
Ag 16.004418960949355 9.906955776693755 13.876903726964944
Ag 6.873883001067117 9.66782386507513 14.100361567809895
Ag 9.221314692043318 8.87873863390718 15.490149277987948
Ag 11.557092108127781 8.116819471573416 16.81386540149283
