49
Energy = -105.95940091 eV
Ag 12.41035037610815 15.117896576974085 17.004613217062452
Ag 12.757469277221976 15.784494447476492 14.23988042127759
Ag 10.580345301696745 15.48417578332033 12.196433604137688
Ag 13.098063605284654 16.382836102871178 11.474911088960576
Ag 14.622603761401942 14.037053726593673 18.279147115040022
Ag 10.252051157010671 13.367810862916654 17.420230445065133
Ag 13.012041623896307 16.780253681323998 8.727230260099834
Ag 10.283700162648861 14.732415239957863 14.971915594834238
Ag 12.577827422200851 12.914220452340539 15.300414440287591
Ag 15.291052217807513 15.576620673572657 9.928191446413365
Ag 12.661559224392565 12.035629775056872 17.947885983997573
Ag 14.975275630839347 14.69188271475097 15.606282119105131
Ag 8.322641459678223 12.69486770400757 15.505812951799948
Ag 15.25642201268905 15.178299731525613 12.798426670338218
Ag 8.555023820244582 14.946007456379336 10.271608497904316
Ag 12.656777039614306 13.602754103888355 12.488889452054346
Ag 12.248772466245953 14.29205256991982 9.745231395842744
Ag 8.310564331954298 14.113726233799323 13.015303161949687
Ag 15.283760966086692 11.977233501796361 16.562902171198186
Ag 15.010402171417923 15.86884842209929 7.0542642159984235
Ag 10.075259200782364 13.534942403252307 8.048358076393454
Ag 10.51943027489774 10.893244898289337 16.254431335737138
Ag 12.441066315291945 14.604864243295616 6.9278102588636035
Ag 10.35004606454673 12.095301180581046 13.623341849882088
Ag 7.845850975259615 12.370015087635498 9.302227010161541
Ag 8.524766445550632 10.132159557511729 14.312068006244797
Ag 15.221385796053633 12.558606558142207 13.787938931319164
Ag 10.104254027292113 12.843554573301759 10.957031965846578
Ag 14.720053425272686 13.408326949468458 8.21637153486029
Ag 10.055148053562647 10.73755676683514 8.7569594989202
Ag 7.581061813485318 11.618625366363114 12.048621747652867
Ag 13.257830106257794 10.119093337794363 15.836615609323504
Ag 12.390121676819254 11.911209269530602 7.753328343205301
Ag 14.984884553458645 12.989779767727544 10.959685181135628
Ag 15.878445158594877 9.974910266187695 14.694674285982138
Ag 12.922934440624775 10.921131042368533 13.18249888986743
Ag 12.474278546705563 11.438456621988765 10.528196717724287
Ag 11.11827304172118 9.077892314863536 14.102146570434304
Ag 7.713364324554992 9.635610277460257 9.849923882970641
Ag 9.791327526645356 10.002390927765557 11.694058464124218
Ag 15.403464748383833 10.411845489947812 11.901722866918707
Ag 13.912930304927043 8.321007585156991 13.54810638467878
Ag 14.811660881628722 10.743540561996967 9.157716144677009
Ag 12.480635975970994 9.207683406905447 8.725876055159969
Ag 14.631653472896268 8.140854115097683 10.511699015923355
Ag 10.030436940494425 8.055331399864674 9.518570979894147
Ag 12.063686373331567 8.506696533148707 11.499152519977832
Ag 16.525270576487255 8.04361245979938 12.6609396056774
Ag 12.449462296731769 6.568364643819641 9.546041379747736
