49
Energy = -106.25998584 eV
Ag 16.161013069066744 14.481826255045798 15.354032580267745
Ag 15.151288834737421 15.841645676360299 13.126985565369205
Ag 17.837733898932004 14.958674931624628 13.079277350431147
Ag 16.739326586306056 16.367713481730384 10.842036267559353
Ag 18.74394114347309 13.505583979025822 15.36535963658309
Ag 13.912897207495385 16.688757671410553 10.792278187368465
Ag 13.579827642072972 15.653991855681058 15.581961472919703
Ag 13.9180010519635 12.816238144576152 15.905031881865488
Ag 16.696084994928796 13.637850798188731 10.877271364624699
Ag 17.89066211317099 12.14548221258562 13.094602836874296
Ag 12.523266111230601 16.961626484713612 13.260021985654326
Ag 15.22251685139514 15.006272562818014 8.82598748666166
Ag 15.153602008368003 12.81549055089387 13.126828344288024
Ag 13.62260193376861 13.751890014895245 10.700926710792192
Ag 12.44749333426724 15.865830134657823 8.588280987925089
Ag 16.517952505132367 11.679954804190823 15.580154413023106
Ag 11.303004038374766 15.47118938682153 11.127110913932913
Ag 10.793048674182792 16.384297946496236 15.413258529916156
Ag 11.17529143782862 13.687103246780449 15.785107105397518
Ag 15.178493257804472 12.105835750366134 8.993082333225315
Ag 16.768067500810037 10.833943162628014 10.905571892532437
Ag 12.747748646502366 14.209967699909171 13.388560974700836
Ag 15.894283783988085 10.025469584226945 13.408234377819342
Ag 12.62417575250491 11.432309526531027 13.812122923495151
Ag 14.129073735995124 9.971773801023291 15.586423461185998
Ag 13.039947436536977 13.279906267180005 7.7345573662917175
Ag 14.964783715034748 9.37814494586485 9.365844036617105
Ag 11.611757261605142 11.085954030894758 16.498001669896126
Ag 9.90566493408942 14.65220512512589 13.4118887978797
Ag 9.863168504897862 11.495323733093045 14.076389308407261
Ag 8.503984373578264 14.786480212076524 15.852251075418389
Ag 13.533523708480864 8.597277973352766 12.985221716774106
Ag 10.630613232309495 13.75124978907916 9.066354319813527
Ag 11.203826924999472 12.58931755831374 11.682448354533241
Ag 8.947689851463185 12.081904941369006 16.618272694796172
Ag 13.866199197951635 10.91889318657628 11.369231985810954
Ag 12.590052630119912 8.320182520899989 10.35703776840745
Ag 10.632719452425421 11.845585322821027 7.082397925351932
Ag 12.284018854081694 10.893505038707731 9.117573943690601
Ag 7.4829004684594995 13.2521155257672 13.67307978007644
Ag 11.361283950370268 9.027253532036315 14.660712406938787
Ag 8.694585222864925 13.594894322075433 11.130220867479583
Ag 8.827117082832707 8.779430862180828 13.51801918100676
Ag 6.335123179209978 12.964670487804606 16.172378234509207
Ag 7.196526029588678 10.675634770620286 14.767052328895526
Ag 11.058649017561356 7.217732281251701 12.510209618015557
Ag 7.997733901739096 10.99762449530715 12.001250421872069
Ag 9.508820226894455 11.263456276947592 9.63887077952245
Ag 10.859304777983773 9.88192718685207 11.821615882960453
