40
Energy = -85.15321016 eV
Ag 15.805312939006493 11.614654439488957 14.049494594616965
Ag 14.50342641014543 9.444270142505125 15.285438576742838
Ag 16.756048149112452 13.55754780515955 12.289147582674063
Ag 13.486960042177174 12.066891199649158 15.525408284689336
Ag 14.872724444018303 14.274632788576149 14.340999233673609
Ag 14.741469223331478 9.525118782257334 12.523768780917274
Ag 16.967094882541293 10.891792029666586 11.559222018498907
Ag 11.895748785097993 9.639467364760728 16.12547139230401
Ag 12.55612599053367 8.106632658090573 13.693369115772025
Ag 12.152891107762937 10.851089337340834 13.285145599935314
Ag 13.82204229193415 12.826354817682324 12.133551214183164
Ag 10.649622831660754 12.068340783979286 15.574842170095982
Ag 17.63119694683834 15.30854506636587 10.29478136171629
Ag 12.68648818570733 8.911600383506443 10.810568977082092
Ag 12.011240759904839 14.118139055388351 14.324595004997239
Ag 16.103344438042594 16.20361090095095 12.605984973007663
Ag 9.0747935771216 10.098774009070107 16.641403077498914
Ag 14.68342476956895 10.662824489816256 9.95060577720153
Ag 16.483298951543766 12.83030318787868 9.577469747235076
Ag 9.941682759796826 9.095124789245574 14.22177245113601
Ag 14.887019842214748 14.990347998836224 10.381771010168956
Ag 10.459617256842535 7.706330634262782 11.805833620024885
Ag 13.324891241683993 15.837066047318844 12.553264025432565
Ag 12.57727145301951 10.526520907784453 8.066169885553586
Ag 9.099969826923347 14.189577365417845 14.645120030296084
Ag 11.811966768631521 11.6055325584754 10.503872813522289
Ag 8.264893118570676 11.332417611804125 14.210224026248637
Ag 10.268550101334231 12.849232206006274 12.477128989512865
Ag 13.776536786189894 12.998169718123792 8.768133401811587
Ag 9.380329326365302 10.24901425540661 11.759658836717392
Ag 12.086392494261784 14.517865517158473 10.406587829826375
Ag 10.507591559333083 15.670672562245548 12.455365707735
Ag 10.34530591320303 9.168056655644987 9.300525714993812
Ag 10.034868167693999 10.740930856094574 6.939214200532611
Ag 6.424842623313521 13.398711334982575 14.002833540714354
Ag 7.793202260817147 15.103567264681656 12.29072848942957
Ag 11.031884574331826 13.08618536155916 8.140710610910507
Ag 7.555972435614739 12.400830700512113 11.62830992716313
Ag 9.325965252322126 14.28820349071598 10.12356654413131
Ag 8.968325910926454 11.624408164800496 9.347408755410955
