48
Energy = -106.04895033 eV
Ag 13.508173726737907 12.335184117557075 17.044152650688094
Ag 13.90089154859546 10.025573425899331 15.363711086814332
Ag 11.21798229468606 10.779133759117085 16.286765712704693
Ag 14.259019937524076 7.80695202826938 13.54006359291809
Ag 11.063362885144114 13.65339224841511 16.386463306353882
Ag 11.584900247831204 8.437690248124097 14.484129855763406
Ag 8.969848212380919 9.256827865015282 15.332122955634638
Ag 13.797066184850882 14.733245921028706 15.504595503376501
Ag 15.806015795580752 10.219906132154101 13.071545217895672
Ag 12.701179358274917 12.419361457701157 14.434988580958066
Ag 8.769027664621891 12.122753777184593 15.580044501384842
Ag 17.2050807016271 12.701145303039675 12.582852948269496
Ag 13.008292554062853 10.137314620943327 12.685855602153644
Ag 8.636568180323092 14.965183150620843 15.638287321568136
Ag 15.597163205613159 14.94779404115651 13.302913489922393
Ag 10.33344902865115 10.886623472275943 13.579994614972444
Ag 12.057471212310485 7.6238424854328 11.704112153936853
Ag 11.31929795346703 16.087265738043822 14.978202697189332
Ag 9.31272053399767 8.35996798262975 12.627155062296255
Ag 14.490455407042333 12.603007183437299 12.292361280058962
Ag 14.639508689053667 8.726378627751656 10.819601429239489
Ag 13.85847443920253 17.11261169321306 13.9208941778191
Ag 10.107250240795832 13.87186437641338 13.644330893260033
Ag 10.768496389022944 10.07765420027007 10.83146090030352
Ag 15.981853165549273 14.136233276840555 10.425048076608663
Ag 7.295046963063565 13.384636007760012 13.519319479948035
Ag 11.723001351333059 12.506303970617411 11.805437634435568
Ag 16.146544435876265 11.259079021852463 10.349627381205792
Ag 7.538451776228737 10.574682624080749 13.22220835912081
Ag 12.713994360280747 14.924658534230081 12.803645389702487
Ag 14.911814291461463 9.816270737485892 8.184305553953143
Ag 9.851051912439395 7.665506151028266 9.886346272551586
Ag 10.470031548232182 14.817057064923002 10.951332014089509
Ag 12.390942526588487 8.64791434054034 8.931914622022123
Ag 13.103173335884362 14.154387318446306 10.001061776940489
Ag 8.931289606363322 12.405495751588415 11.389466750751206
Ag 13.324789196375828 11.169258331986256 9.981313116391405
Ag 14.447084328064824 16.41063529595905 11.118709689331885
Ag 14.68432833400908 15.533774387393809 8.288092258033615
Ag 6.268836666041123 11.942793909476254 11.097771627252968
Ag 10.790434858697646 12.576827133177186 9.138826079128775
Ag 14.889576265003445 12.698611508240466 8.19607075339732
Ag 7.973235174750559 9.76322330037687 10.499278143382714
Ag 9.940179093606384 9.940325442633501 8.132014141141248
Ag 12.466395935966089 11.019066367666715 7.284782860351312
Ag 12.49180368977435 13.851683816967698 7.224047528525441
Ag 8.046206118625625 11.970083263216774 8.72086314062969
Ag 10.039624008457215 12.27220392188945 6.543297149694053
