42
Energy = -90.10295569 eV
Ag 15.451252438671139 7.922602980956479 13.450514735372051
Ag 8.618854871887418 11.49056870219548 16.596922288201725
Ag 10.96976008478852 10.138682372725897 15.858298105258676
Ag 12.955000655504005 14.673751055589081 15.187253388829863
Ag 15.211888154828664 10.977972509060981 13.550678526218356
Ag 13.45909594198154 11.85648626291338 15.675150845718447
Ag 13.259527925053828 9.119439170322803 14.677345966791188
Ag 15.473172667819014 13.507506323817422 14.557338200613188
Ag 15.043121362672212 16.06433572993846 13.707853570280486
Ag 10.829586521762709 12.951709651189939 15.632400144086667
Ag 15.331454943175324 7.017802360931244 10.8533228101429
Ag 8.291959650970288 13.486958800891456 14.612882035036455
Ag 10.33969672834135 15.447197848464468 14.382775621207745
Ag 13.587621212697638 9.519397578720897 11.870153154501587
Ag 10.798397156722618 8.715263352113423 13.077890573063009
Ag 12.834245264982757 6.92039723888314 12.118963022308515
Ag 8.982217033876339 10.802184621369214 13.950556095687716
Ag 16.414993671453946 9.535291334858655 11.363459822755772
Ag 12.485075615583986 17.11200756029083 13.81385236899997
Ag 13.332347763456756 13.451156560211231 12.613118584241642
Ag 11.899310603021489 11.224980672676839 13.439017758378737
Ag 9.515186415172122 10.488202679138219 11.244404420204237
Ag 7.611683869374412 12.425478232458067 12.080888501257869
Ag 8.302115748101205 15.246169331317558 12.385596774192605
Ag 11.455078249967519 8.700191206639438 10.243766018695572
Ag 13.140794196586073 6.724448161978768 9.20974658607627
Ag 10.392792606600317 13.355326370950516 12.49407442745665
Ag 10.832406790366582 16.331866831482134 11.754916814949366
Ag 12.008150851035786 11.770324363144884 10.704329777930573
Ag 15.76540070159525 14.279517568752256 11.672611910859642
Ag 13.645367303079906 16.220587833471132 11.331613578745285
Ag 14.506938443165472 9.204694828278829 9.225369904610208
Ag 13.666536283278504 13.988906374248199 9.664608277354413
Ag 6.719930292056201 14.338953188647311 10.257980498956115
Ag 14.897827273658542 11.750481133255766 10.69352754783893
Ag 12.330380838673195 8.834578535593723 7.5096028781675255
Ag 8.650346853089715 12.511072237317594 9.443950250296641
Ag 10.498597806305513 10.680317632489869 8.549479441318049
Ag 9.297838412114567 15.204523945084294 9.70979033130681
Ag 11.115830135278124 13.468427490159392 8.506261849919028
Ag 11.892623943334808 16.086343168415457 9.1486394515816
Ag 13.233322262482734 11.501625743624178 8.226822685157304
