46
Energy = -99.31045497 eV
Ag 17.083806754579076 10.003246035887377 12.472639544990729
Ag 16.73679738073971 12.161150912037067 10.837458746920653
Ag 15.8560400335509 14.717048589741227 12.115389322983372
Ag 15.238914693376078 16.847802101685676 10.48539104101973
Ag 16.192991444659732 14.413757125661395 9.345309359567478
Ag 15.306585808994583 9.68154244727101 14.696117241766322
Ag 15.810009195522174 12.33183324851318 13.547574465612357
Ag 15.354765600575993 7.845193277156333 12.437950800740465
Ag 15.460786743371102 9.541466848818127 10.002866825950129
Ag 15.125448469178547 11.91844578896121 8.359786320279971
Ag 14.486044307323002 17.03310728682254 13.178678675227182
Ag 14.180540004125966 14.521949346110752 14.38748508188379
Ag 13.78935050414853 11.89152113262821 15.479785820577643
Ag 14.010914107652033 12.947383677903213 10.619953515719233
Ag 10.584657061918657 8.116225875122245 15.362415153035682
Ag 12.91695088537138 15.390187129635075 11.552840579216857
Ag 13.630998080035482 15.284402385686548 8.824935108734302
Ag 14.166695482409764 10.469230820501698 12.22602548803541
Ag 12.356363772152331 12.900340068427353 8.11803281339752
Ag 13.002413806406457 8.140798999650324 10.99542389809309
Ag 12.922686498674572 8.437829596543768 13.825988309827496
Ag 12.610449018074625 12.69424602093671 13.026989618456247
Ag 13.028940522531991 9.311010711937646 16.446961554240456
Ag 10.910156278138997 15.119026237711083 9.291642060872741
Ag 11.140547125106345 12.723215959290263 10.65066749477739
Ag 11.515538309616641 13.612861608792896 15.407399936441916
Ag 11.870909547449697 16.104143439358115 14.052484811616779
Ag 12.77101032394582 10.511216379034872 9.532842947541955
Ag 11.253916377877491 10.805274856783418 14.920776525784916
Ag 10.553681632008866 7.561392235898034 12.560117489302216
Ag 11.328447817373307 10.296103140749148 12.092861704511263
Ag 10.146767010340454 15.087073654089533 11.994102242755135
Ag 9.639389677020537 12.44841898324135 13.330371584042389
Ag 10.042556982181436 11.155688379509302 8.602080100079478
Ag 10.473576601781152 8.627497338879325 9.919364734432689
Ag 8.911763501621877 9.582528384488258 13.64889366388127
Ag 9.31254060114088 15.11244399517907 14.613501832543562
Ag 8.701695730728282 10.828218353179023 11.043504920861391
Ag 7.97030230133713 8.949614244664337 8.860683615006339
Ag 6.945485298816203 11.472946592901678 13.13452847940822
Ag 8.564334423591829 13.647635661447117 10.072545858876543
Ag 8.02379247017426 7.9763689734996355 11.487100957136418
Ag 7.513058086317392 14.217820287752064 12.667923188954324
Ag 7.228501995491505 11.574953247024974 8.699884581542024
Ag 6.077064725916973 9.899551453844024 10.902320027317975
Ag 5.965370002433538 12.772452358172439 10.881408526281476
