48
Energy = -104.20165586 eV
Ag 12.68273668519876 17.117479263834948 10.599304120205785
Ag 11.409104459818007 15.301972608480586 9.019811373556163
Ag 7.822038420651922 15.538588723415593 13.083968441868805
Ag 10.221906932710011 16.03097763784615 11.58109430085802
Ag 10.265080562351311 13.444969197994459 7.3682989888259804
Ag 10.126387695810273 16.045634948667328 14.60143408321511
Ag 8.054574440570963 13.964054940569774 10.680492579781067
Ag 14.312235951927553 15.588871990064346 8.888075980033982
Ag 14.92166518273365 15.574792945998306 11.682890052336694
Ag 12.548674607183928 16.604524574707394 13.2675914470843
Ag 7.06548879081986 12.78316263694291 13.178269497804115
Ag 13.100537853865823 13.240012786163325 8.119607800457018
Ag 12.497912276499543 14.211675021076855 11.550712114656632
Ag 8.686544595581557 13.677581879959568 15.348497408407665
Ag 8.592210805766484 11.534775566037812 8.653847505858392
Ag 9.804172108464796 13.572018399323042 12.820539912737527
Ag 10.700699998828684 14.648696611954355 17.001168635959534
Ag 10.49816510907425 12.82378363274105 10.130371783043744
Ag 14.842630462880207 10.864075713855199 8.552494650240002
Ag 8.520677118789362 11.1407926252964 11.444306766642086
Ag 15.149312373404626 13.200727881840916 10.151382650381363
Ag 11.450022596400231 11.002356249481934 8.001030018130752
Ag 14.813766020981534 15.36262127740927 14.45107598822266
Ag 12.76345195722439 16.351954447456695 16.135327086868983
Ag 12.19544824572398 14.092698342565157 14.468187361984402
Ag 10.234844019380223 9.50227333136437 9.96799788685816
Ag 12.91919326484463 11.519212332112904 10.408619009234027
Ag 15.361866128972936 15.487966835595516 17.13397695526692
Ag 14.707648041596773 12.932241872129659 12.946132605945962
Ag 12.925637021379998 8.85646188455248 9.091965432830182
Ag 9.123450177057276 11.048674599311067 14.171760649665325
Ag 15.267298411086355 10.562312700040156 11.442110295645767
Ag 11.861200031166526 11.760772779011344 12.979299657322985
Ag 11.033823489922552 12.058393824734571 15.92809116045586
Ag 15.855456302138018 13.088393082109038 15.670954934226735
Ag 13.33414634666044 13.593748196528963 16.975952577348398
Ag 9.630080460436403 8.717413950966177 12.62003947153028
Ag 15.628837859936377 8.336579727228207 9.712793681817946
Ag 12.276639870688836 9.275780039939216 11.888570478745848
Ag 11.46011438697933 6.947313221155788 10.574324813425164
Ag 16.256084099078468 10.78729105575317 14.08777937784223
Ag 13.668428228542357 11.410668142113783 15.164765145616528
Ag 11.498897793831501 9.533546140900345 14.694345804025064
Ag 13.799101115682067 6.223558771430031 9.09200996314518
Ag 16.57880994553927 8.385151947577189 12.477911528457156
Ag 14.193772363667827 8.930527362329444 13.848823664626805
Ag 11.964990670841965 7.0336216474879505 13.444430364821345
Ag 14.163133995312807 7.078195929949247 11.686463269988
