49
Energy = -106.13070588 eV
Ag 11.946334200232299 15.275436653065592 16.784482953590846
Ag 12.74438402835752 12.612509412869615 16.52858274680288
Ag 15.476725105993056 12.103242326038544 15.952015661927659
Ag 10.006218724839368 13.434456305193862 15.832490213121744
Ag 18.199146337067802 11.5261610880124 15.687168928027445
Ag 14.50671881024754 14.793412569416445 15.544134931266292
Ag 17.176364302088512 14.0110424071866 14.813179776442094
Ag 12.634358518505737 17.095320232035323 14.78688790477077
Ag 13.59827942837256 9.918894647626304 15.758130287643034
Ag 11.035609896241386 10.937674120124017 14.967996587855055
Ag 8.219672959852831 11.554753505275382 14.739068417264573
Ag 7.926080878422693 14.387259677229219 13.998662838687528
Ag 9.953694628092087 16.107827457851656 14.954636457906497
Ag 16.408106866743214 9.468080094997108 15.425548729585485
Ag 9.992480091419853 13.005639830155527 12.957412725468066
Ag 13.480752472480885 12.027063393760763 13.929958425781415
Ag 9.421411921198334 9.495782075233379 13.2020078118521
Ag 12.215545205724675 8.624868828713494 13.511503008779908
Ag 16.718145290063028 11.630654531601616 13.294633498929635
Ag 6.658490519434908 9.714233366061524 13.25254576029014
Ag 15.131515911706417 14.100098708809044 12.897773313469287
Ag 10.51536472488065 15.944449574426047 12.216036713059204
Ag 12.159193668070241 14.47013598983174 14.041916053979481
Ag 14.490416335049066 7.45519496225475 14.831886576551907
Ag 14.8794809052527 9.552782945434176 13.096704643305774
Ag 16.73886274777851 12.94717798154739 10.83911821387858
Ag 14.252501733502987 11.790883986498132 11.314823923153634
Ag 13.388254315167805 16.216959619686964 12.230379855133155
Ag 8.020311644660936 9.774825362130395 10.799910901447673
Ag 9.221564992643488 17.027894808889272 10.033195841628546
Ag 8.256522038638163 14.60796875923565 11.120895836395363
Ag 14.495939818047455 14.656089489930944 10.16261055197828
Ag 12.080977205481839 13.629835655512199 11.20016165857973
Ag 7.381914669156733 12.168303741694256 12.104669413987793
Ag 11.630118661957601 10.926045341805128 12.043538530217026
Ag 10.69649755730389 8.478415814242235 10.939898927870468
Ag 16.244241280313847 10.112881892836285 10.588699836831715
Ag 13.483453019282702 8.933972759601172 10.814297455103182
Ag 12.026889745240009 16.205077755078104 9.796695903202508
Ag 12.232520656039412 11.120191065684327 9.314022841110619
Ag 9.746952035577365 9.85508831561986 8.681231155582735
Ag 9.899628288686348 14.641405345662873 8.857650298320284
Ag 9.558954492356198 12.176487340920227 10.231608155867615
Ag 12.554485648492133 13.806187845609852 8.287243690780707
Ag 12.115404097681383 8.37947405059176 8.419877116269303
Ag 14.989858969834868 12.274459580721214 8.648274135868887
Ag 10.339541962392623 12.312875271711855 7.47145415083887
Ag 14.598660915462823 9.573333681155658 8.324404254350263
Ag 13.054824606726338 11.427748232494944 6.7192080792467355
