44
Energy = -94.49151241 eV
Ag 11.418716270665822 11.519607374877976 15.909686027100557
Ag 13.500834375983247 11.778726036607207 14.068148661062757
Ag 14.710942423025777 11.823723759174504 11.43787217563995
Ag 12.271502372174753 14.202214154198765 14.642769481780745
Ag 12.487114848093002 9.22333010347869 14.576939609173078
Ag 15.104501581446938 9.620818410713651 13.3625514454964
Ag 14.433739731752386 14.18099208229827 12.88492989989713
Ag 16.29373982215244 9.635571099626285 10.76655132673439
Ag 15.583259077080562 14.182120501514456 10.256251338457762
Ag 12.893546386929211 16.56338356739136 13.26839826854553
Ag 16.466950968582477 7.3984654435592985 12.338506895633742
Ag 13.587568106291398 7.430523899279606 12.485876722197315
Ag 13.030089828205279 15.210595650560952 10.711750688398478
Ag 8.493734607999825 11.737142698973912 15.908636166265046
Ag 10.057856144755359 12.671447944616103 13.796550858209496
Ag 12.563259478579642 10.013716948995857 11.89189785424744
Ag 9.957312553144304 14.086996361137953 16.240311831685045
Ag 15.88465316054245 11.715671227088484 8.841841022221356
Ag 11.956985478048537 12.774611090820114 11.748970427426872
Ag 9.675218959389065 9.605119438301035 14.547705553002363
Ag 10.485031154129027 16.409642005753916 14.786986303724937
Ag 14.950973238049146 7.27375251802907 9.987904590486037
Ag 8.320777188889345 14.833350678008575 13.91846605652128
Ag 10.634911304301651 15.228839356429658 12.206241476640088
Ag 7.46794818260139 11.494915178983252 13.2009560337231
Ag 10.735417658048299 7.913855966968191 12.495382868111319
Ag 13.78718355683384 9.95094955414619 9.40093636469355
Ag 12.159201377105271 7.712404518793503 10.036849505285602
Ag 9.832819257904195 10.636642614278394 11.976932935895226
Ag 13.695020604603922 7.884167936094612 7.574413476394781
Ag 10.99554700753445 11.203970037423694 9.606329043577139
Ag 13.295684464177528 12.85231495014113 8.987249313462625
Ag 6.193795012649124 13.918124992953702 12.450738666293086
Ag 8.716650584236836 13.306940298734744 11.319054857338456
Ag 10.780497470745233 14.156481558529887 9.466698452346533
Ag 7.9616892622141595 8.690929538673078 12.358282762166935
Ag 9.500032236475246 8.662886017158922 9.937717290155176
Ag 11.294921585225817 9.234777011338187 7.680972319292752
Ag 13.469292467044612 10.805867157635275 6.838716233659143
Ag 7.532381261517057 10.754016668923759 10.286484402236407
Ag 11.021946429361869 12.282437754672427 7.14735614942815
Ag 8.669694410224695 10.166298821546633 7.7259477305628135
Ag 8.628434205931041 12.775164544084799 8.497100794368281
Ag 6.283920221050539 13.214368664406418 9.800834850704947
