43
Energy = -92.93282699 eV
Ag 15.365466373811266 11.227714832848358 8.617623653619004
Ag 15.494953465210843 13.86139017797678 7.788622216038928
Ag 15.427625377395495 9.518065020677211 6.479394599314048
Ag 13.827151215081829 11.894706715559414 6.433589239791153
Ag 14.384829166888773 15.748182909701946 9.608682971960286
Ag 14.75351241750691 13.15100603453935 10.518361303969858
Ag 14.957710761557943 10.431281665276483 11.258396505047816
Ag 15.351927525203168 8.494429930453048 9.134545665018388
Ag 14.054353495588606 15.098919497645708 12.376593659437617
Ag 12.485970156606337 11.426315309497635 9.846059236685692
Ag 13.000218424405595 9.527636902496145 7.802276880783122
Ag 12.757048650737463 13.8302651276705 8.286923460292833
Ag 11.153059698620485 11.64263778620837 7.330135971778715
Ag 11.663813801356401 15.63573086716774 10.183833742064301
Ag 14.440670282809252 12.388014357310531 13.272865458892088
Ag 11.950432781869536 13.34524662944259 11.85341990700652
Ag 15.162715346122907 7.716225558710551 11.856401559402975
Ag 12.292382074203811 10.535382479010671 12.521294379185148
Ag 14.674136791518217 9.631653141359395 13.91166229879643
Ag 12.807683224395099 8.487585424398645 10.476268315358443
Ag 12.539378686048256 13.96833122892444 14.622510363105159
Ag 11.480162634461356 16.074181761162784 12.910269094036595
Ag 13.167690158068927 8.381805543477393 15.869773139092706
Ag 12.677371231777467 7.7013489614154516 13.177731824730145
Ag 10.124920837162804 13.530377904416902 9.199278291386763
Ag 10.50182138073976 9.461091823521526 9.198409284388651
Ag 9.8286542988629 11.558503558481494 11.330176188248391
Ag 9.37276217135634 14.642077992775102 11.681788962783841
Ag 10.28224016882942 8.528555510017915 11.86430678131243
Ag 9.729326967950973 14.718067216111677 14.545493794882809
Ag 10.789413136093483 12.85645411902336 16.643605512419292
Ag 10.395518088645174 12.005469866558792 14.05850155382776
Ag 12.837360431429628 11.203250925500509 15.387489230382222
Ag 8.59922918943019 11.356305748547681 8.425295576737383
Ag 10.801577247645318 9.142292435192376 14.632901157567039
Ag 7.4951163822964295 12.881877599614219 10.470867002317576
Ag 7.964410600489669 9.658304305819398 10.6073733744981
Ag 7.7566409757755075 13.026805207218302 13.299056711792156
Ag 8.389784450997567 9.950382023750523 13.42386686143223
Ag 8.042796522759218 13.204919490404524 16.09027859536762
Ag 9.013282599065938 10.63511995475272 16.147411321731777
Ag 6.1299460864665924 11.076121217451247 12.176496645645917
Ag 6.419780445060507 11.190810960213975 15.025013430173576
