49
Energy = -106.87863441 eV
Ag 15.91295879857659 9.58580134399795 9.443496132967764
Ag 16.147690317651232 11.807299586677644 7.843417648545287
Ag 13.70979892398888 10.528224908970131 7.617700710171348
Ag 17.056679574418084 11.90962760821588 10.565683783062898
Ag 13.33068570281616 9.089501271793143 10.090122038611435
Ag 14.933937294580272 10.133150410089684 12.244292413547475
Ag 11.70831587090285 8.633309798554691 7.842938188047124
Ag 13.719013778042708 13.389195961241501 7.7054351756999
Ag 12.0561348704019 6.670483332526587 9.814690090950707
Ag 14.268438218802574 12.107708068720223 10.21351936026659
Ag 16.101547641398966 14.238300839595038 9.040037431688011
Ag 11.318551478634289 12.264941996068778 6.710065460803954
Ag 11.899731914158462 7.9880399437957115 12.444083183506427
Ag 9.499968200907547 10.273395263180586 7.729990321552538
Ag 16.726910197520265 12.060993738764154 13.338851831202525
Ag 12.140951086651299 10.763698273441934 11.945171543692346
Ag 11.623916374028182 11.50983647759141 9.263700049951895
Ag 8.497529743213663 7.845426392381515 8.89044841765692
Ag 10.37445172256574 9.136698738246643 10.343086184708271
Ag 13.703910999764547 15.2105384744891 9.95992955472863
Ag 11.289689576886218 14.460884982952432 8.674942333254506
Ag 14.916832818607498 11.25593603316805 15.270375928848784
Ag 15.888136678704937 14.218908118788567 11.783009631319228
Ag 9.735802138805115 6.447574822093703 11.194396247824022
Ag 9.434875446793168 7.081037538811473 13.868516431202618
Ag 9.767155618900473 9.777791716027426 13.24308032481402
Ag 13.848162963253172 12.609733525850407 13.111084257568962
Ag 8.991572214214566 12.831695149026567 8.64451321584877
Ag 13.667027257346328 15.524210532848434 12.730082775394326
Ag 7.646228678412933 10.483148579996593 9.805159948807608
Ag 15.32487120722158 14.228436751131891 14.69532306949393
Ag 7.794463556764171 8.343921168360819 11.693652307568886
Ag 12.316065800267966 10.232829505127794 14.718490026680922
Ag 8.91153111389758 15.3347570083771 9.892678724820883
Ag 11.26242510613712 16.184555349693415 11.310449750594303
Ag 9.573278025216394 11.81761172415497 11.296786977188225
Ag 10.772170569710823 12.429513675372117 13.824192177679652
Ag 7.330134352459697 8.837831160811461 14.451920932841007
Ag 9.787567745256947 9.093355001227348 15.910175591673784
Ag 11.867437457861502 13.540968813880232 11.372032597418116
Ag 12.842683493363662 13.1361279692383 15.701672830961352
Ag 11.401801523881238 15.140910198778268 14.146731312246917
Ag 7.208934921851685 13.22193353954237 10.885563937263388
Ag 7.051730876281789 10.933324182805984 12.562043258567305
Ag 10.617392068406446 11.693858883893485 16.548134687449448
Ag 8.158696472739582 11.383657651138831 15.185389187633104
Ag 9.20803798977263 14.519873300988388 12.534022968321963
Ag 9.145706140157213 13.997477926586003 15.40405800422939
Ag 6.9228335426496805 13.428304043232231 13.73012588149757
