43
Energy = -92.25888349 eV
Ag 14.598815384002192 15.142776380343966 9.781580353321129
Ag 11.821688017391583 15.637765888148726 10.422108227465667
Ag 13.751615383519814 15.801040871281687 12.360458576095434
Ag 13.031148773791651 16.694896769718877 14.867704496986299
Ag 12.705982203298356 13.227949322058898 9.190447798572267
Ag 15.333182878659109 13.505004075310827 11.948697419574167
Ag 9.640989263773124 17.03386054228466 9.300860673000834
Ag 15.324484638982216 12.291198998581066 9.365110441999155
Ag 14.834979483293003 14.515151479042558 14.606089717746046
Ag 14.14411061981151 15.407013126838043 17.160803184103553
Ag 9.166613106849939 14.777706857675982 10.860650144799449
Ag 10.343505592599778 14.615232710828629 8.273587916067646
Ag 13.972067645411947 12.300636440430626 6.842780080571411
Ag 10.972958291383579 15.376099137084458 13.181829519268792
Ag 10.905974780174333 12.591570119874378 11.210294064737909
Ag 14.965408661932269 11.663738195236979 14.05230797182489
Ag 16.257902528965968 10.811417162718888 11.670792656292877
Ag 12.065359593775176 14.241808869187798 15.711091652647116
Ag 11.12167334711713 12.248965055945936 7.12583579962978
Ag 14.288668162391396 12.620880998897224 16.633937065489533
Ag 12.741070212827172 13.15970889139194 13.19461557488166
Ag 13.519793275023291 11.251459839386873 11.287273393568348
Ag 12.040110796412902 11.409713088605232 15.549359284912343
Ag 10.084775408170948 12.85910446808699 14.180293238547279
Ag 12.310548724344926 10.046268095202192 6.0564506026922915
Ag 8.149244974431 14.651047005059754 13.473319231296918
Ag 15.17690171710649 8.93418918929146 13.423855338270867
Ag 11.487564097047871 10.472870463589116 12.9664591249697
Ag 9.103957350035145 12.254175745716344 9.130940036847056
Ag 14.570962989926967 8.713617288866049 10.687397151228742
Ag 14.264494248220597 9.772500689185666 15.96793505799477
Ag 13.292269241607379 10.31012628355983 8.641869474561739
Ag 8.103802648513927 12.341030715873304 11.829001848909408
Ag 10.49923138278381 9.794563898962164 8.254348377818578
Ag 9.485777285942202 10.16807163229733 14.920300845252822
Ag 7.410966159536205 12.096156240752968 14.517788076957968
Ag 14.113439335047438 7.044253428155461 15.151868665604914
Ag 9.28260890320261 10.020694687612874 10.798882196164104
Ag 11.777574342454079 8.908954573110847 10.57621142426389
Ag 12.83373200736875 7.585504007736425 12.734107768878498
Ag 9.972826243028408 8.162293958210428 12.85695274349108
Ag 7.559099320398985 9.76733968755748 12.956654814475044
Ag 11.802086443632527 8.60504544525285 15.114309774144319
