44
Energy = -94.57137796 eV
Ag 11.839029512546489 9.807659746847063 18.194274590543824
Ag 10.710384358015741 12.578916325635683 17.053192590128276
Ag 13.32423878183671 11.621328832078987 16.840045468648217
Ag 10.56314351977535 14.845840097499787 14.921229484786922
Ag 10.801854359921276 10.181463491681287 15.677631825564314
Ag 12.717952900201421 14.475704897030568 16.729448883478206
Ag 13.266131609228268 8.90959909186513 15.842109877673547
Ag 9.344016939159488 12.343693006043251 14.61149909457869
Ag 8.384312569065553 14.3514187590883 12.945714642529838
Ag 14.96442129299988 13.46233668882092 15.50903180794291
Ag 12.205423547585262 12.597156971279473 14.323417852850419
Ag 9.362124010451664 9.885618771801125 13.294934602334036
Ag 11.204298564983327 14.444442451005289 12.218244723374019
Ag 7.143712991469156 11.563536344686595 12.997981610974376
Ag 12.164008889046118 9.76627789266841 13.287583690914367
Ag 13.295062701725353 15.455202846590836 14.1228642392869
Ag 14.623974491171115 10.903906801403714 14.449118985540263
Ag 6.96580322027567 12.860103012962279 10.584199082670088
Ag 9.010753491775382 14.710155883217158 10.219410387508104
Ag 9.613822511596618 12.252554127110894 11.622512861494211
Ag 16.25975166786813 15.209732096499724 13.781146926430193
Ag 12.014694302658997 17.15921976657738 12.250198909921806
Ag 14.815248991696821 17.16514337043048 12.415035495642217
Ag 18.57813798763185 14.329598810860045 12.370381593216651
Ag 14.49094254171353 13.249715354695985 12.681946474714463
Ag 10.583137983717158 8.340703595476871 11.373766341338651
Ag 12.456824375188342 11.883011773482346 11.477133064346383
Ag 11.239481036710671 16.2343102546578 9.676232009868855
Ag 8.138200668580584 10.158973221115597 10.654299669872035
Ag 13.524164124850488 15.252487987286793 10.850690123112361
Ag 14.503030103896082 8.309451296261688 13.243720637708583
Ag 16.94580258077017 12.417409623472645 13.657258783806888
Ag 8.986473360033722 12.343285664636253 8.713236444692427
Ag 11.605106045643767 13.422814318916908 9.349730779995626
Ag 15.373589217406447 10.616490808916712 11.856145227255507
Ag 13.225630038773767 9.189819088689822 10.628166939689287
Ag 16.273829400682025 15.098975204079956 10.982280715971278
Ag 10.776983726625073 10.47304189734138 9.711452448761156
Ag 14.624364084317728 12.971536247258387 9.815589791076919
Ag 9.931569286833378 14.85931246565539 7.593765238720747
Ag 13.130478923116046 11.094065302004049 8.486618367897206
Ag 17.194282684539566 12.432631546639193 10.810149801301582
Ag 15.748208422632043 8.067323482685849 10.708631965540173
Ag 15.764293597854621 10.426036563265688 9.168266650357323
