49
Energy = -106.84368481 eV
Ag 14.321351665586372 7.484708533422378 9.498943272846924
Ag 11.662351790650398 8.234129717416227 9.938846063854406
Ag 13.272360158758122 7.821956398091973 12.247689483833408
Ag 16.020955021221287 8.306282583103119 11.489028315034458
Ag 10.380352733481267 8.226704777076879 12.590722537720174
Ag 8.963473499490194 9.036249952266957 10.214862382887912
Ag 13.397735568162313 9.52905277218073 7.877678468416052
Ag 16.098875727832652 9.969569096791025 9.060188977852041
Ag 7.542111245951351 8.629322005432485 12.580765778349626
Ag 10.53526423705107 9.784377643376969 7.844524288634174
Ag 14.925260777750234 9.802316150112839 13.559865276961267
Ag 8.052970317881996 8.78830859668001 15.229092570852185
Ag 13.876208607537883 10.134908328003652 10.629840745510341
Ag 10.727447532050512 9.387460063959065 15.228890421455878
Ag 11.04087709084177 10.972135275631771 10.326786580265658
Ag 16.76500080808308 10.91345708687277 11.807301015678444
Ag 12.170439414211623 10.356079620786266 12.943200981339336
Ag 8.02912958473297 11.040377033805692 8.516526054880087
Ag 9.35176063338521 10.92203514094249 12.735643682165577
Ag 12.281551780563001 11.600191080774495 6.468383611959196
Ag 15.27022076022802 12.392661544822149 14.831019460102858
Ag 14.796893354180542 11.974431957667091 7.50812957600045
Ag 6.890864687526234 11.138575838943932 14.050192325318617
Ag 8.66343460844456 11.278688246063043 16.293060583706062
Ag 6.870674608110756 10.832447421887275 11.127869618221755
Ag 10.263781837686642 12.636899385509016 8.011723417426435
Ag 8.898965743952006 12.85075329314037 10.495598970859106
Ag 14.134514561095322 12.37074115512991 12.257125796227337
Ag 11.245944559345197 11.201447953111128 17.432069572832702
Ag 12.443461357639782 14.282131273769908 7.327324155123938
Ag 10.993901628636651 12.095753639803597 14.76109720808106
Ag 16.05356987856784 12.7310933816497 9.922720811142716
Ag 13.255504850367135 10.621542406220119 15.620489229545946
Ag 11.345964946634542 13.065927003897992 12.118619129886744
Ag 13.11012820974155 12.854064715958945 9.651322712294155
Ag 10.12254205895269 13.749795159091118 16.851103926610225
Ag 8.504614343214634 13.491472083584597 14.515844700547794
Ag 6.288833903370319 13.047219603624791 9.568333282036358
Ag 6.844049662219221 13.410600279142148 12.340417302985038
Ag 15.034669183028898 14.68843153858469 8.27208319966801
Ag 10.81506241092818 14.750353297415653 9.711547566725526
Ag 16.55120445370348 13.629317025668326 12.628419796234805
Ag 12.971002403706779 13.46193326965426 16.226208355736013
Ag 9.327515747463318 15.000333961570794 12.246976643772031
Ag 13.966842892183207 14.70129355624399 13.835502644687347
Ag 11.18586898076138 14.864423912124092 14.428212989768332
Ag 13.037681682296268 16.34213700507017 9.291659293292268
Ag 12.151397666746186 15.828672211164884 11.952341531175804
Ag 14.718190544914881 15.030886224601275 11.068446860105672
