49
Energy = -106.24988579 eV
Ag 17.350038055274144 15.487736930348866 12.536737452281
Ag 16.63256418371973 14.31524256330022 15.267058644933515
Ag 15.417188893973096 16.62395750398797 14.233500358849888
Ag 16.37428177942675 13.962243905790354 10.29455158840639
Ag 16.41557944768171 12.875117157229461 12.837983478325933
Ag 16.91653123934736 11.484273555631654 15.281567569974346
Ag 14.764454706866035 15.804040199530316 11.592253656881509
Ag 14.23765758844655 15.428627319406813 16.502513324473185
Ag 15.943407438991196 11.205521897462306 10.561002873426402
Ag 13.421514910967582 17.95109801250674 15.73746479260894
Ag 17.11866605558355 10.075870199340091 12.865787560785915
Ag 13.999909942902566 14.035632202608133 14.029504605764993
Ag 14.641686431055946 12.603493253877733 16.414032793137267
Ag 15.628533517905325 8.096722386765686 14.220166716290079
Ag 14.485279541813789 15.456760686160756 8.767781530937501
Ag 13.055601559874148 17.553061646150514 12.94508694276488
Ag 13.7432483011565 12.68521648155305 11.492489253335025
Ag 14.473988861767808 11.055749739302758 13.788637633225955
Ag 14.540522750892087 12.646510620003337 8.594846317889195
Ag 14.885139072574699 9.742229230264567 16.312756144060558
Ag 12.446647922964274 16.797886728463627 10.167164643978149
Ag 10.983915366226853 18.569515510989277 14.536740126532647
Ag 11.697014825823747 15.870684609464913 14.892418307524165
Ag 12.013040250011418 13.661492009081124 16.66882071804043
Ag 14.777085710121277 8.94858334391919 11.720249819312759
Ag 12.159406109895038 13.9629564320767 9.26275415730505
Ag 12.110418764513689 14.95495794048673 12.157113119531159
Ag 12.428093558280453 10.941621465969941 15.816461656329238
Ag 13.541807645938405 10.183822548105605 9.528231584610186
Ag 11.998828147512812 11.609312520096315 7.697608788954102
Ag 9.770259496338992 11.885228007372831 16.300684165510763
Ag 12.192444465843339 10.375440552927406 12.105646942665974
Ag 13.879655767654135 6.5148530436671654 12.680403792009779
Ag 10.392823600140241 17.33761211267945 12.101042129929143
Ag 11.359884794164234 12.897959169778753 14.079288538502528
Ag 9.904003684552634 15.240286584390688 10.28215779218727
Ag 10.737408048674679 12.659513510482576 11.41701963060067
Ag 9.409401078689783 14.565334284493035 15.88101643323131
Ag 12.851593518833665 8.624474549510037 14.185814200084982
Ag 12.400490041770338 7.839493494985222 10.689895524250133
Ag 10.341710353927402 10.09836007685398 14.194245312981307
Ag 9.405569563441839 14.904011116199475 13.13467030625801
Ag 10.772686621882388 9.88944722080296 9.5780499922608
Ag 8.517753506859732 12.240992860379619 13.757441069804866
Ag 9.601823547673133 12.451884783721066 8.990517362038748
Ag 10.034299960929886 8.406906091680158 12.020686240996316
Ag 8.712765586528576 10.737076057466524 11.250196850523768
Ag 7.984295475619456 13.421089400134067 11.183656741510587
Ag 7.756242016465558 9.476138182143947 13.489393950781428
