45
Energy = -97.26228703 eV
Ag 8.249255968114557 12.101273369397763 8.74719898433568
Ag 7.233966043338624 14.3147880867781 10.282331360535323
Ag 7.030342603498649 11.680629855732047 11.29992409592576
Ag 7.097311623545818 9.608544646334412 9.457533015270025
Ag 9.394203935537606 9.703475554859232 7.752792561926812
Ag 7.44717395970213 8.999179389018977 12.28502384722636
Ag 9.584667305381656 14.636138046810235 8.650794667214754
Ag 7.818377890309764 13.820874591614329 13.07156325960164
Ag 10.801292338381169 12.313818379545337 7.361410062892558
Ag 7.290212857287361 11.284562019311576 14.044072436587594
Ag 9.467056690077653 8.47468310426809 10.374215567832278
Ag 9.276482240195971 16.004379807145774 11.232871137372967
Ag 10.09657822735092 7.9762655729389795 13.095652532780711
Ag 9.705181421125873 13.26114959124242 11.179501393585273
Ag 10.700724402714659 10.989101253404444 9.816048143528512
Ag 9.585620077946599 10.732532748850916 12.430173664118913
Ag 12.024159904058928 14.947699766651285 7.196268111627791
Ag 11.801774557290367 8.390957018878646 8.750363024338784
Ag 9.8436819382091 15.458829692830843 13.935881565057425
Ag 11.561934247417502 16.3946607768841 9.563074336501312
Ag 12.08786349698222 13.50190082204551 9.568480167076688
Ag 10.361733831595286 12.660179744655844 14.379840738526052
Ag 9.34609060332161 9.837563044810638 15.155003348264554
Ag 11.44804319749359 6.569093252859767 11.046378078312914
Ag 11.884019824966838 15.09792541669275 12.032613722268232
Ag 12.404829411376298 14.86617969626789 14.789497780842815
Ag 14.25572800245871 13.353668007054038 7.819364074388522
Ag 12.161001342829442 12.101312270522799 12.013604030324357
Ag 13.195921197781225 10.837365333646469 8.635917500740021
Ag 11.848860557699636 10.075013287300076 13.942290570119233
Ag 12.38471833827578 9.32704133350983 11.305149041841181
Ag 11.465741388343105 7.951294679537654 15.698527932245518
Ag 12.92166020225906 7.374656001578772 13.339777555264122
Ag 14.611967743996148 8.436539561880577 8.152495115328321
Ag 11.66221669819959 10.6646365479821 16.62581161446534
Ag 14.1462028302233 15.223144147656214 10.222979227654298
Ag 13.24177589739402 12.245712118821103 14.944156840241416
Ag 14.24482452158346 13.837659364407564 12.827368348073142
Ag 14.134468173732841 7.194388609747722 10.66876450278669
Ag 14.72304066681831 12.402757413376056 10.46119488981337
Ag 14.532446050705774 10.868804650537882 12.867869461762117
Ag 15.903427170259679 11.090922053538561 8.176032483934991
Ag 14.092239378295064 9.334700867065013 15.283659410018798
Ag 15.385139345008792 9.680539577556463 10.508060996696763
Ag 15.5253560136647 8.256629325320366 12.94341759731738
