46
Energy = -99.18293297 eV
Ag 16.313696765673328 13.429641705985324 11.43868131707646
Ag 15.464991169126009 14.705712732287644 9.04172263848709
Ag 15.3472723976421 10.877232826942565 11.174677361953368
Ag 14.704742194717152 11.442377901315432 8.383266539423845
Ag 15.911381354295761 9.056361992723264 9.057795808806866
Ag 14.23289878185989 8.33676692374847 11.156602259760076
Ag 14.615724874251052 15.672099784461214 11.534585579251198
Ag 15.94305843968317 11.871993953027085 14.032180714367076
Ag 16.338749207751356 14.846033598806315 13.780373939927781
Ag 13.379127316849022 13.727188454076272 7.497098596644735
Ag 13.717091514371086 10.157174828155108 13.343192080972884
Ag 13.653063656855402 13.056200473173535 10.394732702256357
Ag 12.192484729219572 10.589822611254132 10.848317554996791
Ag 11.791792215611105 11.548811323725051 8.01505689672887
Ag 13.123946490737456 9.10945031848008 8.59981951281474
Ag 13.637061057191692 16.07453061740836 14.106175322168568
Ag 14.645895609020702 14.111544703529932 15.840840113795295
Ag 11.782087083249568 15.017611360464501 12.247172708326188
Ag 12.683899356933107 15.559491325894506 9.494536580626356
Ag 12.604642329436219 7.566325922793105 13.298704367688563
Ag 13.896758854845372 13.331864513158132 13.154283564189678
Ag 13.27440691324802 11.773936066151103 15.526426494326794
Ag 10.863100522597158 13.15183894099377 10.248612938568696
Ag 9.989726054436384 15.849955327358156 10.263618060056611
Ag 11.197555854929732 12.148111887736615 12.949510111179926
Ag 11.85924610653948 9.428293038521014 15.379879172256675
Ag 11.547280312656861 7.819266224764214 10.63943861033289
Ag 10.161277826986371 6.273314564052422 12.440347776504515
Ag 10.541705460694905 14.212840155268443 7.792135781655205
Ag 11.812941532555696 14.158014232314033 14.989008918590095
Ag 8.969282322730928 11.83875407235063 8.168911725640632
Ag 10.393696921371514 11.809154736685068 15.579846454902519
Ag 10.369480079566515 9.276267078577511 12.991944295389326
Ag 10.305530105269622 7.1587057240421474 15.043161024802787
Ag 9.305856976172613 10.940160419017381 11.02023403808386
Ag 9.042162326871997 13.97397566991573 12.193218836238222
Ag 8.050356140160739 14.137965749497443 9.41419332960341
Ag 10.187827383919393 9.395204452422064 8.80998640435334
Ag 8.815704463781328 9.505058796050623 15.360903555102004
Ag 8.684607773535822 8.095747313046921 10.894254978440147
Ag 8.371186580533037 11.662375309964691 13.587964246898705
Ag 6.188915474031894 12.337412872114433 8.409971504334658
Ag 7.203169748859848 9.965296844750027 9.392281821041083
Ag 7.867092044538088 7.535281395632998 13.5867674345591
Ag 6.833417364260254 9.703305027064028 12.237349396841891
Ag 6.841586530314958 12.300436587060195 11.193579930744965
