45
Energy = -97.35687393 eV
Ag 14.014424145693576 9.355566075478993 13.090775585579227
Ag 13.230397102397566 6.831500009618895 11.808236622073466
Ag 16.287559363775028 10.70124884982236 11.960708310519227
Ag 15.539828383105823 8.145837135491675 11.045825260752894
Ag 15.379756301898242 11.204419601909823 14.664617186333018
Ag 13.574982668304738 7.657380045046127 8.950985707095793
Ag 11.411406644419008 8.292636762337379 13.544953671991495
Ag 10.57301464690232 7.016418436974858 11.169506472392095
Ag 12.557106506862421 10.49744712627064 15.277676212896841
Ag 13.397216426561847 13.086717904388967 14.212740164477557
Ag 12.389473236029575 9.316911641914169 10.71594680417501
Ag 15.929088932629442 13.34167195732778 12.992243289096772
Ag 15.005239045975351 10.266127330624052 9.39100549776118
Ag 10.703598331503986 8.07043635854734 8.545679851433867
Ag 14.16142186583151 15.563229765027604 13.19190105615079
Ag 16.162233621906413 12.93943417320363 10.173339750110902
Ag 9.630387669369206 10.19146552057153 14.700340416953736
Ag 12.575361548884947 10.134175677058398 7.946188361929933
Ag 8.603546322470136 8.31938931733817 12.811457872030005
Ag 16.391047464372082 15.532102143346268 11.415382711621463
Ag 11.64837424784813 11.035678751242953 12.782925700096126
Ag 9.487821758006342 9.662346483079697 10.469531835219767
Ag 8.024183424432058 7.291081848905361 10.157438136115946
Ag 10.711229939752133 12.762186027264129 14.832457623387976
Ag 13.935044647731605 14.711362580035178 10.535021309117885
Ag 9.795020058402205 10.67352553333462 7.707005543165858
Ag 13.744461895604804 12.655763065030547 8.615657495463406
Ag 11.156568916745748 11.872426065653984 10.010256740485847
Ag 9.123850496286137 11.859986870224654 12.239515145318276
Ag 11.65436898694817 15.375924147231263 14.410451255628416
Ag 13.798910990732523 11.891465822729169 11.367140106579212
Ag 6.988952141911107 10.480019941468019 13.640719185754392
Ag 11.625471922035594 12.564719375309172 6.862210740578031
Ag 11.617047517765036 13.907281886733502 12.026778125381869
Ag 6.693825823957474 9.656581180763228 11.08219779804715
Ag 9.371795306951872 14.896489103457338 16.01158702603767
Ag 7.371076773302681 11.672741896555639 6.820737987178667
Ag 7.459036404948444 9.314715067716484 8.359411295538619
Ag 11.537567377453145 14.475344855415024 9.12389241845322
Ag 9.0984869166322 14.598862143489068 13.26707321946896
Ag 9.121454900469349 14.167439800546743 10.557740296381885
Ag 7.772424720967599 11.866929211748335 9.631539230995838
Ag 7.91707231285926 12.693306278798413 14.955171956841713
Ag 9.199625951591905 13.524444088630096 7.82748622635191
Ag 6.733808660428792 12.995617925453821 12.208943860421757
