46
Energy = -99.3673817 eV
Ag 15.829966547872292 8.95606479231188 14.665793553684992
Ag 13.382249779971126 7.954859468522181 15.804221066124828
Ag 14.51567803602807 6.61021620141154 13.53251424634321
Ag 15.830283500673 8.849211785004721 11.774439130662929
Ag 13.839415494630135 10.891670790289723 15.493831708540679
Ag 11.64728670739146 7.082871317672476 13.736480727963704
Ag 15.285490754099449 11.323982525399222 13.065458937837066
Ag 11.316430693259813 9.705401406104398 15.152689797361672
Ag 13.472259761083722 9.174320670992973 13.228964740377075
Ag 13.006333608573597 7.2015408830253325 11.222176816987625
Ag 13.856369962289927 9.691024194673856 10.043357318820558
Ag 13.56421842541057 12.47479589969884 10.912422718728848
Ag 16.07685508600677 11.440505022171989 10.39087569807947
Ag 14.17761618518192 13.517580811664416 14.419806804924317
Ag 9.361113554511668 8.652614604843647 13.502105931773087
Ag 10.121324777280325 7.077562407588509 11.247441921375442
Ag 11.547550322779276 12.643895760669388 15.72248282634864
Ag 11.520826664985226 8.328045834322426 9.078884208905073
Ag 9.00830476404648 11.265086586196073 15.144884358124038
Ag 14.291695309962265 11.799706355314328 8.18533681302462
Ag 11.342377668086936 9.622814722793317 11.532015648643535
Ag 15.689974164143338 13.931774765120773 12.042028955574972
Ag 12.005398854678075 15.129371511911447 14.143723315240635
Ag 12.142229091940376 11.728193299228924 13.227595880422244
Ag 9.356784679888388 11.345695309754118 12.392722597223989
Ag 6.931843892616721 10.001839231161288 13.476101543206724
Ag 14.551031263960937 16.19511656397586 13.39886008666744
Ag 11.673940624620634 11.174873362645997 8.954604786797372
Ag 9.626570110860321 13.789974509906433 13.945655090683493
Ag 11.009755707486645 13.413663576742165 11.333548347460477
Ag 9.250598970279903 9.947527839139923 9.614757751217727
Ag 7.632716164301714 8.473648049557648 11.327849000193575
Ag 7.075450933234927 12.73435665693471 13.482102742047621
Ag 15.84290117733252 16.40007721091988 10.744641000034354
Ag 15.135879387584783 14.215363197952469 9.241795123310778
Ag 12.9630678781136 15.437294460289978 11.270600596603837
Ag 8.288419353363304 14.066833143560109 11.360079147286976
Ag 7.130398754227706 11.397556542627042 10.835681733901724
Ag 12.126063688763654 17.717988872289805 13.163467072489999
Ag 9.368438438268376 12.696168047655048 9.138853811763921
Ag 13.996921456933793 18.29532706704038 11.231413426256545
Ag 12.353045370532152 13.934737121817694 8.7634035097183
Ag 10.011331293425293 16.112982775210117 12.361643180184071
Ag 13.513140470594777 16.610315965354886 8.861045083586509
Ag 10.165325494123685 15.449575166858475 9.621780678396318
Ag 11.40299882670495 17.76757466708687 10.423910556028872
