40
Energy = -85.64685206 eV
Ag 16.778169905689285 9.05711644187884 10.977701412540048
Ag 15.469207013316899 9.4369876992101 13.314915496466167
Ag 14.064682924049466 9.728522307982145 15.663440756480583
Ag 14.226116245914174 7.92644422851683 11.255074516582695
Ag 16.31812209360441 11.779221850401433 11.713573569439797
Ag 15.468092971371219 10.76189438470721 9.197945477586417
Ag 12.664882013263247 8.828185671920245 13.39625354471507
Ag 14.698566337420038 12.032636294455518 14.013723809600867
Ag 11.260775282791906 9.789063719778555 15.630108222276492
Ag 12.825687549815536 12.173207125856218 16.200445535309974
Ag 13.587163541289664 10.798167147383612 11.356505092309359
Ag 11.421499476570444 8.513485296624763 10.865120117486397
Ag 13.335158315305927 9.002270553440562 8.881830994907553
Ag 10.389910144236433 11.653905760753647 17.48949141440762
Ag 15.197131190839958 14.33996700105431 12.379497494393322
Ag 14.917053598203484 13.370531415464857 9.739942838364394
Ag 11.895135918093498 11.74566368078752 13.48295161645953
Ag 9.978275827961085 9.570919137847293 13.079531749806007
Ag 13.05949724254132 14.276427073003104 14.341144871796205
Ag 8.851802278601966 11.156278740269519 15.106876168202213
Ag 8.257266951393694 13.254547848141904 16.828934294695177
Ag 12.812895315999711 11.810208746477631 8.741658195333082
Ag 10.831336439372357 11.48366905134722 10.870471362272664
Ag 12.608357954955107 13.678561711993334 11.445035664871774
Ag 14.176729109631172 15.952892466057731 10.122112797746581
Ag 10.808161876512324 9.936687900590695 8.414612133123253
Ag 7.431858203225932 10.634904027523019 12.6944379694667
Ag 9.199691334828083 7.768187133942562 8.435828128561916
Ag 8.746242110227907 9.39832452491384 10.591731554357546
Ag 13.213990009534795 16.45968170386396 12.669266121550423
Ag 10.706937692238823 15.161889711828278 13.031336445631881
Ag 10.501497712886982 13.529406061286931 15.296746009085016
Ag 12.11714442503523 14.498679980512902 8.727382522335132
Ag 9.169257343765347 12.809939353012716 12.848612508668253
Ag 13.269059049044493 18.458812819771126 10.685313463655742
Ag 8.02290814876912 12.097874200625322 10.289204087995278
Ag 10.018805646220985 12.587817319719498 8.22853630295836
Ag 9.831029426619029 14.23394821479844 10.486046284720864
Ag 8.068799012295333 10.407346395539061 8.038962588864194
Ag 11.36650938014513 16.502134666628567 10.567537078552466
