46
Energy = -99.59124927 eV
Ag 12.640226690628596 5.8211055507321525 11.319724384158452
Ag 13.323131861161414 14.540768879883114 10.573853851113782
Ag 14.926418516901506 7.479310841946913 11.447984247207597
Ag 7.839403605620195 15.320859773671394 8.592128917168836
Ag 6.698363270226213 12.83044474880969 9.7502773097616
Ag 10.605931325818135 6.4994442087141735 9.36855417783957
Ag 10.915712213784339 10.669220499671109 9.34880721312642
Ag 8.557265320887245 14.466982643574744 11.200494812326175
Ag 7.444126580614577 12.92965037595269 6.876024680672868
Ag 10.03449625450687 14.534294445175108 6.686713291526944
Ag 11.052743495291761 11.6979249469834 15.433102589487909
Ag 8.046041640563171 10.535325324463424 8.283231804628453
Ag 10.16226477619178 11.47451976468933 6.624877795231657
Ag 12.764214958346285 12.45796047458397 13.145668892968601
Ag 8.23695419412808 9.24350553229984 12.821392945279399
Ag 6.487297943888349 10.035717894686476 10.68666220602612
Ag 12.269518525945207 8.436251247199333 10.424659479327648
Ag 10.6672353348696 15.409358863760877 9.458248959618349
Ag 9.322938491441683 13.024528385296778 8.817283503437856
Ag 8.343936104145074 11.084435866431336 14.8642593635709
Ag 8.79849872372982 11.394892059268585 11.064044567487816
Ag 15.30097483087239 12.902669357946818 11.797740884279609
Ag 16.42689182962932 10.205647937377028 11.280494830937538
Ag 9.679308227882839 13.019901884842819 13.318189071261088
Ag 9.012484238447907 13.628269694271832 15.906081989543486
Ag 15.606063102579501 11.376756573847064 14.05815094428354
Ag 8.95756263625349 8.63231914777724 10.123426838257165
Ag 11.11935605838326 10.305333790679619 12.283501653098854
Ag 13.219971669296816 10.084119830233355 14.864923926044606
Ag 10.317403643274345 7.343324315335879 12.199080076825231
Ag 10.272740488945411 8.698429405824553 7.538194498210003
Ag 6.886287506776715 12.37575953243323 12.710000715543515
Ag 13.930613549237753 14.925642057987341 13.39121736909696
Ag 13.620557216266894 11.704762987352156 9.871057069830082
Ag 14.70047338909616 9.194381058899753 9.228705449024286
Ag 12.86994785358995 7.524791956228003 7.858491649113618
Ag 11.173984063011645 15.33572013576219 12.278778026852956
Ag 11.56513712789196 14.431235106870597 14.92041994493667
Ag 12.784321953292597 10.300636232216092 7.3728530129612055
Ag 12.0746630687057 13.15849456315774 8.088667659029282
Ag 13.818646356475071 12.82356206417249 15.644147182231372
Ag 10.504213453642938 9.001950588867643 14.614840681746346
Ag 11.163507591638007 12.908749987787525 10.933302094437046
Ag 15.55277542416396 8.60108233762309 13.899231139462845
Ag 13.906273811344755 10.069982868323297 12.079760244463346
Ag 12.823474121407648 7.745377285987934 13.369892231246189
