43
Energy = -92.41184246 eV
Ag 13.255761971801682 11.878368726690455 6.320190989455881
Ag 14.658150363979438 12.333498160372894 8.653185778419399
Ag 13.469952895299063 9.816301145577913 8.27530611705364
Ag 14.799504805449082 15.065069575980262 9.44366071452775
Ag 14.492269393897736 10.485209450753292 10.838141933624975
Ag 15.600817146400138 13.043924212118775 11.24489347226225
Ag 12.569520143038377 14.182115492752445 7.954481241730937
Ag 13.039554829973742 8.074047499107568 10.43830839859519
Ag 11.439526916326018 11.685591446445976 8.411226720149871
Ag 15.266912833597189 11.23776633050894 13.440215980804021
Ag 14.344171334867557 17.700471476928094 10.207059998038163
Ag 10.758449178175775 8.957146764565406 8.979488469745343
Ag 10.678790008187198 6.632482414905176 10.670255338601082
Ag 14.652067160963192 15.814068527733005 12.169699151793926
Ag 14.098859246339398 8.701955197677288 12.959276896979905
Ag 16.224459494629453 13.89423566871761 13.808068556140036
Ag 12.257005043351523 15.870848392301582 10.417557068461289
Ag 12.807391507716085 13.080877735333798 10.62713861810932
Ag 11.572393357826085 10.558149516629914 11.106211378420694
Ag 10.283399901871524 13.970715248919536 9.64438977043725
Ag 12.835844162895441 6.087161242483466 12.442472592438646
Ag 13.440650786363474 13.569796195059203 13.28432718273844
Ag 14.338031195725282 15.607712397868383 15.022817629487736
Ag 9.116837521083758 11.339100056597422 9.880116104311801
Ag 12.0453725990008 16.046008100058806 13.373617657317615
Ag 12.328525473113928 11.043641973808898 13.71490543739823
Ag 14.606765727932544 12.766274098797872 15.798025164743464
Ag 8.944685629492428 8.791268447341642 11.124770360129514
Ag 10.662406072308618 13.098191898472113 12.504093545606523
Ag 9.746035854834902 15.75367793072253 11.728826391234337
Ag 14.021028134803077 9.786261055918379 15.564161337685364
Ag 11.21266048510768 8.279321171493079 12.900888230154179
Ag 8.053049940675065 13.570145646546937 11.220637992104601
Ag 12.854475052613383 7.241493805074658 14.986129034599703
Ag 12.04363743253848 14.174084303838168 15.704752610542505
Ag 9.802399136868768 17.58665637235864 13.809826115921195
Ag 7.180004442079155 10.904798766030266 11.833987196700376
Ag 9.580512775632497 14.883604915878857 14.437630913679655
Ag 11.072535555395236 9.423354423563302 15.56032537330229
Ag 9.454314721753084 10.403342396518301 13.3476792342993
Ag 12.311391990929177 11.592857767912076 16.800461250479028
Ag 10.073068335008218 12.230779447609189 15.392735353655647
Ag 7.876854043249661 12.7061176026962 13.836253563989317
