41
Energy = -87.34282544 eV
Ag 12.20411233633141 17.329901456461513 9.0557162836084
Ag 13.645075071106264 15.022592029731284 9.030481956773011
Ag 11.2371769932446 15.020775030431588 7.525741439197685
Ag 12.6426789976108 15.922624318739027 11.478123468542645
Ag 14.83290514786244 12.722854555834651 9.910550313184759
Ag 16.489483073674556 12.766880377654982 12.204621093917083
Ag 17.599478779631234 10.519467056375252 13.374654865850067
Ag 14.51417742485806 14.511724551251552 12.992457403931178
Ag 10.194461963416954 15.723502611429206 10.050423860016343
Ag 12.789973034254269 12.56933817537035 7.840030902247712
Ag 12.578730783268707 16.102203459719224 14.258921737383256
Ag 13.208974285073 10.464396366944838 9.76710252495893
Ag 15.491607817091015 12.054656144412505 14.728684488744184
Ag 15.644974275371803 10.197662671422073 11.343653678338264
Ag 11.882142496317798 13.249312461050271 10.401941168016936
Ag 13.68124032459912 11.933071800901459 12.315867554384463
Ag 10.14896815732902 16.0277808949019 12.805786624102673
Ag 13.394895964796962 13.740420916190196 15.462795049968262
Ag 10.284911098289593 12.646255182379262 6.37853738339822
Ag 15.239077591772036 9.309980929568168 14.032751623797571
Ag 13.031659392735751 11.918548999976558 17.435834862531124
Ag 10.702877682346422 10.794741535959576 8.635354898295251
Ag 12.851962821402765 10.950638912469158 14.741460957908645
Ag 11.591742737374943 13.574541088211904 13.32362744766283
Ag 13.13499323890252 9.044337997383456 12.20473097899273
Ag 9.312625893487883 13.37792708295024 8.824196987439718
Ag 10.963221777199161 11.024650570816046 11.885496507508
Ag 8.217651382553102 11.114498815845124 7.535965742111078
Ag 11.17235630926662 8.530925512813864 10.233449934092222
Ag 14.376618113160863 9.630487017000421 16.686410228047563
Ag 9.254072193568858 13.57996402175834 11.618040680934385
Ag 11.523080427529164 9.64671730082563 16.862006436947986
Ag 8.399922578966612 11.211410508671154 10.434494251913124
Ag 8.938067892569906 14.006550193350616 14.357200708323969
Ag 12.77543317709954 8.077060676341034 14.853577634647193
Ag 10.453207542469503 12.029450260241736 15.59081849015744
Ag 8.62790560638237 8.776545205976467 9.129640206566737
Ag 10.319161095513637 9.425893102356076 14.331958771096133
Ag 8.589143241923523 11.408103167309484 13.377490673610483
Ag 11.089316322683418 7.260023920195898 12.724739910037538
Ag 8.917604479366537 8.921607016022744 11.945364551690174
