40
Energy = -85.4678458 eV
Ag 14.918088368196525 16.76770640070655 11.010400995800289
Ag 12.3990571160961 17.83973262093639 11.185644969727743
Ag 12.92734970979861 15.88936536178486 9.129361549883527
Ag 15.525216680440932 14.671306638505241 12.72614359763109
Ag 14.853694577365859 14.105627963027459 10.095098866686953
Ag 10.275369159259828 16.580764748052086 10.011517298038967
Ag 13.461016627902815 16.55679662932217 13.470627305394615
Ag 12.406241667578499 14.666874126460769 11.652378186587784
Ag 13.289415954379152 13.152242384495688 7.973640515042552
Ag 10.56310295891545 16.413263394525366 12.880130816803412
Ag 16.165300991735233 12.520583054474764 14.488511150152297
Ag 15.500807228684716 11.640648406844516 9.014240126523545
Ag 15.848123194194356 12.027730241498674 11.721726686631868
Ag 10.908103413618951 13.957382234160841 9.218175423350361
Ag 14.554472497024499 14.721008868429161 15.309851513498636
Ag 9.182437191003958 14.423250401789245 11.355450580842566
Ag 11.793925292228883 14.604368575794162 14.660797789762395
Ag 13.35216670368977 10.136741798683191 8.220301310615232
Ag 12.741785298400753 12.066089595790105 10.56490694365548
Ag 13.545323699399683 12.612029218581382 13.467301947961372
Ag 10.805340993512923 12.480605622533336 12.852335423170908
Ag 12.881298548900057 13.140268794385795 16.83997448456951
Ag 10.968499099015357 11.45686273132813 7.983085507432664
Ag 10.124887428704334 13.056969393101667 16.363159161514492
Ag 9.018308933855613 14.34103813639336 14.142271129205085
Ag 14.398898571821018 9.678532939296908 10.780227042893255
Ag 9.501979071998173 11.782046104481456 10.286437210888165
Ag 15.15374759573049 10.036724288895183 13.550844516504965
Ag 14.525333180804965 10.992795085341225 16.143773897244664
Ag 7.959918769423872 12.196261654110076 12.584926963050695
Ag 12.34687279110677 10.073856772613594 12.721224800053216
Ag 11.811530519888157 11.097478297970488 15.291191247963745
Ag 9.022280436148518 10.989244851523047 14.840477525369552
Ag 11.362117838222314 9.544994814634117 10.098354701633658
Ag 9.450618220338395 9.818964448476201 12.263996062923688
Ag 13.882222884009844 7.6684900066406625 12.657992297225135
Ag 13.298816173018297 8.654868274475195 15.22090045397553
Ag 10.542024855940442 8.623040241258687 14.600550822491096
Ag 11.11280183850871 7.5553225497379595 12.053846500243175
Ag 12.110293502099845 6.252132620217033 14.314235647850888
