45
Energy = -97.25254276 eV
Ag 15.390789760275009 10.562388194799732 14.711548217075464
Ag 13.54570419466535 8.7467449984542 13.673084056743342
Ag 14.221324055739633 12.80437315350165 15.836257855465218
Ag 12.19581072585922 8.159548581658784 8.12539434526967
Ag 13.03624393758406 8.383839747223995 10.841382998964367
Ag 12.706261355567218 10.359474197925604 15.967658620744594
Ag 16.849882148049918 13.267857750425529 15.310548163453904
Ag 10.78901585841713 6.706364367780487 10.133776283566567
Ag 14.037828530052288 10.29146117618064 8.881458329631407
Ag 11.852321169594287 6.7748571827238 12.776052095989701
Ag 15.529451669047315 12.697075829254413 13.022797334731392
Ag 12.822675573871889 11.595213343679784 13.485166474142373
Ag 13.274755041849058 15.2634381015108 16.730997364776677
Ag 9.460937813974377 8.710511832918785 7.4421616677678974
Ag 11.739496119535541 12.839490970766617 17.059341998860944
Ag 14.850935694246353 10.27985541002967 11.750641224542434
Ag 9.301017028787358 7.776946254269099 12.34549177462666
Ag 10.883586753642811 8.825697945994479 14.488192460478503
Ag 11.522538028815951 10.835191633411883 7.566015543000665
Ag 12.351030975177496 11.38524299364708 10.756305296555134
Ag 14.844035284749143 15.156043420474369 14.326991146365863
Ag 8.13184384425627 7.700302626298098 9.74780177275224
Ag 15.071978601661481 12.639147301512688 10.225855637660189
Ag 10.34214286472748 11.670940956181179 14.912406989315153
Ag 16.008838270541975 15.060525522007774 11.730329735229843
Ag 13.224155068764679 13.97892319303994 11.958744004692798
Ag 10.419634643610683 9.434604741557154 9.898368834654471
Ag 7.204853452186609 9.496466922473923 11.735353749854875
Ag 13.080507419925922 12.988398363294428 8.327320939685746
Ag 11.91158423202818 14.147345845400384 14.568017599993839
Ag 10.439842203536271 13.243924222484127 12.398730271258154
Ag 8.276361735469816 9.75883670964346 14.28027690661299
Ag 7.600591546466797 10.380533406088317 9.157345444114686
Ag 9.95100856815553 12.231006953475633 9.663244797206682
Ag 12.581534782076401 16.883491329348313 14.539678237091648
Ag 14.209010172915729 15.271426240793717 9.572246869559518
Ag 13.750361825138778 16.700558908511454 12.023387583568447
Ag 8.875679958699376 11.419947385152211 6.955235230480243
Ag 11.491629882086313 14.785830487630792 9.794846214361623
Ag 10.015449232512943 10.573252181303607 12.335673385310558
Ag 7.79054070767408 12.222962228973792 11.454009401109223
Ag 11.040490978002754 15.950714080334325 12.33124805753984
Ag 10.517025787248041 13.658631396718366 7.384182169716273
Ag 8.881536933167599 14.768031966855695 10.663442775090124
Ag 7.560915228230026 13.195739602873356 8.694149798972754
