47
Energy = -101.76948248 eV
Ag 6.744755593441752 12.10529057566642 12.647014101963018
Ag 8.799784168609406 10.219025221828685 12.99724924628999
Ag 9.024478760568078 12.720317180978672 14.275823471187856
Ag 7.867840361815247 10.408608459296325 10.285787158396028
Ag 10.452218457799228 12.979233805640616 16.951906289242714
Ag 7.855622837756281 14.7825188894771 12.723878967169828
Ag 10.355754203986573 10.578195098018751 15.401687368686023
Ag 9.040980182580642 12.654252657832398 11.268426936953881
Ag 9.682303462125386 8.332834472560553 11.194853628220939
Ag 11.271601705140139 11.570578923534585 12.686013219169114
Ag 9.788471969768473 15.245144615685934 15.118112291802818
Ag 12.360053342174073 8.35713003379418 16.2092281137459
Ag 9.362358458573848 12.79453317791882 8.504480109086154
Ag 12.05414583828829 10.737759927260102 17.57919835731157
Ag 10.66005050716892 10.67106795879482 9.893632853667155
Ag 9.398350053157555 15.22890766079379 10.238894007641775
Ag 12.054195301833229 15.398703347211722 16.732593426108746
Ag 10.854082515999915 8.348569959444056 13.802023190736726
Ag 12.353303183448817 9.111610825611146 11.625239905632107
Ag 10.682361838165042 14.48109719776965 12.579495553457615
Ag 11.300843029585394 14.987493736027444 8.237962536137303
Ag 12.061100373754192 13.250987040082343 14.759697190986904
Ag 10.387923241456093 13.635047844093444 6.021677836519162
Ag 13.71407133514152 7.708632164767332 13.7106199447703
Ag 13.033108008692672 10.366849543604769 14.470874424405816
Ag 11.976821600574686 12.09359984201409 7.695879308164764
Ag 12.03867570116349 13.100498733319693 10.412596215877771
Ag 12.191014443740668 15.973266281575983 10.767167689736407
Ag 13.464925779783236 10.569187912576394 9.495226959854273
Ag 14.695726917573019 10.330781748516552 16.657302639808076
Ag 13.57331291597164 14.256767447109436 12.597908905205866
Ag 14.034116140451426 11.51525296465581 12.058983594206483
Ag 12.221513218332076 16.33164648315386 13.999224660724863
Ag 13.564749573327186 12.997160076685782 17.106452851195904
Ag 13.203878302778241 14.232178244625747 6.343330291988957
Ag 15.066483605173634 8.86899235788925 11.43019725478836
Ag 14.417467822995855 15.081862543496207 15.279842742218385
Ag 15.783526115568163 9.734797011226357 14.036843501597511
Ag 14.97549201214877 12.436384473034703 14.660612954506615
Ag 14.055255646082955 15.226588504212645 8.789842953346364
Ag 14.776568500178277 12.572335526912227 8.041794859631322
Ag 14.983201526862091 16.269026552421543 11.227927640757876
Ag 15.486534383162768 13.588588531757397 10.585524235133951
Ag 16.219511059161448 10.9532296521632 9.929072048989035
Ag 16.26802015768069 14.594697391008959 13.213873503892561
Ag 17.722239759047078 9.421344976088898 11.945973620547365
Ag 16.815952002361563 11.936128416577013 12.543720856271001
