44
Energy = -95.14193166 eV
Ag 10.656861629679918 6.235483322764131 13.234410599076424
Ag 8.222738852582212 7.4989696356747935 13.802764828043788
Ag 9.742626132427224 8.348275843136795 11.604716605832154
Ag 12.39323997372781 7.203700541058962 11.197709937085747
Ag 7.294930582832407 9.658508124199324 12.198678900979772
Ag 13.07636992660184 7.572285347187225 13.877019125103045
Ag 8.170498676223836 10.111487034730121 14.857013889163397
Ag 10.609534377083289 8.781558804561188 14.509224572560749
Ag 8.924328793616063 10.611792755158962 10.077173443597138
Ag 11.458659297154668 9.281519801682746 9.493832441506239
Ag 5.9219142408322165 11.504141038082489 13.816563482539395
Ag 15.014117152471258 9.24734894120834 12.8385634712485
Ag 14.259201133334708 9.024880939611787 10.101129834120304
Ag 13.198593236410387 10.232113923323894 14.878762849502818
Ag 10.699277224179406 11.460450344994928 15.374808704408341
Ag 12.301680920997537 9.797750272142228 12.206345209916048
Ag 9.838927048369282 11.133026529427548 12.72260726496918
Ag 10.501691749866433 11.45964271172699 7.949236695670773
Ag 7.54084727167603 12.5181696822428 11.691362176182784
Ag 13.294953654409301 11.198714371795727 8.400960892982896
Ag 8.308672784775428 12.898238707896336 14.380683148678411
Ag 16.907720987327405 10.994049726199632 11.752163000640628
Ag 12.378787463707585 12.591077229928322 13.156040038140056
Ag 14.268233859654249 11.674842082567482 11.177782220425314
Ag 9.727068326729837 14.2333585610056 12.357870050605026
Ag 13.211728642908104 12.95371489894526 15.755460951473633
Ag 11.500942615269832 11.980659838577964 10.55124783472089
Ag 15.223884105299017 11.949613597424214 13.861499139698632
Ag 11.922680399795233 13.830801696322474 8.433259410101506
Ag 9.31733242245679 13.497552246733317 9.694860540788566
Ag 14.457438930997574 14.64732608145134 13.72323270563765
Ag 10.728482054288637 14.205420911483676 14.96734258031814
Ag 13.278712238480933 14.334074433782394 11.084211875602664
Ag 14.775875766552542 13.58771305259857 8.782291950617465
Ag 12.851156839786968 15.777825093373874 15.803146194205626
Ag 16.025082419540357 11.09445880269714 9.116565165146994
Ag 11.911114965178886 15.941613963570836 13.096925156739532
Ag 16.192090822774038 13.711947360656719 11.621816124468827
Ag 11.003709517592903 15.747688859355348 10.390092986439535
Ag 16.434759523765916 16.39509979086744 12.556477084173213
Ag 13.45043587796556 16.113039307865 8.824651175299612
Ag 14.345558091586947 17.386367779614567 14.131450534316967
Ag 13.921359993773123 17.043407799425484 11.409586298551249
Ag 16.012479151321735 15.878760416284432 9.87944481708806
