46
Energy = -99.45003949 eV
Ag 15.460545378902635 14.295838437941244 13.14127185402619
Ag 16.566366569503643 11.66763578874211 13.416286389259772
Ag 13.154257132549946 14.70933939528232 14.725900317705793
Ag 15.095860465262739 12.746223569068723 15.530178398148621
Ag 15.876558385880408 12.5675417688276 10.83933520382268
Ag 15.377554259262244 15.272528576310775 10.54291548434382
Ag 14.890706383486295 13.555457571699419 8.287837614061516
Ag 13.207738638192916 13.696078032230327 17.424374760219358
Ag 12.921692290247682 15.483788238222223 9.270936004082047
Ag 13.819920435398622 10.8846129474046 17.353985225276272
Ag 10.656373155147811 15.659211110314503 13.703305291622335
Ag 12.88418968751624 14.854154957243024 11.958350030610154
Ag 14.240070348663727 9.94604192277451 14.5580337627805
Ag 13.696292845068227 12.105743992914135 12.770027704074458
Ag 14.933841166996762 10.710964552282482 9.002532570780298
Ag 12.121583911358115 13.66007680290976 7.352695789127778
Ag 10.684918232281483 16.40264414023178 10.95330484534414
Ag 15.238625788158087 9.90178957926406 11.757094019753437
Ag 10.704066102711145 14.157123581922217 16.138149570184947
Ag 12.982131185434538 12.511254282601902 10.024363729059628
Ag 12.392729020899948 12.051753985429617 15.294088492510122
Ag 13.688552727136164 11.498895531288383 6.607614992458153
Ag 11.072989190600545 11.806058008443062 17.744744401135634
Ag 11.602888290513713 10.170969604056328 13.300911618291133
Ag 10.957698228978346 12.974883815917408 12.972850761182372
Ag 12.777002671463862 9.74126516161103 10.523905767573343
Ag 12.993045628402959 8.982669219191811 7.775254188817594
Ag 11.614694434308126 9.502196374479672 16.17703801977444
Ag 8.411072207996149 13.939863025108522 14.57133232902686
Ag 9.298246854456721 13.175244301720172 7.436694926955107
Ag 9.636389793996292 11.4644754040065 15.244418563580462
Ag 13.333097166620075 7.969264093884906 12.613681806797272
Ag 10.639003922451652 13.881952894900762 9.841073210080614
Ag 8.77005382222717 14.526614229151047 11.883639738471969
Ag 10.465158882129158 11.204131057092242 10.75698952341585
Ag 11.190622166107712 11.118783834788623 7.767373832746342
Ag 11.156545137683706 7.485272191640696 14.376479818807061
Ag 12.64069195025024 7.05912617634138 9.91974343288857
Ag 8.401909742020894 15.335260285153561 9.217442078161156
Ag 8.390816104527438 11.760691303772091 12.697465144259708
Ag 8.996902555350848 9.193850397861528 13.628190534663972
Ag 8.530621288024207 10.519881029910442 8.193101491593778
Ag 10.609405882126328 7.997042192109064 11.671445563766508
Ag 8.059405537733017 12.555893019122097 10.007401139901122
Ag 10.471238410130157 8.723144733544517 9.039061655185554
Ag 8.272218456264037 9.548529385293275 10.861178985646557
