50
Energy = -108.84831302 eV
Ag 8.076022543872021 16.46684935375451 11.795258375623844
Ag 7.0285653422025325 14.288912401394242 13.141670821123867
Ag 10.915297519063161 17.136445585698567 12.370614646299853
Ag 8.473367485006408 13.342987417562522 15.30628162579979
Ag 9.18528687702521 15.848737728290152 14.282498181006789
Ag 9.933468119276647 16.331136291360767 9.842118685368707
Ag 8.047269998843808 13.957431835835841 10.297816856840123
Ag 6.651175746160113 11.495105739102458 14.295224672140012
Ag 6.098825448829553 12.197345826865371 11.56281888895582
Ag 10.308300667450949 14.469339560809079 12.083703698525602
Ag 12.973824197847499 15.287751653523866 13.003919789750688
Ag 8.7552060002655 12.109891474646387 12.66186250747995
Ag 11.28516728988744 14.348331010837308 8.5987029048554
Ag 11.250738095179642 13.959874276076002 14.765607882966568
Ag 12.756332049647652 16.08376007012234 10.285649999059057
Ag 10.432980478886684 11.570333613812 16.008719237462916
Ag 10.341096062585883 12.262720953185982 10.31055036878395
Ag 14.153103527180022 14.102607886267805 8.5638450015509
Ag 9.346125591026476 9.723481759452604 14.230390117068131
Ag 14.451103017605144 12.804543265885291 13.110598025320176
Ag 12.74031385049281 13.341221434046677 10.951113254011762
Ag 15.198305683269012 14.756230659681743 11.19440783663882
Ag 9.522008394055609 12.330258876863345 7.673820337494682
Ag 11.559827088589532 11.685455403759605 13.067352237117587
Ag 7.844233546207153 11.07901125596085 9.697655758153173
Ag 9.934131510441931 9.80265365521292 11.463384359792991
Ag 7.1921483903944035 9.6476216942085 12.20207977075202
Ag 11.667842628794965 8.298818334371402 13.009600872107573
Ag 13.179237299695378 11.920506815018905 15.450553184829507
Ag 11.339618215286292 10.54369344069731 6.203056571207878
Ag 12.448493201446704 11.84950516967606 8.367563045483738
Ag 15.010289297854273 11.965476784409761 10.27356605433527
Ag 11.933853048543165 9.311809584651055 15.57403126738095
Ag 17.430378869539823 11.146349467354767 9.3558975038328
Ag 17.09528788051223 12.676262183360075 11.93841244389085
Ag 12.761369266513677 10.294089426344863 10.813532489890893
Ag 13.95542531731949 10.034528065804052 13.414937758236016
Ag 10.26166874633692 9.798277989101848 8.634708284474367
Ag 9.050484672830294 7.414428776309059 12.496177781173838
Ag 8.25844270052503 8.23874520942032 9.896970862981599
Ag 15.058473512656922 11.324683909850924 7.5882269474346336
Ag 16.407226201825058 11.143052101349694 14.284137424159923
Ag 14.735070669921859 9.620078852696002 16.040706131795698
Ag 12.95674128735058 9.11709775990999 8.072243976959735
Ag 13.73885122728544 7.370631944596458 14.557081909653416
Ag 11.523977083541865 7.809591640551441 10.23901915088014
Ag 15.329972844268264 9.200256060054606 9.408659783853235
Ag 16.559817708310216 9.943776503791891 11.750324452582497
Ag 14.25292916925198 7.918355432394051 11.630449351363943
Ag 16.236211638174602 8.297678281862403 13.889353833891741
