50
Energy = -108.94726648 eV
Ag 17.681345029162742 11.855446004305144 13.343702039741865
Ag 15.842707352723284 12.212473072066777 11.268443599846504
Ag 17.305680535533607 14.375224459695117 11.896420605144684
Ag 14.514759877372455 7.63724266596853 11.931917143947436
Ag 15.621837690881117 15.466236618028322 13.835247736386622
Ag 15.3301380605844 10.103777052522991 12.985492629405659
Ag 16.4001279584758 10.370851311620171 15.502569370495497
Ag 14.181285534701704 10.016534038202726 10.415453157193088
Ag 15.452791913825626 7.798695608412634 14.598525032402366
Ag 14.201393347023302 14.460952548131335 16.158765232550074
Ag 15.206937938548451 12.689113884943708 14.281853540518242
Ag 16.046226540718145 14.219973308559554 9.227007152083344
Ag 14.438561254507954 11.79286830011123 16.957319076816415
Ag 13.217943845884712 12.141192181923417 12.350201012794964
Ag 13.700796776938562 12.594584035941951 9.513355986809952
Ag 14.378022298518502 14.792789297955261 11.288563393977611
Ag 13.479233003203564 7.612047865657216 9.253440020431
Ag 11.7591517227286 10.767845251185864 17.2970252562087
Ag 12.00582545917758 6.56186309758341 11.50348739321734
Ag 13.594149788197006 9.73239634752726 15.330855811532448
Ag 12.944138960878545 14.686442983971384 13.703285184344196
Ag 12.342791024663851 9.5233413921837 12.553351723758762
Ag 12.641548929274872 7.293303480523967 14.135279546821579
Ag 12.479032858489251 10.068386516125855 8.162903335704947
Ag 12.320267175331134 12.37988441458358 15.135032253524818
Ag 9.55846610694383 10.63745709605779 8.383244630406809
Ag 10.837335249187735 8.479560512839559 9.879400258702232
Ag 13.729601061012367 17.20299719665007 12.678124962054197
Ag 10.811874167284536 9.473705317148495 14.997506147410643
Ag 9.995491212571478 8.025196879970483 12.712571715004863
Ag 10.435611836971132 11.658011019967615 12.996983409261516
Ag 11.455558293702868 12.77159035931716 7.911544093260641
Ag 11.329692368962762 11.290187728052596 10.400534705434014
Ag 12.349156794048511 16.630249932611658 10.341955745359877
Ag 11.311258630100193 14.013690490030523 11.331926570162713
Ag 13.362822815249 15.018543694292942 8.342226594779914
Ag 9.53642207279591 11.873283540698154 15.721455968711638
Ag 10.245243948719233 14.210894778294017 14.244846040095197
Ag 8.76848974571634 13.27286338901703 7.644340230628561
Ag 11.005344996022028 16.52570344906268 12.788717977519443
Ag 8.80466622697247 9.901164130021057 11.04824238470349
Ag 8.264831664251632 10.046542190784342 13.842434754163426
Ag 10.561410255308433 15.277888353403364 8.575539499449771
Ag 9.634560849215262 17.197238960375422 10.3838045316418
Ag 8.774048011981828 12.669771725409861 10.443849259634955
Ag 7.855845745128588 12.8573587230578 13.567842211976615
Ag 8.687826037033561 15.113190430901629 12.093522030161033
Ag 6.462937501278269 11.093116495141375 11.92280685785854
Ag 7.8642269871186885 15.219241974312014 9.402081342827156
Ag 6.354200576545316 13.779572645894737 11.277454830315843
