5
Energy = -7.32093113 eV
Ag 11.372709832877089 7.73899367720459 10.862551162278544
Ag 8.759476367416253 11.805395058840084 8.540892293854368
Ag 10.044286321880769 12.24302272088237 10.88132100502329
Ag 11.546394495827546 10.209496373584837 11.973207400209931
Ag 10.01236212154532 9.74712612886671 9.731053861892505
