51
Energy = -111.61681863 eV
Ag 17.279479176857155 9.86081289878232 8.683557389382264
Ag 17.22366984529457 12.463755806878643 9.66954243540842
Ag 17.029488746074133 10.282062443877054 11.456100574224342
Ag 17.10120582113795 15.146289031733925 10.711325531840886
Ag 16.443144420329244 12.91996991320406 12.379424385196799
Ag 14.881319694000569 15.274684822963337 12.560427015727276
Ag 15.711623169552416 10.691824881500898 13.952114912671155
Ag 15.786613058496984 8.18115890327199 12.815456358680809
Ag 14.54963519203604 13.240983636756361 14.47937333659941
Ag 14.241377702833796 11.11532421324038 16.33403547007663
Ag 15.150878855702562 8.666363223359069 10.031426137812566
Ag 14.844610635031998 11.27531697904119 8.54219286098027
Ag 14.819779570153573 13.81284662998119 10.076813354085695
Ag 14.691550800744244 16.61665330020411 10.098740188331982
Ag 14.261533047944003 11.211045898273088 11.4632161655295
Ag 12.578347082342084 13.428451152531991 12.354819487089175
Ag 12.762802526923265 17.116644953166574 12.162202346759907
Ag 13.829925321379191 8.65726552385152 14.869415780030886
Ag 13.149435888906213 8.593621627502358 12.050268241617815
Ag 12.774552697391817 11.034964908156066 13.899528058576914
Ag 13.628646069479677 13.793540710481572 7.573529388923493
Ag 12.737119062812026 15.392569309757702 14.45641266786147
Ag 12.067921640734905 12.961204868156107 15.823401045017684
Ag 11.545307472590352 10.138090719856114 16.283413420108822
Ag 12.772935774457125 6.986642324634387 9.632898733372217
Ag 10.893525816897082 17.495572536771476 14.387560021959802
Ag 11.068174489939311 8.744755434640036 13.845799476167771
Ag 12.591414919083402 9.655676603425638 9.39123479464853
Ag 12.241926101722001 15.214027419659567 10.060226676102994
Ag 10.082532604898216 14.860655751190112 15.412768552332116
Ag 12.475001666938418 12.39152040483808 9.667831833403866
Ag 9.375171420905064 12.044507723961711 16.087791823117563
Ag 12.182099507644143 11.25677692863878 7.142557340313308
Ag 10.489560404178103 15.55571196341739 12.453274204059534
Ag 10.560878203534529 8.15369158894705 10.994120462086377
Ag 11.065957890541156 10.847335217928505 11.725120936123307
Ag 8.971385433083178 9.283598690670612 15.582419219789408
Ag 10.02582559321244 12.751072719923451 13.491509276659498
Ag 10.786836519838138 13.724189574297224 7.911490295823163
Ag 10.356977455167247 8.495477618087438 8.217465864595454
Ag 8.288123323801347 16.450040964239417 14.014222554979115
Ag 9.970145423200211 11.13157516453922 9.056375026138276
Ag 8.552642786592232 9.022677003600334 12.770585419723202
Ag 7.569504845179959 13.773889196110181 14.759554957143234
Ag 10.088739738482928 13.481957111308061 10.658956677094212
Ag 7.339964313434117 11.04318420966723 14.282786091779041
Ag 8.110001388384859 9.23847128252106 9.963618225009583
Ag 7.896774743049007 14.446676707158918 12.070634310469062
Ag 8.18834150986409 11.636047605184675 11.425709258432683
Ag 5.833961914285348 12.704791284475672 12.677611844420902
Ag 6.0745631114793035 9.946742968449984 11.917829475140483
