54
Energy = -118.90923222 eV
Ag 7.163834255885641 14.866783359801978 13.840614754029367
Ag 8.917627148967856 13.570439443940272 12.19323937096768
Ag 7.839514290806356 11.13813618993951 13.32363830379808
Ag 8.788099150819534 12.9681950074241 15.102833163325
Ag 7.268884650482824 9.258273276013089 11.364606860089205
Ag 8.996146194399145 16.567902874398968 12.574918084021789
Ag 9.701320052673891 15.52978983213955 15.172180417082762
Ag 10.002268195535448 10.481404184260557 15.574398044218839
Ag 6.938477593522921 12.034674408380429 10.807663954668302
Ag 7.1438904629929345 14.981033251707972 10.768402837219586
Ag 11.806743663004463 7.6601458551041315 12.422099795826119
Ag 9.4891198145587 7.637120445750265 10.814065909700581
Ag 10.69238362520551 11.729217559136416 13.214568841288319
Ag 12.449887173802347 10.918396013692425 16.85639720106377
Ag 11.650050890364742 8.174388390122848 15.187999025442474
Ag 11.599205668225853 13.173353952856209 15.40660058001409
Ag 9.541606520048953 10.647183940629997 10.687952792978802
Ag 9.534827996324218 8.941612277946472 13.288293620627813
Ag 14.2546472176032 8.884497406438284 16.254137162076013
Ag 8.965069913422345 13.079553448117805 9.198656057294084
Ag 12.984134249157192 10.298827792558315 14.117893755304875
Ag 11.392766226729028 14.901771681261007 12.985090056720992
Ag 11.235632725063983 17.606596783279414 14.095042942554718
Ag 12.34801398450732 10.450602376564255 11.292910940342638
Ag 11.912929928779802 6.177943380275219 10.13768071265909
Ag 9.83897224754828 15.57276938338045 10.130298786290187
Ag 11.340269026033187 13.113182777150232 10.821118944295709
Ag 11.581858987097803 17.400474002484962 11.392312138808531
Ag 11.50815125546601 8.748202126597095 9.2816335652595
Ag 11.399159982441835 11.448875988310066 8.575442847316607
Ag 13.583793616309304 13.62147108707189 17.261111010779
Ag 14.226165868009785 7.759855038121723 13.685544260113408
Ag 14.052425465537864 8.030934868295525 10.619823856621933
Ag 13.200172006312112 15.340261981863481 10.376391766263147
Ag 13.370400889443925 12.783364575102494 12.887837928221797
Ag 11.35910460730738 14.219253422597072 8.148450241442879
Ag 13.700745035182733 16.428223687926106 13.092684281513312
Ag 14.05353569510807 12.492091383093404 10.167935981798303
Ag 11.670267466765434 17.012534985057655 8.622099677975504
Ag 16.462983412009873 7.9555147011186635 12.082349783196763
Ag 12.53602840062538 15.779839924265476 15.704570445680035
Ag 14.951812486529075 11.67492962987135 15.801313276013639
Ag 15.020041607717019 10.431968326636001 12.057916199336121
Ag 13.900221232678076 10.114478099705549 8.678133915097328
Ag 14.757049968653739 14.347975173821611 14.772974776728178
Ag 16.297729462527837 9.632308146603204 14.464720587109012
Ag 15.421154116628632 14.48478808939023 11.932113888289475
Ag 13.697266008789956 12.714962056207353 7.440557353871162
Ag 16.397474518339028 9.647803620925577 9.790116016031371
Ag 15.67541636476591 14.414361372079437 9.079090427894272
Ag 16.439654960529833 12.40148636842093 13.561960377292971
Ag 13.723476303587134 15.544533474392622 7.519002164037822
Ag 16.825645296333672 12.360120063112184 10.63145148625738
Ag 17.891799597881924 10.363318140887195 12.233224078733205
