50
Energy = -108.33703574 eV
Ag 14.742027821832394 8.21132234188579 9.110285948629338
Ag 15.048980541818716 7.235890589258382 11.745961910674014
Ag 16.55894533788038 10.324193844909635 8.221724684692191
Ag 14.247536433501274 9.901296212106324 6.7310210687898415
Ag 16.23624342135639 9.690877175922097 10.993180805851786
Ag 12.157795907099873 9.206005641718175 8.470976018087239
Ag 13.122515523138842 7.430262600921222 13.78014597442466
Ag 15.05749001954143 9.389016180177094 13.550350224952934
Ag 14.094472076927158 10.950064647398678 9.465030859989573
Ag 9.685997652991215 10.17249268927657 7.644616413355349
Ag 14.77873548767985 11.865874556483028 12.199621746475785
Ag 10.92421542829444 6.7510437894886595 15.326240651866922
Ag 14.912108329811316 12.63705309878023 7.399319388359827
Ag 13.041736059273894 9.174968681730109 11.430956315378847
Ag 16.51782126556095 12.409649277070876 9.986627755768426
Ag 10.658886353953934 8.779340111676902 13.349581649136828
Ag 12.203929645072687 11.780394252759367 7.228246103614944
Ag 10.372476925205047 9.553324438220216 10.506879839403684
Ag 9.480104021777738 8.856612445413369 16.389708472878663
Ag 7.941501727272236 8.974365983306958 12.035447103825886
Ag 12.243076543298036 9.243159198458093 15.872831923921973
Ag 8.384105331625603 7.399219835586573 14.278998479109601
Ag 7.9498933256052915 10.990812805760068 9.99906786135657
Ag 7.956534369961903 12.418491166501466 7.607218650051123
Ag 12.553997352126496 10.967493636576707 13.75723424778001
Ag 14.561944514475654 10.949469885323541 15.74436625494857
Ag 7.717734292576615 10.14910954230676 14.648925157779926
Ag 12.500941446616398 12.765653542075166 15.975659768079328
Ag 12.060474632489566 11.912847731844757 11.222059213988317
Ag 14.058210741325885 13.735618946566564 9.85310971675465
Ag 6.696199903032862 11.513824708213543 12.428679371220046
Ag 10.262351422130934 12.340104779305513 9.16307597009812
Ag 9.550865385136206 11.23166061181498 12.530555221944535
Ag 16.09989532848702 14.297962553626888 12.064194756273668
Ag 13.39049181297407 14.538449393543173 12.435525241120315
Ag 10.975699192060931 13.465264301520232 13.469436062561547
Ag 10.196240508777388 11.336936277161529 15.418152677349566
Ag 14.797228542399996 13.509826208467864 14.575317814969067
Ag 12.021729356124215 14.431717949420053 8.049321901120777
Ag 13.248177444418213 16.344872754353815 10.193068537184057
Ag 8.102795802117521 12.980566783361672 14.337861305716874
Ag 11.103954900073221 14.532212290714476 10.715947237266478
Ag 10.041460036088537 14.195593990979384 16.0379246610785
Ag 8.50050389056968 13.568823387621803 11.43168528127344
Ag 9.014589088008956 14.754777876896334 8.757335837018532
Ag 12.472685333987103 15.374588840582431 14.945404167376388
Ag 9.078584254315961 15.533517281291656 13.757866998661369
Ag 10.799327552469473 16.880665374055134 9.104249520242842
Ag 11.434033896480193 16.585243209887768 12.590826216371013
Ag 8.94254480044295 16.37335569778911 11.12867069707041
