51
Energy = -111.44832453 eV
Ag 14.114357265287056 10.095417267900737 16.915810482241593
Ag 12.555414236589568 8.87099441101545 14.989554282635044
Ag 15.47076334305946 8.620690455819018 14.98659786740734
Ag 11.538429430490867 11.312649870642458 16.73416099082208
Ag 16.50288192460956 11.20934479232389 15.785937910696205
Ag 9.918539638085887 9.870877338900359 14.444849289439771
Ag 10.729729401950241 7.562716585708302 13.023359716766569
Ag 14.074303885417901 12.746289803731923 16.286764887451206
Ag 14.056836408425198 7.591161567676343 12.785420394266403
Ag 7.965621534812709 8.76949565285985 12.804483682035091
Ag 14.662111477209303 11.029832592832427 13.743677402617042
Ag 16.439430939008204 9.260050661017619 12.428362913453016
Ag 11.98646308494497 11.747719913193276 14.108909102528916
Ag 11.645683012066351 14.12556258638643 15.703988285466972
Ag 16.203761598617064 13.852838130562372 14.73788075291571
Ag 9.626395002854279 8.876357636889072 10.664802956995146
Ag 7.577704871586187 11.464450734124835 13.285761704997904
Ag 12.146750559813674 7.585417659194448 10.455877836391263
Ag 9.449968954163563 12.580770349751129 15.011346796868326
Ag 10.203032659965595 11.441155279792603 11.832953006741898
Ag 17.311312738707272 11.841354933335634 13.09782741691668
Ag 11.882198963802411 10.37910484875009 9.686364245369209
Ag 14.47696819888445 9.231390923175763 10.4468569831821
Ag 12.337069002021638 9.667949199348355 12.347572000362923
Ag 14.11478354603509 15.548226767939665 15.882929680024493
Ag 13.450888924025296 12.10340968493194 11.456665545110512
Ag 16.11553126287989 11.486334535612713 10.54822140492957
Ag 10.83459831835279 14.050546310649734 12.715638508165519
Ag 13.621307611276475 13.901393161841957 13.655193501825712
Ag 15.008624003041914 16.241723693487657 13.26714217518303
Ag 13.24922948257274 8.629453501500256 7.934653498537915
Ag 7.493068016421595 10.73506706537485 10.601421507550903
Ag 8.019379373562025 14.172368972128723 13.203566003686454
Ag 14.220637631218848 11.261118053912439 8.35986857967742
Ag 9.414998033412273 11.232014241034902 8.60607181340317
Ag 6.179747751696187 13.157433751550212 11.31451508184998
Ag 15.770156221254297 13.915772374990834 11.867130324893528
Ag 12.151259439722692 16.3366648623489 13.877316354005494
Ag 11.558210587796363 13.22999514854661 9.80318093062233
Ag 8.802333351619787 13.403767177256286 10.507803210272412
Ag 11.662638122715062 10.846380789442083 6.936961293729688
Ag 10.427694591868553 8.584114309616693 8.024406010038316
Ag 9.534196095324113 16.55170896126382 12.881031842702425
Ag 14.431860026587058 13.812963684265863 9.349859010116022
Ag 12.649887221253705 13.348326038505364 7.10515527150346
Ag 13.048109132835057 15.340435101747234 11.283122103925413
Ag 7.105807605991304 12.810181353837747 8.50993293140928
Ag 10.282452919533931 15.748943529668903 10.353220528084313
Ag 7.468903422682653 15.787306338131383 10.993883671490535
Ag 9.805107758160288 13.968451854939795 7.808356405500797
Ag 12.331058535318453 15.658968490338344 8.510617103564176
