54
Energy = -118.63134949 eV
Ag 16.407253522796733 11.649139588393039 15.44122727478782
Ag 17.560289788486653 9.643061132672667 13.70510503516261
Ag 16.938179436327584 10.14394403528737 11.01573160742108
Ag 17.579936913964435 12.38494659865188 12.975895577949995
Ag 17.1643966722706 14.354851747977072 15.137745605760035
Ag 14.609602691873338 13.6797004438642 16.271312277548027
Ag 15.342814394621369 8.944741364640675 15.24609971416777
Ag 12.60298996341631 15.430049859391305 17.023766587845227
Ag 14.937291866865806 16.300934582977135 15.09369121304921
Ag 14.973358732468125 16.33848572726351 12.260101153693933
Ag 15.800977399017327 12.770395729767783 10.813885596731144
Ag 13.696842590407432 11.072592784015383 15.859068305717512
Ag 15.781874938271475 10.994660654608623 8.625380896162364
Ag 15.076248212450599 10.954698131277643 12.964110693547932
Ag 15.538460083832465 8.066650160787773 12.51115308384962
Ag 12.558619412224914 17.628502826414184 12.678620219900083
Ag 14.812405986366084 8.630708397189641 9.877366316991635
Ag 15.105052848368697 15.221126915471618 9.612568627513754
Ag 12.915234292064651 10.460728517664178 10.988744216388705
Ag 15.141131682182904 13.768061762091932 13.408562301695259
Ag 12.722771372724303 15.023373292165559 14.119790917853605
Ag 10.185217576309258 15.244364521788807 15.351453852275984
Ag 11.776567511446553 13.00064826359011 15.959438834046772
Ag 13.751115910978802 6.766562921906186 14.398895658161425
Ag 11.942270773273291 17.472375240529725 15.312707804111348
Ag 13.508087654851703 17.449231658760397 10.112756183415236
Ag 12.508078857126051 12.220955285393943 13.256530189276894
Ag 12.911511195027185 9.356421704544243 13.607744786231265
Ag 13.192183091817693 14.256695138803384 11.384974309254615
Ag 12.724698541832304 8.457610405839658 16.377749876769453
Ag 12.122235226367067 7.983288243280248 9.364676661097963
Ag 13.12925034783669 10.29712661274112 8.134557696642766
Ag 10.964679913922382 10.388232042161352 15.39217056868079
Ag 12.303108746718173 15.304554175305633 8.783495587265882
Ag 10.762360905961526 17.02153454746597 10.567206183591807
Ag 9.829515314101352 17.242552715546708 13.36611468696803
Ag 10.967748594161069 12.537260393789747 10.731211686447374
Ag 13.726066483750587 12.864880030011232 8.938102332059259
Ag 12.973126155323559 7.174160566182883 11.80052350822639
Ag 9.765059387039338 12.495713392069598 13.938334554823147
Ag 10.849064463471624 7.676496945165544 14.280021441940056
Ag 10.530532936493287 14.746497629428166 12.374940171605122
Ag 9.660364011088944 14.769590763410816 9.32789869840819
Ag 10.514259528805104 10.206157614295412 9.219466907648782
Ag 10.58467048522784 8.687466276143363 11.682510250629221
Ag 11.18710873462825 12.74712997428383 7.911221682247554
Ag 8.833222772540216 9.669704653658513 13.816810056738507
Ag 8.134465616880245 16.187955290206016 11.328318006600636
Ag 7.971949197775195 14.76780381920881 13.801465589234574
Ag 8.651042740601923 10.675459217438013 11.267709735377883
Ag 8.595947346302948 12.191682414685095 8.849362830866063
Ag 7.100026888056566 11.964677598677268 13.367398482352312
Ag 8.19962502817687 13.413871081669365 11.286440228942782
Ag 5.800422924380128 14.328435309720087 12.136780374913359
