55
Energy = -121.05765851 eV
Ag 13.358619649472665 13.69916580510086 13.222374385561022
Ag 8.723443537597802 9.382012879443826 12.270878029240501
Ag 13.214156799272555 9.28064293215584 15.768494169033927
Ag 8.60222726867078 13.704233715818068 14.69541207890691
Ag 13.476360158609735 12.244337931166712 10.735553143001951
Ag 13.254462555665134 12.25068302193123 15.70814475046354
Ag 13.317937688934258 16.57480717468012 13.209815119213808
Ag 13.468467442089738 15.211862164051338 10.703635601867026
Ag 15.55349201607373 16.47850889717261 14.922085153688814
Ag 13.364888549101805 10.794890842379939 13.226728510866462
Ag 13.480903735569338 9.275958693405439 10.71209699158416
Ag 10.877932286690012 13.730014899439077 16.49430293549801
Ag 8.60874687964903 10.777458840611658 14.69868715581524
Ag 15.82067664884686 13.73020189600958 10.023449565504638
Ag 8.590210772224836 12.242153984453369 17.07619475151701
Ag 13.336426121727548 7.918337540718237 13.225158799846824
Ag 15.82684309457536 10.765801506385468 10.029086210386337
Ag 15.7334459489305 10.831371572181867 14.95252046738113
Ag 10.969791255763386 12.243272359591394 13.949164911211641
Ag 8.728746800749287 13.666587516180723 9.765006392025048
Ag 15.572185259813542 8.031504813144284 14.938637738862392
Ag 10.960898281707742 15.18699798450651 14.017476932196757
Ag 8.735355096303568 10.80428893570503 9.76792209087613
Ag 13.201012987903914 15.220188654142577 15.759423387316955
Ag 10.975129269447754 9.299822652251331 14.025462222957135
Ag 11.213362367532708 12.239319696073501 9.006985966735817
Ag 15.727734370625807 13.67932298256749 14.945570915598466
Ag 15.801045211275365 12.251614146805576 12.471932717726013
Ag 15.787669694797998 12.24357275051974 7.638547946073013
Ag 8.883116731379724 12.232032475312604 7.28894256618372
Ag 15.721410531731257 15.128721592653148 12.45710230589616
Ag 11.208587898508654 15.23201758003001 8.967713985112495
Ag 8.889267474070886 15.05446361127671 7.321848711009132
Ag 15.732092798912436 9.372732873997764 12.467363268013122
Ag 8.852115331346718 16.4738514190254 9.807696640950136
Ag 8.898501996957801 9.409932984787963 7.330650503511424
Ag 11.08977417877068 13.69602533761427 11.483649341083554
Ag 11.220998550682989 9.245965940390109 8.97697312620255
Ag 11.239559793756682 13.720136918258978 6.5612345381478105
Ag 11.085505014065484 16.579554293308995 11.519194245518277
Ag 8.870495526303657 7.997092311783298 9.820588344948625
Ag 11.244483410929297 10.751668070832617 6.565360950185795
Ag 11.096481474178308 10.786569353018185 11.487140987874698
Ag 13.576056492123481 13.880812509658217 8.222933144674483
Ag 13.557263944018269 12.239691617564572 5.943205505886612
Ag 11.106481674012981 7.9018431257483215 11.529211158394538
Ag 13.5814767051841 10.604144930737624 8.227131683184359
Ag 15.584563983932627 12.261094341235713 17.436072059942926
Ag 8.634441280170526 12.238080120234224 12.23771583268611
Ag 10.884644605388953 10.763690157927359 16.499395491339076
Ag 15.539560442006605 15.073190150036778 17.395067722144113
Ag 8.708594187272528 15.093445836671098 12.26248350537891
Ag 13.201080336257785 13.701749157629822 18.136264907142905
Ag 15.5556076149451 9.448489042693051 17.40635709581645
Ag 13.208153296636311 10.806554482147758 18.140440360983646
