50
Energy = -108.87736997 eV
Ag 14.115412990284927 13.382268730341583 6.996638928465352
Ag 12.908778955314132 10.974494883399723 6.457436527470351
Ag 15.55522061780194 10.742843184088615 7.637760190000811
Ag 13.38403473154121 8.963191927054309 8.3568548882931
Ag 11.237336320063907 13.057790011984832 8.029847874966652
Ag 16.042515730311415 13.275536810690355 8.971844439720796
Ag 15.9459915224874 8.35177707887418 9.266453513726997
Ag 13.409734816066694 14.658299945261298 9.380136389794007
Ag 13.383976985201741 11.732227613823879 9.13045353972314
Ag 10.714321676231867 9.99810204431519 7.794345939639623
Ag 8.839229009258231 11.78118517709721 8.873676100361752
Ag 11.190439606411871 7.846303966243145 9.673826513360664
Ag 13.750188252650426 7.353842138864554 10.697564319792772
Ag 16.393083414908602 10.799057164500159 10.355495966438966
Ag 8.597999041253901 9.109224374575199 9.717336547388234
Ag 9.343648269431723 14.324253831547827 9.788493833499654
Ag 13.62202505617256 10.105372956714035 11.35908299388838
Ag 15.667194497627111 15.33357075368862 10.953817990110236
Ag 17.42418286146117 13.129529735190983 11.432085785416026
Ag 11.702754584122713 13.187002824935133 11.067596291242355
Ag 6.704349893068829 13.640679486379742 11.691583606999089
Ag 15.808048053112627 8.643169575076165 12.15659354033811
Ag 6.828120673882008 11.029567000323317 10.654772608125777
Ag 10.929579356663425 10.523448371781347 10.492509160989083
Ag 11.353857351258585 15.950170545902438 10.86451180764101
Ag 15.941191757651064 14.15546421107834 13.57190543217501
Ag 9.209882228575696 7.074052397143791 11.484796433111546
Ag 16.052047302436073 11.23778991790528 13.204374064565615
Ag 14.553871518150814 12.819501455021545 11.449554149209403
Ag 9.096982575594888 12.346853177359831 11.901304946882478
Ag 8.842803159652867 15.442548139293361 12.289339527235446
Ag 11.738631509576617 8.234795027768055 12.517524058340486
Ag 6.751136127318308 11.229477991676818 13.416601812353012
Ag 9.226233059628983 9.620488810010533 12.720840051574378
Ag 11.528036141142762 11.226139565932533 13.136310844263035
Ag 11.200467533556123 16.57802120482746 13.591698301555498
Ag 6.784017810237738 8.580908307083599 12.113595538361867
Ag 13.713874694091412 9.754704029457635 14.133655804193282
Ag 10.675064981200501 13.819697800162047 13.767715118324922
Ag 13.770360759033386 12.621388365098168 14.248746114548311
Ag 13.347473829918515 15.055547843767698 12.71143545980953
Ag 7.699187254909941 13.710818092173872 14.314968976251121
Ag 9.522087901174874 7.141837294755827 14.206439391835664
Ag 9.017012579869286 11.402523157971663 15.163571874076602
Ag 8.93651182662764 16.059647866376686 15.041892495200784
Ag 10.937171537578735 9.319886345687694 15.112952209840376
Ag 7.595907530758194 9.015329257560014 14.903583966814615
Ag 11.692743791395012 11.92839563454331 15.897791630915828
Ag 12.470572756942852 14.775956744784116 15.559056500144239
Ag 9.705821268035592 13.791413738534485 16.448344056238515
