55
Energy = -122.013521 eV
Ag 14.701706474340344 8.98029613152766 8.897689063392837
Ag 15.870741564760914 13.588711191161213 14.292312942328119
Ag 10.946834369602021 11.201085269747713 14.528260122272261
Ag 7.850587612626158 13.279209430126414 14.551799668196042
Ag 10.392150862539257 10.020792550683518 17.18203514675513
Ag 15.185436269462095 11.793282381063651 7.954091909412824
Ag 16.336554705892762 10.89234335560609 13.29780575242051
Ag 12.457222339859605 11.962684474956957 17.019122252582214
Ag 11.858866088363774 14.682684135733494 16.40261543003174
Ag 10.449375648534653 10.40409475152284 9.291741427611418
Ag 14.20237193261677 16.000156970883815 9.767051662199053
Ag 11.250620730783266 16.714342206515685 14.428958174387109
Ag 12.200501883867808 15.312580697888915 7.664783587064126
Ag 10.50453311084622 6.707665011058139 12.697223822725045
Ag 7.916789144486642 9.864213034518054 10.397711747305003
Ag 14.910581096381865 11.28380472845434 15.744003215878763
Ag 8.720012564299866 14.146138585366074 11.822230160371005
Ag 10.950724078832755 9.530553657557187 12.181663233059218
Ag 13.053508707327145 13.196570457076492 9.365740128147337
Ag 11.949146584258958 8.183756295684244 8.435229146294038
Ag 16.032278410887038 13.810984532749039 9.756032800983359
Ag 8.391693912173064 8.666543533413416 12.910376030499728
Ag 14.493747210841669 13.949142796163644 16.691332829516323
Ag 13.89877104935658 15.757314755931743 14.481420082684993
Ag 10.226179735436586 16.60534046633203 11.824827838878077
Ag 8.329908079416398 10.491928314549545 15.18697788283666
Ag 13.125488195458717 10.504714489243344 10.488160573475513
Ag 12.68265249149023 7.594831013871241 10.974500205652314
Ag 10.45203053463916 14.676078480335743 9.724623212993386
Ag 8.68235049627364 12.457204832601859 9.631587176401656
Ag 10.689788634409558 12.766310426186294 7.702959095165067
Ag 13.43124378706188 10.431952490546715 13.373419849443954
Ag 9.696036357488088 12.668243533497273 16.64667658244161
Ag 9.807431782805136 7.817343627234915 10.247367542395493
Ag 8.357081914307342 16.056217575402588 13.767327265925932
Ag 10.37024477392509 8.36596551751347 14.937778985512686
Ag 13.076521545398911 13.06102590112738 14.354719308589328
Ag 15.105572977066446 8.740139038598818 11.824292912626403
Ag 17.362038595837696 13.129383562937946 12.018427794720848
Ag 12.857294312382708 9.32561196572976 16.04679994368181
Ag 14.452850381594482 12.711847297211744 11.865666980723034
Ag 15.293463294085909 8.698325006182635 14.69631539769979
Ag 12.524944410331345 14.815999826969398 11.942603265722582
Ag 11.761760711178505 17.203933436798643 9.682442534322712
Ag 13.175536296594727 17.419137169500015 12.223130301938097
Ag 9.209920424669336 15.364183733327339 16.25544751667777
Ag 10.457641284382998 14.026155138679133 13.956210091709233
Ag 12.898409816553244 7.650190156093145 13.770757629694597
Ag 16.199415004118077 10.965816621293419 10.428739495622468
Ag 13.115279058228065 13.014632268450013 6.324821473718261
Ag 8.709444672500956 11.45816486305869 12.539303735096505
Ag 14.984897723625211 14.685850021102647 7.4195192018612
Ag 12.658231864817754 10.65170414421015 7.573843727153312
Ag 11.32717142679593 12.332540661390222 11.688424483048873
Ag 15.477513064184084 15.40337748463298 12.144197658151535
