5
Energy = -7.32321918 eV
Ag 10.809256836448906 9.590084679563626 8.22365706541073
Ag 10.886101535581053 6.935248406237879 8.721577378584138
Ag 8.568713641438926 11.009252626837707 8.9380869559643
Ag 8.727202086429775 8.318184127887308 9.489153135112515
Ag 6.527899941899305 9.71502076738145 10.139831643181369
