5
Energy = -6.40088803 eV
Ag 9.352259210211384 8.784440689216648 10.65277893175139
Ag 11.113347635662498 6.860805996045401 10.927595440269142
Ag 8.650063889341121 9.91623429714344 8.22737790319876
Ag 7.617221659292901 10.833511960487105 10.534905162807016
Ag 9.279211779546925 9.66079584596105 5.694400896263662
