51
Energy = -110.15093215 eV
Ag 16.640990247027197 11.89930964128411 9.873934343517911
Ag 15.364299976753403 14.172847346131906 10.786885031506193
Ag 12.992338527788641 15.43317102247976 10.149567195175223
Ag 13.507347537986998 12.179962613986776 9.764819100568587
Ag 10.903796626101252 16.699576479002673 8.882904589371412
Ag 11.38441323781157 13.889533127356488 8.43409271581879
Ag 17.030003976522533 15.850056521198098 12.296728393432623
Ag 11.515896597706224 11.106248752175398 8.007664776818274
Ag 17.77620886997699 13.106427876710292 12.121349659006452
Ag 15.007778158185841 9.729171634888116 10.261311380245422
Ag 18.087680218307835 14.406511332233366 14.594748100980311
Ag 12.241321392168986 9.521263251197285 10.192865830689678
Ag 13.93520196337616 7.157045338304161 10.248672713925595
Ag 9.045505026494364 15.17452886157502 7.522211717971021
Ag 14.084937335785085 16.236144450242698 12.63061515161215
Ag 17.336419929733832 10.313606638597184 12.174934352461541
Ag 14.856183714643453 11.614471384287048 12.296529057490813
Ag 16.055667100947357 7.853630411223357 12.034484660312215
Ag 12.845930999338712 13.648520815264092 12.267653200407798
Ag 9.293470936056693 12.501711712634716 6.958741035199286
Ag 10.306562024287274 14.888490410321051 10.92160259709933
Ag 15.447251290130165 13.97935591090285 13.639390824800977
Ag 10.728134876011644 11.99293500360494 10.565677147666005
Ag 15.9769007066517 16.354088974741128 14.909424619768131
Ag 17.024028777956765 11.794762078867816 14.639400226614983
Ag 8.340290038550272 13.319403756471566 9.43493573095829
Ag 15.474962457443793 9.547722723543371 14.25770351664701
Ag 8.817434151188037 10.549079930482637 8.925929531664575
Ag 11.318034255712485 7.098587581141243 11.289001116341938
Ag 15.943746967759463 13.805636846266625 16.380439600210867
Ag 10.252547058305964 13.028470581665507 13.128552257442404
Ag 13.446707883850744 12.366951168699037 14.810963816922147
Ag 13.398992090781144 15.250509567534714 15.233892220799067
Ag 11.318889643706974 15.78006739591068 13.4862349541614
Ag 8.863221841174521 16.745975156254957 12.38280060339692
Ag 12.097123121120497 10.880630310415121 12.759555313649406
Ag 14.967125556287847 11.068322224884335 16.675941151511186
Ag 7.750475226960757 14.229031753298766 11.992812893429553
Ag 13.40616594216896 8.389440407422931 12.70088026189602
Ag 7.932919728646968 11.471689554041172 11.498948928194253
Ag 9.60946557870055 9.2782874954546 11.248402314304624
Ag 12.865204312788904 9.564632099117444 15.22600164762832
Ag 10.738034111593965 8.530076378203264 13.700466812599766
Ag 11.021866757213175 13.71687719515915 15.790175185603047
Ag 13.417519732890252 13.599066237420525 17.466593406654237
Ag 8.802751282721571 14.959735324559393 14.5688354967696
Ag 10.167277204099195 10.98655143793962 15.06626736380287
Ag 6.0712492300159395 14.525146025496776 14.142645350790364
Ag 7.75775210606924 12.331457291984393 14.234523789304161
Ag 8.140342315818208 9.629195783656623 13.604158522941797
Ag 11.97159145165675 11.344662112689436 17.115267676466217
