55
Energy = -109.55614584 eV
Ag 7.79340913358476 11.290651010412672 13.168607004758163
Ag 13.84884528969139 17.61024914078414 15.601145377973719
Ag 19.300548441673946 17.644472749747028 13.100613344877965
Ag 11.684708108267762 15.861725875291842 16.556723496937284
Ag 11.316237080123122 17.10648234290157 11.09655521360834
Ag 9.271528445087942 16.315116631524447 14.920789852647124
Ag 19.86262216630205 13.705499167484197 7.393471243131527
Ag 14.271279822340086 12.170894230402356 15.734464600007305
Ag 12.187716849918454 13.24304456334685 17.350883051922903
Ag 19.246562526933907 11.218710105054596 8.315661772710333
Ag 10.127295248332725 10.280231617500428 8.417645823014398
Ag 10.074648175866871 11.641539344184938 18.1190510388895
Ag 8.566577693279239 13.29652629262199 11.339864681819405
Ag 17.37380748872587 9.072109653632413 12.26997733133717
Ag 12.637078154163502 10.413784194163604 17.546677576296794
Ag 10.65513038709778 11.836055090693716 12.772848220974575
Ag 16.544590618210858 13.76201205071916 15.415374444123461
Ag 8.534035946337115 13.838652880606539 14.07694368143496
Ag 9.761004665247361 9.349827784678144 13.754810216430474
Ag 9.471990825230737 11.630088384579802 15.418949741601974
Ag 14.487277818232245 9.415429294627383 15.710842181352827
Ag 20.100799685480176 13.241436279417933 10.034970042136063
Ag 10.244042798230002 9.187315349780949 16.5079504765725
Ag 10.589386950552234 17.477889254172403 8.500176091619132
Ag 9.900756777700478 15.133694364302848 9.626598532211679
Ag 14.05765885437948 14.911862613688253 15.516558435694954
Ag 11.765748608336308 13.571990422780607 14.620274878243672
Ag 17.053753893926412 6.979310948869044 7.892270793437279
Ag 19.15645167857564 10.448931502648426 13.836605553753984
Ag 10.806073575513137 9.20771980793184 19.203630080377952
Ag 16.66661866399191 10.94725194967317 14.867294608836964
Ag 12.10043514873557 10.598683550862852 14.834799440321783
Ag 9.50245345470739 14.097078982643263 16.792784029010665
Ag 19.016908216769544 12.642401272783214 15.440268206253242
Ag 19.94223234303507 12.934280352360224 12.782985839378648
Ag 19.218704460278353 10.836095593849423 11.101000128065069
Ag 19.770991070350803 15.44505682489678 11.593724704808427
Ag 19.04544241046483 19.949033534246905 14.463923204353813
Ag 11.363161636522033 14.38551545429729 11.934105000645571
Ag 17.987036055786973 17.229172728561505 18.379591162679137
Ag 18.763478415007295 17.61643041203796 15.791417954595063
Ag 16.278050972613812 16.459146660571076 16.266319901802827
Ag 10.7437885670716 12.447507724288753 9.892479002168939
Ag 18.02617623544987 8.907758901211132 9.569977311378384
Ag 9.283074936117302 10.268241351699093 11.010981351868223
Ag 18.65973128850245 15.022128360650573 16.886024272133778
Ag 11.188999784806292 18.44510152632207 15.699928895309274
Ag 9.331012037306527 16.93263123180837 17.571326027943943
Ag 8.445770013458011 18.909403005943986 15.59315348914612
Ag 6.424963983140379 20.502798203860216 16.080771130312858
Ag 18.334953974388803 9.103279759177783 6.847931597337595
Ag 12.031143671539494 16.428528091285543 13.749165837942574
Ag 8.952871502586815 15.966251145685527 12.1851476341944
Ag 18.742566066318705 15.123467370345072 14.12611245845559
Ag 9.968720602623698 18.420356281303224 13.19870525007454
