50
Energy = -108.82971465 eV
Ag 16.85536243728237 8.988263590894087 9.169204898746642
Ag 15.645889886502125 11.406720580154778 8.487092797945483
Ag 14.091669131206771 8.593348733341461 8.692964091881912
Ag 17.46654457808241 11.204286057002143 10.754360238745157
Ag 15.418531741470945 7.468242888429978 11.037333059798083
Ag 14.236307347471778 13.75018327955523 7.880502157034605
Ag 11.351727722670002 8.520081163764187 8.332388057005666
Ag 12.844067842820332 11.059924315628033 8.190739929576274
Ag 16.164190030024606 13.605828504864716 10.206567996181379
Ag 14.803119206880869 10.187871038565866 10.871313223524378
Ag 16.53906150948556 9.483514780791399 12.92415177185731
Ag 12.624180921616897 7.197372806198829 10.755211825504178
Ag 11.98944747370876 16.293270249729183 8.61755726046853
Ag 10.038971574820408 11.111100581595796 8.554904435939836
Ag 14.430467032226447 15.731815232956079 9.827829544810495
Ag 13.82105073506227 8.594428058495517 13.093225472238505
Ag 8.493652809613534 8.824737842005023 8.489967279600688
Ag 11.48519503032809 13.566911107319205 8.458593038602217
Ag 15.708681933690837 12.244449202239698 12.7596938741374
Ag 13.530514832652191 12.652828990688075 10.3982277890619
Ag 9.864820256381773 7.70833210400453 10.590882969581296
Ag 10.147609588166322 17.17065473926126 10.530454531667203
Ag 12.868758095695812 17.334667922292294 11.521397594461352
Ag 11.926453660204862 9.855395126888938 10.773154916979015
Ag 14.349006199342611 14.66300773692714 12.360870757091622
Ag 14.78571084713957 10.681693892839016 14.939883491399312
Ag 9.249783933547102 14.490510944127218 10.010024637229776
Ag 11.837418555971878 14.87353362893328 11.054938741020315
Ag 13.86280154652885 13.39976848291953 14.744363830915466
Ag 10.724302630219723 12.327702993720212 10.965859758347046
Ag 12.365515109250277 15.883293342463638 13.953710440958549
Ag 12.958645227427894 11.390198736448788 12.878920935924052
Ag 10.67579641351629 18.111244363495302 13.139570489162335
Ag 11.08032241998631 8.087132703771049 13.050459920882256
Ag 8.581590216809978 10.39261014488904 10.825226130482317
Ag 8.268139553947186 8.380448184161954 12.786763706104638
Ag 11.116284556453781 13.430478636635616 13.509522313292585
Ag 12.136684366726564 9.652964678531204 15.165879108544273
Ag 9.390056875860974 15.57395594487991 12.682113256331219
Ag 10.140243016769096 10.739219984319341 13.213891493066857
Ag 11.563845724890658 14.273605879225912 16.149953571373185
Ag 9.955973495538322 16.477853709313255 15.26178693984349
Ag 12.943929688817748 11.761946293330602 16.813906919674174
Ag 8.317925046107252 12.864161086919966 12.440653578427812
Ag 10.316641406634337 11.747681638649748 15.916728812615958
Ag 9.373068700356189 9.063281156157485 15.285581993372716
Ag 6.490097678578632 10.592708249577209 12.651801224144256
Ag 6.571877602343386 8.844148829827496 14.938448879794704
Ag 8.723048104129205 13.997522161472968 15.069179752616174
Ag 7.697356224311226 11.428039986619611 14.930736697298945
