52
Energy = -113.85118125 eV
Ag 9.592253210975612 11.068774921239177 16.40102652895738
Ag 12.524804263083798 11.236816382375295 16.638929094044858
Ag 10.990605136094125 13.649115092258658 17.07751203631082
Ag 7.095091516866083 11.448784092147653 15.23901384508392
Ag 14.335886969516027 9.12785283233859 16.423931916957017
Ag 11.281820787429728 9.243295556926562 14.917415379479714
Ag 8.680411002635543 13.788480026223597 15.501425639637377
Ag 8.788740291927466 9.72608810841009 13.844684826018813
Ag 13.397639555058571 14.029387267921939 15.556244506957789
Ag 15.134336062422316 11.777016437689987 15.559547420623396
Ag 11.119607141858927 12.467794942424508 14.608106567330438
Ag 6.3846923901076975 13.703285328510193 13.82369081967085
Ag 6.527344181497809 10.947321372157987 12.47354922879663
Ag 13.600160433110794 7.370223190048498 14.299916294601436
Ag 11.027098028862751 15.322517945965341 14.633123778966945
Ag 13.62990861470713 10.063589556570939 13.880609775108645
Ag 16.180165400499394 9.043327767743476 14.247049604657127
Ag 12.136824672378333 8.334102018627002 12.051120775724451
Ag 8.784367713166136 12.433454082695963 12.924487902971045
Ag 11.194810498125305 10.895073811549814 12.360900456424012
Ag 8.612666492503676 15.334119640921926 13.03961470503025
Ag 8.908356613799054 9.897349356559221 11.056737844894167
Ag 15.759293760878537 14.151609596297607 14.001247049981
Ag 13.463254202260414 12.644500410359733 13.086027224874925
Ag 6.976911066606479 13.801397387727492 11.138757673663479
Ag 15.0361000088926 7.755815926649755 11.911426632063714
Ag 16.169021725745313 11.574341273735289 12.981421521894791
Ag 17.36326000693993 9.520549794270744 11.71198837725175
Ag 14.268128095786043 10.34259496293965 11.179609386543596
Ag 6.971683389428219 11.365910033463733 9.750004092411718
Ag 13.374997782302982 8.007873161654791 9.575371265641461
Ag 11.050463813798084 13.951281161490884 12.18628227012952
Ag 11.370532417065348 9.9551825628129 9.631123720520801
Ag 9.762252005546983 12.491501402338521 10.143905409558942
Ag 16.020927271887235 8.881793529552091 9.394337019703274
Ag 17.865537765322507 13.355608367812383 11.75365551506357
Ag 7.665608654177864 13.704447267288412 8.446921384012539
Ag 13.501300966009746 15.485079230630811 12.623434892846415
Ag 12.657088232416926 12.44301096261828 10.357854206769138
Ag 15.119807018576232 13.607584834496219 11.150684216724894
Ag 9.215255727326152 15.318182988927411 10.259402851277379
Ag 16.558495375017504 11.616518591131666 9.80023210075411
Ag 10.978829693164583 16.693691270454337 12.002141170428251
Ag 16.50307777850363 15.911930520380515 11.949054137927359
Ag 14.134756761928143 10.68793384347455 8.411961945805752
Ag 9.168835610349799 11.137875877756004 7.917744279996707
Ag 12.049222741618916 15.161867860449691 9.78183010204842
Ag 10.264864493203273 14.238629681997281 7.822429539081172
Ag 16.92683554472543 14.455019194764288 9.290006448640721
Ag 11.860975772611521 12.04835661707468 7.687681445866722
Ag 14.621637831444005 16.06612014832932 9.923824238766224
Ag 14.288501777458373 13.58896074338685 8.419551281999054
