51
Energy = -110.6857316 eV
Ag 12.04044496075546 11.563295458023973 19.6515309593676
Ag 10.844469760275132 13.311924895722473 17.87394282660044
Ag 9.612704473036306 15.260716198347238 16.28668276263057
Ag 13.69088297760252 13.242627979171719 18.114142284284437
Ag 8.426193403063818 17.412175136785837 14.984160983924605
Ag 12.486537444913099 14.936825028049205 16.166212011251254
Ag 11.221047522894457 17.20265640798496 15.020936104846202
Ag 15.28365455806579 14.93528342983354 16.555647161198483
Ag 11.049404892660698 10.477125414617857 17.233628013513115
Ag 13.85680553085986 10.468993516748544 17.87906450052941
Ag 14.005582663914748 17.111289227164537 15.290708861529687
Ag 9.603926918932096 12.544235764251528 15.50593284959156
Ag 8.333566683762468 14.737294492155966 13.78953046809981
Ag 12.52394549860028 12.099412130484643 15.546682425887237
Ag 15.380080125442884 12.200982606276618 16.10856822273649
Ag 9.79866349784134 16.944911893476753 12.644902010138203
Ag 11.077445724455291 14.296040542159378 13.747401982356905
Ag 17.66620177936254 13.751286529545885 15.471942281358377
Ag 15.798310760006322 9.350017695216078 16.25512717564882
Ag 13.855291983489414 13.778388773614264 13.77000061415915
Ag 10.499529017380402 10.10141131680345 14.481447714065952
Ag 12.870211159879313 16.425063510976187 12.815753040274783
Ag 13.027787108034364 9.217664725264168 15.547112854205741
Ag 9.279906813034337 12.209283724063566 12.766270536164301
Ag 16.176503356879017 15.773024260748329 14.081243887105654
Ag 12.07485882191087 11.657420740992974 12.7369820796029
Ag 14.00273496278077 17.318303847353885 10.250837667989764
Ag 17.893905409663194 15.20049018970865 11.876503507768394
Ag 12.465351712194268 14.125108494184634 11.19158017765296
Ag 17.381433974019192 10.940489546990811 14.53199611896423
Ag 11.258261466322304 16.727271970653508 10.349361208281167
Ag 9.603281045779667 14.550095324680735 11.18384894646946
Ag 15.214144509975219 8.081471009792322 13.899285849323894
Ag 16.520333951286002 13.12093073191425 13.047372915851662
Ag 14.67012583981865 10.793803670981802 13.744192414141722
Ag 10.156429011459316 9.70886542940154 11.71229504115307
Ag 12.56455650273611 8.758468398451795 12.824350567722064
Ag 15.133514249787485 15.178490508712816 11.592450010594103
Ag 14.435170910097616 12.139555881309727 11.295442085826641
Ag 14.385614798882886 14.886404898960858 8.962746601992878
Ag 11.13766239556929 14.415278335333976 8.683985822771366
Ag 12.564089124431797 16.704630296407483 7.87575962739565
Ag 12.58527148351311 10.057394309560452 10.300650388248178
Ag 16.97952787954176 10.755318885749897 11.667203629751725
Ag 10.616076739336293 12.094904292643003 10.213800252620938
Ag 14.934059519779568 8.98110564851184 11.303004877442602
Ag 16.641502061284267 13.29088877670868 10.042282385076641
Ag 15.532657904068143 12.846227198893247 7.425615017891321
Ag 15.573746324848717 10.706046528284261 9.169471646017604
Ag 13.10049231871351 12.331248998647986 8.775611712539606
Ag 13.05591895274118 14.16484504315592 6.639669051682899
