52
Energy = -113.86887893 eV
Ag 16.249128147422777 8.841219536571334 13.000415983872424
Ag 15.878331794046785 14.380249181697671 13.440913360033292
Ag 16.368556185940562 13.392622437374941 16.181172196479814
Ag 16.073832959790302 11.229612599203707 11.457874052237942
Ag 15.493204509076891 13.588348505736557 10.116173510989302
Ag 15.004964639682976 15.81401625164978 15.855695423745093
Ag 14.300402583175009 15.645628545945602 11.430216199520254
Ag 15.778974003933875 11.433956289467021 14.245186223095018
Ag 14.974334286098562 8.70281933495138 10.476621293049435
Ag 14.97757833419054 11.118798836278353 8.826731359154019
Ag 14.513527809924533 8.946834281375134 15.157488095375866
Ag 14.661865400362675 11.289735703862796 16.88445122337847
Ag 13.727072451029368 7.309978579187889 12.75246109215359
Ag 13.081041150547346 15.930901782165442 13.889240109322813
Ag 13.863522338434354 12.813190184007311 12.359864969808813
Ag 14.113354307478797 13.569874030630276 7.687017387568715
Ag 13.898943362076704 14.046692423266434 17.759991442636824
Ag 13.69532007064191 10.051873753348332 12.659177138005184
Ag 12.842053968592568 15.754772659980505 8.927430635139508
Ag 13.769560031260756 13.371013955251327 15.114813647524127
Ag 12.411530327522057 13.25788535436174 10.022359415153067
Ag 12.542329140640387 7.245670602646601 9.971765625940582
Ag 11.490122756503293 14.729792392704436 16.089180895281636
Ag 13.597906018055854 8.7412322969889 7.87268043550547
Ag 12.743889210010751 9.362429196379857 17.22923300688547
Ag 12.175900835060812 11.042084343966147 14.77373550262849
Ag 11.43523701878361 13.753603147512276 13.439874047795197
Ag 11.555939014156062 15.881655358496136 11.472573322462745
Ag 11.810284827650042 8.166103149489878 14.786657481265774
Ag 12.614354859246005 10.182716467465266 10.045059369890156
Ag 12.566566123754376 11.25258256751235 7.365793963863892
Ag 10.158941475848337 9.937666152684615 16.57371026009768
Ag 11.2470541245712 8.505042566360636 12.028236569714501
Ag 11.894013636874925 12.149269954421804 17.354414063111637
Ag 11.186234890152521 11.432982486158988 12.030554048246604
Ag 11.296246929188747 13.7549504078755 7.361937825238126
Ag 10.031150942412614 15.647276110953866 8.999041729707306
Ag 10.265675029235434 11.65002839337416 9.25981572396193
Ag 8.787184315527286 16.40711081912212 11.512907219822615
Ag 9.020538279837583 14.84029715750574 14.043036284330908
Ag 9.64685095411507 9.775979433265153 13.886525295361768
Ag 9.780676613276183 12.523445701330061 15.47828634265217
Ag 10.723846967707477 8.950079924559844 8.376032072796683
Ag 9.68193530445071 13.804101212467936 11.098518669100223
Ag 8.97084140416595 9.90085347347359 11.067883279874511
Ag 9.950239006248786 11.238055599050952 6.491571617920691
Ag 8.516053067383712 13.283810926412768 7.763237323847286
Ag 7.347597386161029 14.997414824804384 9.540460752968158
Ag 8.504751463509143 12.114947137645164 12.981442022274939
Ag 6.959140431613911 14.274726148636603 12.186040368145497
Ag 8.087019177599593 10.216268049446958 8.357672105324015
Ag 7.453288645603774 12.210514656115588 10.248935435280368
