54
Energy = -118.47395834 eV
Ag 8.688720931233854 15.396848490018208 13.684392829557673
Ag 8.36895641703899 12.679958316285429 15.325666939288768
Ag 6.97723003853818 14.21495322940493 11.86202086365487
Ag 11.352091356535016 16.233511993412957 12.837225393209396
Ag 10.778284926402572 11.274481016399431 10.53762884096557
Ag 8.579886734030632 15.222980195191974 16.46352065643777
Ag 6.713563969381489 11.81866535512627 13.25985250188076
Ag 10.888039624181609 13.75841757393641 8.902450571011373
Ag 11.634674748120826 7.338533116137297 9.832445809318521
Ag 10.463234650438846 8.79865098935354 11.986594384491028
Ag 12.731163385192568 7.191618798157539 12.417552254170113
Ag 13.009912014440292 16.214858848725527 15.111778618904284
Ag 14.098980036756581 15.65698999628707 12.586511952993195
Ag 11.856431371966138 9.739695583417067 8.171061044445983
Ag 10.805005335896917 11.10200065336514 15.977195086957448
Ag 11.752484476528563 8.829301594152568 14.509477282415181
Ag 9.88220937974866 13.073567098600352 17.661186740466924
Ag 12.108791135068753 12.275261273875719 6.800415627507985
Ag 12.042376646283424 13.61695507354571 11.813064599231542
Ag 13.173357357001615 9.496077920761227 10.861555640776055
Ag 11.341427301352345 15.439848138860421 17.330852195431817
Ag 14.380795280016843 9.22668253016652 13.410010880510693
Ag 9.0649362318149 10.232700740598894 14.004724547397235
Ag 16.592991191054214 9.983729816467237 11.921893510698032
Ag 14.168306061422463 15.223593090378493 17.45483673890775
Ag 12.634769622252563 12.958492064377158 17.0388523325163
Ag 13.627074339338797 10.801195452374479 15.563193255785727
Ag 10.944404958752903 13.935580043484528 14.769175115105233
Ag 11.769140476127923 11.343844320965403 13.325796087818057
Ag 18.424602921299897 11.966447985102896 12.78336806896816
Ag 13.222739515346229 12.017212902230723 9.365861493119056
Ag 17.81541179461666 13.500557575814938 15.0851676085038
Ag 14.033812455633282 8.03549138758321 8.53348750322126
Ag 16.094274187223046 11.34442085346809 14.306092838271583
Ag 15.428567366739431 12.883946110228155 16.516301886941026
Ag 9.330273689289779 12.78288643882878 12.621093046554183
Ag 15.51552638595422 10.226064825804482 9.400704802824043
Ag 9.378671312483233 8.991041151483001 9.337788139073265
Ag 8.164127518353169 10.394701313869284 11.361298975189518
Ag 14.398160864578028 11.811455932000564 11.930769045110505
Ag 15.672236066984924 15.350751872713845 15.05569089981272
Ag 10.477379857198885 7.526928697063906 7.29744992979552
Ag 13.71530524357912 13.368910630395822 14.258899962001376
Ag 16.920569531884 12.392781426121525 10.443379079043599
Ag 10.34236010821365 17.033065868131903 15.265506084323151
Ag 16.30189311929242 13.88591429286637 12.732767754949897
Ag 8.400231401479545 12.825916016660672 9.8932316591032
Ag 9.632024302877461 11.390052813117448 7.853827913174459
Ag 14.25756603454338 10.455115824178112 6.945466381432573
Ag 14.848069871711687 14.291359684488684 10.291140540832735
Ag 15.555507650005854 12.745616651958821 7.99169122850034
Ag 9.592853843940011 15.138274291116248 10.996488345770993
Ag 13.397697716219529 14.571440145643454 7.880067470171692
Ag 12.414452828647262 15.82173444977906 10.19084988074809
