52
Energy = -114.23611317 eV
Ag 12.83246930189234 10.88510958776068 6.606920555180465
Ag 15.391944012255117 11.218443806443654 7.819764163338056
Ag 13.858452017092684 13.454664184033886 6.8640753773405825
Ag 12.917749635942213 8.853389737142377 8.47585967497791
Ag 17.188312968159977 11.632142852270237 9.971158116648445
Ag 17.187283710650505 14.265116539226131 11.189971507856082
Ag 11.22170710472208 13.078312261329767 7.64947933960356
Ag 15.541182053307676 13.822465562843519 9.005567571411612
Ag 10.557916823357315 10.375807542246166 8.146768624059957
Ag 17.333342686202403 9.43300715640848 11.679461758627303
Ag 13.100099340055525 11.809851408557282 9.345826368724063
Ag 15.014501670640257 9.667779383856516 10.14135374764491
Ag 17.323361209531644 12.02044279326471 12.903891843944205
Ag 12.701376356847632 8.084590949274995 11.118639099378345
Ag 10.378371555580422 8.099087605041143 9.644452109181817
Ag 12.838289109640005 14.914622859004881 9.0397051449745
Ag 14.572178490069765 15.436231287293193 11.21549624708475
Ag 14.985640962418143 12.491626371939894 11.464631674668377
Ag 14.884795556903548 8.619597249369546 12.729195592323569
Ag 10.094067564159884 14.5007913904412 9.926524135957118
Ag 15.766257994426327 14.435379505279652 13.620586262663782
Ag 10.178113271912428 9.307410109738884 12.201217420056622
Ag 8.674869343990997 12.40921726085262 8.450832593501607
Ag 10.500197017172827 11.766084540907286 10.692027849363145
Ag 16.832439237759786 9.71560502939052 14.413026852983704
Ag 8.34529713429073 10.17062159926548 10.216346759609262
Ag 12.384556435652039 13.602286581145139 11.583928752164887
Ag 12.91285536420304 10.713848178811935 12.021749197219226
Ag 13.577067007641237 12.732006453453137 13.95512369000484
Ag 7.836221059104895 13.086800886882964 10.955757461416985
Ag 13.101951922658717 15.698842072063144 13.67750477785461
Ag 12.161842717409176 8.503292352000381 13.915303141815073
Ag 14.14116372962133 10.100937513894031 14.969032056714061
Ag 11.730805302839286 16.349753778620983 11.257814834791207
Ag 15.90882928032981 12.240741292063722 15.440705133363227
Ag 9.299351314941987 9.643333396259074 15.162005821937464
Ag 14.141963625806579 14.580042844012986 16.03577654691838
Ag 9.875432161261891 13.55490164666961 12.925234988630468
Ag 8.240863956994634 11.148004236784796 12.970790347622996
Ag 8.620014001182472 15.830997663622068 12.008125425201836
Ag 11.157260578535608 11.301445802185528 14.191560064380207
Ag 11.327963112468714 13.868876799318306 15.311874913670486
Ag 13.306937805860812 11.966730791299502 16.80568091802682
Ag 11.81267820730738 9.567872500530726 16.484246001964625
Ag 10.609857135104557 16.921535369791776 13.680299790327187
Ag 6.995469450981527 13.688545804421924 13.483315817836845
Ag 11.655644232518952 16.388759770681393 16.203432401035123
Ag 8.687033913172126 15.416305482915181 14.87280355747852
Ag 8.638092211275197 12.513261745238758 15.414229698635122
Ag 12.16243510445997 14.200717792678738 18.026036327518653
Ag 10.538554851953178 11.860695464227135 17.32360437544214
Ag 9.49699785933593 14.557618715302482 17.33337400706587
