50
Energy = -109.09037201 eV
Ag 13.083599331395943 13.772496640139362 7.667690259965774
Ag 13.732411639126928 11.199848319835777 6.677335962490487
Ag 14.42780742547883 14.899284641651784 9.926939431418518
Ag 15.180470090493014 12.257315777386502 8.795598398426948
Ag 16.524052686105996 13.339459998502482 11.042591098005099
Ag 11.003456695170017 11.850349780562203 6.630409179681071
Ag 12.146083064520749 9.041820034652385 7.421132042977506
Ag 12.181708686018029 11.456910291482863 9.15278940138907
Ag 14.693104190927194 9.423275424731708 8.630900239271547
Ag 12.183684975570312 16.120813566044234 8.933585943144735
Ag 15.38612734802123 7.789528304926436 10.877645734052475
Ag 14.78051365960498 14.736455540518316 12.804437041082736
Ag 16.00978878713646 10.553978470596725 10.953794374586721
Ag 15.621667206272573 12.046683447143678 13.37555397701121
Ag 9.72074473279614 10.020437469568659 8.324801022334535
Ag 8.343675488576014 12.393633513406039 7.528625943953455
Ag 10.440186777503905 13.89393000433186 8.540309640970264
Ag 13.287434602479282 9.641903409739847 11.10669797691245
Ag 13.731024835956408 12.49438898628774 11.214551261525237
Ag 10.268719578793752 7.320146953763273 8.62470222421769
Ag 12.897974555288275 7.31211611841223 9.60402323831775
Ag 10.060564557804922 15.729677305550904 10.742040376307536
Ag 10.274785837097959 12.95984113972446 11.162889881046043
Ag 13.17343333548115 7.240249240152089 12.640045374071907
Ag 12.617654820062869 16.250370275671735 11.725293485047157
Ag 12.063961356580124 13.807571447730504 13.042177440529262
Ag 8.319451977597172 8.529306064954362 10.329505761589878
Ag 15.09079714775256 9.22039703924382 13.334209424220568
Ag 7.901774470852307 14.064519679314422 9.872698009736627
Ag 10.718785404660704 7.472380705300589 11.386047218595229
Ag 12.840946718041558 11.102892359921775 13.461279190557827
Ag 10.26579584461133 15.886324638537259 13.564687211429614
Ag 8.087039874418899 11.294854061771462 10.10915880339008
Ag 12.915195309948185 15.994780460155 14.587452359897478
Ag 10.622834459438177 10.282232777021624 11.238555163937244
Ag 7.797722634496228 15.416036483876734 12.36864982315009
Ag 13.861357423600099 13.388472208247588 15.197166184745
Ag 7.569889505624593 12.667426102938423 12.418397841270451
Ag 14.716788350827171 10.742924435252585 15.695722148980588
Ag 10.139128685996445 11.77733013543478 13.778426607088612
Ag 12.774413482878506 8.78291405504716 15.046040903551658
Ag 6.571992102505112 10.02545691875446 12.113777094402748
Ag 8.960368186635558 8.99271595999845 13.070958189220622
Ag 10.790003766018586 7.116719565377236 14.195960726355688
Ag 11.08879784891172 14.0928846814133 15.715956370725555
Ag 8.416998864774358 13.974979252388227 14.716997283313972
Ag 12.007828595291826 11.413240881875804 16.16083164787782
Ag 7.590901830932128 10.934843159559483 14.627487097392045
Ag 10.04523084719434 9.47037741493558 15.578863474307877
Ag 9.321325010047701 12.05350946348543 16.53461512284266
