51
Energy = -112.81861771 eV
Ag 9.626962212972396 9.526320484668142 5.161686149125414
Ag 9.995318990203685 12.176283274042934 6.272737439850156
Ag 12.28716789527249 10.382890546160791 6.079322698463084
Ag 7.523540436545412 10.658856286794947 6.842798063820803
Ag 11.42308332188487 7.722199883815888 6.442068774614303
Ag 8.177495733109794 7.878959941326824 7.07192143618637
Ag 12.607765861869357 12.977105666173324 7.295772357008997
Ag 14.842268689089009 11.164251936733384 7.277074764107577
Ag 7.9064233879708965 13.272288444469204 8.007502024907621
Ag 10.080059302547237 9.816446464128445 7.859267809869495
Ag 5.573565505511395 11.746683696859515 8.725145109163574
Ag 13.916197864204284 8.469354607547452 7.5903904137617415
Ag 6.251815747686931 8.912386487763303 8.905450127494685
Ag 12.923142283991622 5.8619372134172485 7.999706325220006
Ag 10.013661288744407 6.002196393243537 8.114223028162309
Ag 10.44660646475382 12.53898877119362 9.017093724222736
Ag 12.662175258883408 10.631526284580998 8.894117799986155
Ag 8.048051072677692 10.947445575949812 9.636641025865952
Ag 11.65934013783537 7.815509450456988 9.443842931641626
Ag 8.736512493667739 7.94710095704946 9.86031946556668
Ag 14.418798151887378 12.80668949715079 9.60167075860957
Ag 9.125023528684192 14.794200723184982 10.06398797060958
Ag 6.8367932526116375 13.267878206529266 10.83623019536557
Ag 15.280010144331618 9.985839462709304 9.84054404627036
Ag 12.266294217776995 12.178476257216257 11.337931589485347
Ag 10.510599303436818 10.106415094611595 10.574951554824779
Ag 10.494012280031656 16.653435635806325 11.50926752393972
Ag 14.368240014273583 7.248117942079445 10.139041950497623
Ag 14.028221729778913 14.171233758802018 12.103848619795746
Ag 8.350408560219757 9.739064757581232 12.264177096331377
Ag 15.482858814941357 8.647438128465447 12.410076572122982
Ag 14.826955754071811 11.44047570993888 12.285375155252842
Ag 9.421221869460465 12.419883215352947 11.763482909976316
Ag 12.074880069569941 14.699603079926113 10.029041684255292
Ag 10.539569433358833 7.776633317873888 12.177332994212842
Ag 12.997959814451145 9.333370388484084 11.512632026484626
Ag 6.437301201846884 7.874498384457406 11.595788790956215
Ag 5.7690261883127825 10.663129304937739 11.365072697947127
Ag 8.475352715645245 14.770706613960543 12.869274365188323
Ag 8.340315495753304 7.598647304003523 14.058515125146105
Ag 11.299629653873515 14.473714135025949 12.882408686803767
Ag 10.969393462012771 10.537388709847354 13.312172953893642
Ag 13.13835175571934 7.198770410555273 13.294976530773807
Ag 12.842101703189366 12.521159200685917 14.151931867950346
Ag 13.537485924698277 9.762855854944844 14.329377709883705
Ag 6.186112698146227 9.50904403583958 13.95773234237006
Ag 7.2283280417485685 12.149499248523025 13.498154510629359
Ag 10.995627689881216 8.224135045571245 14.929888269831375
Ag 9.801477514986365 12.82756995397081 14.621657731968275
Ag 11.424576455381793 10.889255077208805 16.015197478733366
Ag 8.755707366168009 10.205927934049999 15.094965576520709
