53
Energy = -115.85432286 eV
Ag 15.053565757831494 12.597815328530286 9.632530264882087
Ag 15.848567788229637 10.528835707673943 11.683354097646498
Ag 16.984932105230907 10.25900238816094 14.369698261335628
Ag 16.97764658037912 13.284741933331665 11.497867729983017
Ag 15.645085354861077 12.620249633358258 13.786883097498476
Ag 15.229432496806066 8.76859078682212 16.14419123975479
Ag 13.721267321575525 10.154038143561097 9.520360879185967
Ag 15.628852730662187 7.991838796012969 13.341395184892821
Ag 15.864890828532134 15.295801981361588 13.15415769863091
Ag 13.939698685360252 14.708606274935283 7.996438446706589
Ag 13.395459412698456 11.977220736704043 7.436796519418885
Ag 13.386673027773105 11.79157134034999 11.88659907910971
Ag 14.57248677092286 17.493425458543168 11.906718837340671
Ag 13.35230291194298 8.718233956356714 11.831382586951777
Ag 14.843291644880248 11.620474265771248 16.395129382556984
Ag 14.171954294029115 10.240715629324528 14.068237666406125
Ag 15.380283801938091 15.306468406630938 10.35775974449307
Ag 13.13997423455319 14.710459352108456 12.3270558074955
Ag 14.717705703161357 14.361288643594216 15.738370678663562
Ag 11.552015785672857 9.767581649451344 7.685378685384223
Ag 13.02844406034101 7.709950772226284 14.48154317525666
Ag 11.775238623910136 11.235701200167414 5.300019581349967
Ag 11.133518927108303 10.560143101742687 10.624916678084674
Ag 12.184971851236366 13.975373384445524 5.918754819700616
Ag 12.263550012668192 13.284733303474958 9.838417052573368
Ag 13.845553254434494 16.679565360690347 14.505605540286279
Ag 11.595077984063781 7.929129528221436 9.774235428239049
Ag 12.611872413945333 9.789690665296773 16.45210213224734
Ag 13.382794150911273 19.29196997670125 13.788433138370731
Ag 10.915425997835287 15.094775298810013 8.244971776416392
Ag 12.806365043710764 16.359521965365797 9.95318694628451
Ag 11.417344293696777 17.771214586005627 15.1685269174511
Ag 12.16995883179347 12.524672381716657 17.17776504101878
Ag 10.922712752764504 7.572890095777172 12.641622303629386
Ag 10.495043726458594 12.400142011657142 7.491478428323506
Ag 12.013515753961041 15.149623040423164 16.04103710291154
Ag 12.789000116499771 12.744398965558108 14.512542259855897
Ag 11.777746640791603 17.47507282706114 12.375732929300144
Ag 10.883484487164496 12.875423379085358 12.442225820585191
Ag 11.286857330589099 10.290405118397864 13.634567813111877
Ag 10.45208678124295 8.180106626750064 15.481223651280354
Ag 8.993691561674233 10.453410902458813 8.86388275127266
Ag 9.410780717475015 13.03994879647987 9.975748539485638
Ag 9.032563416790238 8.48314804287129 10.807300473571587
Ag 10.34215604574726 15.56298578730256 13.811853501629647
Ag 10.021262893551048 10.778818023744426 16.518559219782016
Ag 10.420343616519725 15.392782370657194 11.055321098596718
Ag 8.57466783291935 8.858012399486533 13.528756324725984
Ag 10.023346187121854 13.246827939066943 15.281233455042813
Ag 8.62404225214651 11.085781866203245 11.82170538145448
Ag 8.371278310954471 13.72915296259722 12.872114698284133
Ag 8.0270664244864 11.433173387725436 14.564703842181405
Ag 7.879046250967688 9.087179759905554 16.17912066528354
