51
Energy = -111.2692509 eV
Ag 15.073748028822456 7.526096099299457 13.630857289458552
Ag 14.865979745236894 8.092862645369154 10.800923609932664
Ag 14.116030516407116 9.090568114335607 8.288857171951584
Ag 12.174440721461973 7.665424279629445 9.7706636040796
Ag 13.022120528767124 6.336160819144158 12.105337249169862
Ag 11.242070380417275 9.555130304542478 7.831937348496973
Ag 9.290004393918435 8.428766088617163 9.625610421097058
Ag 10.58225911968368 7.703441003968344 12.146103040799417
Ag 13.12132234602724 10.865335918347757 6.2323757078765185
Ag 8.438916899459464 9.535292799011355 12.257599203899595
Ag 15.481800488023563 11.547104519714335 7.643356992167569
Ag 9.158465332223768 11.24305450847511 8.816996953589816
Ag 14.486167733460874 9.46312936339049 15.567861299968708
Ag 15.57120893840038 10.265883882500715 13.085450698911874
Ag 15.361149590778847 10.888013607242973 10.33612032560092
Ag 13.120153421158772 11.745161153209837 11.653924515001894
Ag 12.289200568998487 7.4666071789501 14.665937172947913
Ag 6.954248394149103 10.062883855316922 10.002020710037298
Ag 13.01462547580014 9.152794394182106 12.630810871740874
Ag 11.114270781753156 10.162203509465664 10.614188747397954
Ag 9.656117983234465 8.670604673425006 14.593357999180256
Ag 10.980872480135394 12.56672611143632 7.194259716543652
Ag 10.85956454150515 10.877792172825389 13.277631362088892
Ag 13.721347772925485 13.61688790015887 7.042836627909295
Ag 12.939923837896394 11.65948124896811 8.900096665721296
Ag 8.24962235298691 12.203765687576226 11.325553757387125
Ag 11.716721828445168 9.923054732241356 15.925485374859365
Ag 13.33266069674374 11.741869450998129 14.336712171234606
Ag 11.886290798034963 14.898324921422011 8.588933736133079
Ag 15.468372242085616 13.023133590742455 12.524440285290353
Ag 10.900834851499152 13.069554640262309 10.62539387361099
Ag 15.838046889033413 12.279009897436005 15.292988952002396
Ag 9.929399004504043 13.575047546241137 13.316454794396645
Ag 7.094599974570459 13.597047003659966 13.435627676333905
Ag 8.489390165708581 11.385689645785083 14.591757207654878
Ag 13.56536819819927 11.807035508249639 17.07306233104943
Ag 9.122967499333432 14.124194892972902 8.79357239686785
Ag 14.168170502049543 13.904269592023548 10.050542926662665
Ag 11.100543593130588 12.659362287514345 15.823127383079083
Ag 12.67434590195871 14.2727910277727 12.734615396217663
Ag 8.531685619435713 15.064700490103327 11.378349250046766
Ag 13.54850650064339 14.274620777178356 15.69337236307287
Ag 10.191023455641014 16.644152298038517 9.859325878150772
Ag 15.291455816780077 15.747523973629143 11.879118248505758
Ag 15.90065213722211 14.998232199883223 14.475694231222082
Ag 8.509168018944534 16.06007006259204 13.985234899589583
Ag 10.818671996573581 16.585031087029062 12.55539212794091
Ag 8.64377072364985 13.97606395415343 15.832308725832783
Ag 11.089846332223846 15.437696920262912 15.104768775922512
Ag 12.878148374468598 16.42282039254912 10.76072514628128
Ag 13.434269769224368 16.596709596997908 13.902616458504552
