53
Energy = -115.8325717 eV
Ag 16.011952115541284 11.25796617180145 10.746530136292074
Ag 15.675695765127955 10.438827939576951 8.086387174201501
Ag 16.430490872723524 9.234623926188995 12.93814068564451
Ag 15.854473282873943 8.54839004843876 10.181984071957352
Ag 15.746375399759662 13.997517934990254 11.399549705200522
Ag 12.988766961173459 10.167130567845009 7.063247234195822
Ag 14.287219285891368 7.84776058559013 14.28680093279247
Ag 15.86578088374279 12.079228850617577 13.417384326965756
Ag 15.037457932208643 10.304455620567488 15.397678796873356
Ag 16.390927780030125 14.794046795324226 14.03160665874186
Ag 13.401487223889378 10.064802035581867 9.883673956695972
Ag 16.385942104718545 13.23662690965034 8.797669866008222
Ag 13.754641973080009 7.458518958904432 11.573832763676936
Ag 14.899684864356452 13.197758286631279 15.796900775010606
Ag 13.07552953783973 12.667772818019786 11.118818674684686
Ag 12.35059768530888 9.255589958062524 15.89782109138512
Ag 13.922361663944317 10.133278608611288 12.590337357506789
Ag 13.476463631883087 7.623621520279916 8.701502424431226
Ag 13.788041076604847 12.537328256151584 8.264959329177021
Ag 13.685321602886921 14.20325052152453 13.3606702014744
Ag 10.926383372641048 8.59647607480758 7.84549566381123
Ag 11.677239885061441 8.197930381750753 13.357142427521861
Ag 12.665263326741115 11.72053260517034 14.48253385875774
Ag 13.26896518626462 11.555951228983623 17.28164419410329
Ag 14.2250361931795 15.047758506014429 9.320414671088558
Ag 14.202589999620045 15.95883721375721 15.433291891237646
Ag 11.2264136032202 10.730319230432716 12.035325707426276
Ag 10.612230375944693 11.799100477519973 16.547335379001325
Ag 11.676882379101343 16.04004165014621 14.177025997465677
Ag 12.154549833780903 14.052245211047621 16.043277630417336
Ag 9.865165461583526 9.944786084341292 14.622634768733441
Ag 11.219930118517409 8.201188508651452 10.530170328766715
Ag 12.164555625639842 15.488682539948588 11.374682609594315
Ag 9.072516366934636 8.56550401389112 12.248406974600698
Ag 10.177415432137222 12.721275140058205 13.775514643702852
Ag 11.22439510702532 11.53757836563076 8.93807922959967
Ag 11.585564466820381 14.282669211741053 8.70904876354619
Ag 12.269552831305257 16.988431058203908 8.974179505458387
Ag 10.142187819075422 13.329549151163638 11.058820175539518
Ag 8.571022968226092 8.311638608125046 9.292044118845748
Ag 8.974180739423943 10.792858392772855 10.457440530560222
Ag 9.446053182568635 15.630014022928716 12.661551018281815
Ag 8.045660350443535 12.108079810372557 15.599431486345532
Ag 9.398426008117244 14.74071172442431 15.398009760123768
Ag 7.671378991553309 10.882488052347293 13.174674857677278
Ag 9.26867981011166 10.658782567959936 7.199088386566008
Ag 9.821997331942345 16.07279219631328 9.888029023187407
Ag 6.588814460163914 9.377003052344131 11.067483705456642
Ag 8.690886683324743 13.083564432792858 8.691031251708713
Ag 7.497018987391811 13.706386561866552 13.331260487353916
Ag 6.625721002972652 12.269858395491998 10.980643582829194
Ag 7.577694074745903 14.79119033833812 10.736666974554122
Ag 6.920800054023427 10.738221027169772 8.60228411533199
