53
Energy = -115.72972904 eV
Ag 13.046992371906153 11.430302550109168 7.333017173732207
Ag 13.442889684342738 9.28876593356586 9.049895592857085
Ag 15.743255741899196 10.749774831151138 8.373908059878596
Ag 10.893968992780817 9.298841541653223 7.977884191676355
Ag 10.350208577041988 8.105960692413138 10.654763593490713
Ag 17.756787189050304 12.5723275164475 8.013347094421944
Ag 13.039055922399122 8.348271844412961 11.613429506641939
Ag 10.407585806200208 12.078765018966243 7.704350271245072
Ag 15.056479452155768 13.409272575566078 7.648476390029027
Ag 15.376026488967893 9.79667209174224 11.056643996929687
Ag 13.879193228742565 12.078256929518304 9.995845033026693
Ag 8.63880168085508 10.245386893774338 11.570483838345607
Ag 8.857233037477974 12.504178188203115 10.024100802944776
Ag 17.714826469977115 11.159787948813896 10.505507895767382
Ag 11.290580184247972 6.797141733415153 13.122721672656722
Ag 9.536708051739593 14.710571721047378 8.321733210237973
Ag 13.149996615099672 8.596571755323165 14.423356071918729
Ag 11.271386880881787 10.714206048013873 10.32486050509271
Ag 16.2947060565707 11.599994026460825 12.973376752446525
Ag 12.345342410362564 14.214267620619 7.405657829358044
Ag 16.415196831996717 13.590049196813826 10.215390651378064
Ag 8.695667729462068 7.879362267413348 13.143144288797034
Ag 13.327566711036477 11.053168639541102 12.628089344336942
Ag 10.915340168118599 9.67994745482415 13.105960247046536
Ag 14.488757984200479 13.615930453319265 12.244639479298684
Ag 11.494506464480494 13.496298103933125 9.94256162832165
Ag 10.518654582641265 8.160537545956844 15.462740641755657
Ag 17.114167217013748 14.314945999314187 13.005316409831668
Ag 14.553763062383059 10.917086149345886 15.128217185416027
Ag 13.903991170541687 15.049795506701335 9.69451786257198
Ag 15.860325698892222 16.137621755838055 11.33512709355305
Ag 9.327714671757338 14.999939089151658 11.185952486972807
Ag 11.417801215187243 16.355946828376524 9.668856249441466
Ag 10.812944331748172 12.456736210968186 12.535914876315497
Ag 8.113218546972014 10.395161426745751 14.315756750005658
Ag 11.826979040674418 10.717242511293419 15.746497968998925
Ag 12.116677360510174 15.025369049331514 12.225993253795364
Ag 15.474461257541577 13.49492235006223 15.139619465354803
Ag 8.107950227057836 12.80592603149821 12.840660630697862
Ag 7.779684830134513 8.068516397789722 15.81595408045274
Ag 12.631779483877871 13.382348658164114 14.527803237657256
Ag 14.577293585534832 15.888703803965269 13.838092202954371
Ag 13.36027767864617 17.372479106936844 11.489066273563125
Ag 13.587179177275393 12.542403525962854 17.168949139130497
Ag 9.264027487806517 10.212595683550749 16.905492700262112
Ag 10.561677903534319 17.3279371250639 12.276202207457654
Ag 9.81356939527596 14.921925036183532 13.930585602331753
Ag 9.599026707950749 12.538953581273574 15.320656680873231
Ag 13.65474911884466 15.260971986648464 16.50994428766061
Ag 10.830664712892082 12.290592747342776 17.880193339890923
Ag 11.969234054089817 16.534299167309683 14.633174828759287
Ag 10.83288123997188 14.78910082213039 16.551309850910478
Ag 12.323980489229799 14.398304292637018 18.86416733289429
