52
Energy = -113.76103335 eV
Ag 8.5489814730863 12.090853581934477 16.50913025672839
Ag 7.384561760740188 11.377464815481446 12.067477035946595
Ag 8.657971670587676 12.94373876703855 10.189037993912235
Ag 7.036927909026041 10.685230320368209 14.739263434923526
Ag 7.924118244297441 10.401797671198928 9.23401497553619
Ag 8.353025389047065 13.791646795655163 13.29407469685294
Ag 10.350118317887485 13.918920572024463 15.487027593786243
Ag 10.33261562070059 15.860836642261766 13.511640025183338
Ag 9.825851305961828 12.062013164894362 7.809569615785571
Ag 9.255438170356927 15.500020394633937 10.985897473424943
Ag 9.896890582237038 18.045703970530354 11.808727798827576
Ag 11.198897793538888 11.428189051323583 16.59215408170431
Ag 8.066248836221124 8.817089720011095 12.99353977557568
Ag 9.70866606104451 11.395568135983828 13.978234267642106
Ag 9.913237301877285 10.51483779015642 11.159690998362326
Ag 9.505087103380694 9.234061137651851 15.59565673982632
Ag 10.388500402151509 9.38618266808605 8.342435348169971
Ag 10.774359617376101 13.223005123495948 12.108292740639582
Ag 12.351519927305233 15.924563510855736 15.434590470062275
Ag 12.224750879102551 17.876797492270274 13.379282702117273
Ag 11.170672051845504 14.079084224076984 9.423653094981175
Ag 12.2648091370818 10.799738555827387 12.662310018671452
Ag 12.729272929314638 13.724935880046983 17.11865308019944
Ag 11.993059307886513 16.404716402626267 10.909684573188676
Ag 9.164036781692431 7.972711963449649 10.521153956664987
Ag 10.755043102540196 8.392970879239463 13.04697110509945
Ag 12.35103513730687 9.42612338526942 15.098618663085405
Ag 12.824039581259324 13.047745263441676 14.297816184090502
Ag 12.394520228003318 11.22419949878811 6.907792636702887
Ag 13.436866612241289 13.092180801657971 11.426870215917846
Ag 13.989108453231076 11.259024338363417 16.50428755642896
Ag 11.613669947630562 13.922668802214291 6.689597816972814
Ag 11.964757192588495 8.381747392707185 10.492491877453432
Ag 12.828610006395932 15.980285063210028 8.236814854246546
Ag 12.257988059220734 11.217340680897228 9.669579914823439
Ag 13.606227852176376 8.182320293082316 12.719803257086545
Ag 14.886769518859321 14.707719096681505 15.416409705241641
Ag 14.61542152228382 10.422085083334204 11.180729874503468
Ag 13.0853848391831 8.755631085935354 8.000128694698516
Ag 15.5129722127694 13.228444338089938 17.653374717304438
Ag 13.69548095468237 15.571433463998538 13.018001044357053
Ag 13.800191984773091 13.343419001883793 8.374865604129923
Ag 14.87107334354749 10.276395082027404 14.066196019510087
Ag 16.406946450486572 12.297093745320385 15.179727199443725
Ag 15.763187404717321 13.748479835404984 12.841859990487782
Ag 14.924507378667169 10.7697791197917 8.313245071407296
Ag 16.396502324178215 8.507760235344582 12.329290246045357
Ag 14.583888048588834 15.306225579058792 10.350287708209578
Ag 14.805661803683549 7.914281375132156 10.029777206926822
Ag 15.994774085335827 12.699404648587068 10.19707105430813
Ag 17.029652419077124 11.288902743080184 12.570980266285797
Ag 17.058572938705165 10.031823424203825 9.968663148520664
