54
Energy = -115.91920531 eV
Ag 14.96220336406409 11.240808923849592 15.663195753716886
Ag 15.009885380195064 18.11559181705297 17.743576245606576
Ag 10.404556942204092 14.925532086158967 12.079856617638551
Ag 8.966561912864886 13.590245139725146 14.117520426243562
Ag 15.05125704683125 9.463138408483983 13.359375547712148
Ag 9.31065002247047 16.33532454135193 14.398395815397741
Ag 18.610598784516295 12.157710726288695 11.375715573962655
Ag 14.395796098015104 19.96522956090264 13.54401219326745
Ag 16.83542735126636 18.37878640673208 12.421842138603576
Ag 10.91794185347886 17.360102859397553 16.738571279755075
Ag 18.500016789275886 15.105038827228997 11.247003082357631
Ag 16.530620129204365 13.403062974875862 9.83367337063933
Ag 12.059035754703974 16.22564321974106 14.218080654267547
Ag 15.273212797919612 13.1475762968461 17.763056085679644
Ag 10.022960051783024 15.254987771848217 18.755842843835016
Ag 10.735984268767835 12.534757662332797 18.260980223033663
Ag 17.22067084174946 15.965710755018563 13.7934844837979
Ag 11.80919647484858 13.407017163732984 13.943059017466075
Ag 16.124149728185195 18.44608785265067 15.176085956406638
Ag 17.496701232953992 17.052208836028655 18.606144025199217
Ag 11.635274468299286 14.023409999845338 9.728872054069203
Ag 16.956842855168425 13.491182087777187 15.425448114075952
Ag 13.87888246612922 8.594089112400093 15.702234830748136
Ag 11.627760627625545 11.137418916051821 9.230541127467518
Ag 13.331938676829797 15.915952856127218 16.80229881803173
Ag 14.50361867208777 14.58129803024923 14.483192421429129
Ag 17.4349339451424 11.378718766318421 17.077658919145794
Ag 13.126607386202478 10.061745252395522 11.397723054588194
Ag 13.302602546897257 14.916095887449128 11.844416127503392
Ag 12.943061629746516 13.043954819313058 16.40162108462445
Ag 15.882988263311292 16.026243457224727 11.214037685297697
Ag 16.20877002284825 15.965283267237167 16.416399820051275
Ag 13.88840564989372 12.479990797677832 10.183737461968226
Ag 19.106717571409803 13.712427910834096 13.650874480899999
Ag 10.662627233828799 14.658643560764899 16.202321165318896
Ag 12.280894748994893 10.45579810482874 14.158877148178728
Ag 8.356021754796695 13.468399945607763 16.96210699469259
Ag 14.443436249096344 17.18321909678895 13.252687625609672
Ag 17.74846052948736 14.280709937522413 18.089396988052087
Ag 10.24168047870334 11.694631725772622 15.65754170460223
Ag 17.019524935677126 20.765815451503148 13.815052271487097
Ag 16.495661263273387 13.51898269382551 12.63513392789497
Ag 19.153504981118235 22.111871958214877 13.18484391092457
Ag 14.170449433074197 12.166815935327953 13.024617259088387
Ag 16.656338099834873 9.048331379877782 15.655530104878466
Ag 17.452472009541186 11.12488780003765 13.87666497955236
Ag 14.265143011272725 15.053555986361703 9.140248278952107
Ag 15.207848221478493 15.596098694054438 19.067583431480934
Ag 13.228817470443742 18.48444231532174 15.576117230094596
Ag 11.07619090224649 12.056685224848595 11.730007742815648
Ag 17.026568382869705 15.847242375059237 8.744937355069917
Ag 12.344616580122072 10.469481647818665 17.073068014019775
Ag 16.064486068553528 10.98575581523467 11.276692521713654
Ag 12.74328971420894 14.297775643904577 18.98362763455525
