54
Energy = -113.24536472 eV
Ag 14.995514324470795 17.268404423952983 9.19037130620491
Ag 16.153864541402424 12.065156043920883 13.118259015761986
Ag 10.78897853701612 16.00425675837711 8.020291582496098
Ag 15.113887843776466 16.257405565583223 13.862279512199162
Ag 11.00279738554583 9.940639209026008 12.792804259710365
Ag 17.366551827959267 16.132775826534616 15.799527921117969
Ag 11.877358296256807 10.469685710388465 10.129171732753704
Ag 9.501037187711072 14.021814930219124 13.008920599735456
Ag 13.98259430331873 18.838592067577167 14.072607885011285
Ag 9.578675945405053 11.869636111633511 11.198008193804545
Ag 9.016226128674836 11.514571733202402 13.981892160469913
Ag 11.289978365194543 15.355578941139228 17.4683466402036
Ag 19.20018318200076 13.749372374818604 19.508850461416134
Ag 15.284075265642368 14.466903157593142 8.418945209775819
Ag 16.755385977675424 18.487535905842226 14.431908493043865
Ag 10.934234563560484 17.47016204667709 10.416844848529983
Ag 17.483283189663663 13.774468976544862 17.380504301721686
Ag 10.271672774737828 13.41050219145137 15.590803287881098
Ag 13.640029069083797 10.951599619910617 12.348765964660272
Ag 15.644614944930685 13.928776631028823 15.34042161207337
Ag 15.278281310323084 12.192010749950514 17.475592307306165
Ag 11.88269688390431 13.794750386077139 19.666209026250424
Ag 17.192551931066454 11.01092441610815 10.80693450356029
Ag 13.19862803311059 9.07306378176814 14.366911708877154
Ag 12.88736272313633 15.351020507671594 9.784693329055058
Ag 12.605226403434438 12.475266723972451 21.89956810192668
Ag 16.173483015091893 18.039701576705856 11.788915887532315
Ag 12.889612465849211 14.879334935000886 15.307437982896793
Ag 13.14642901575264 8.36398379551349 11.653280017665155
Ag 11.201006897404957 10.78196959755263 15.512382797176452
Ag 9.934561238154187 14.734131426765973 10.363206539666585
Ag 14.820696416707019 12.692565690224821 10.505829592278143
Ag 19.099915547537055 9.602602612541776 15.674451343288656
Ag 13.521260298208674 17.729162330865268 11.492983932908455
Ag 14.639713394562781 9.999500949536829 9.830949886534833
Ag 9.10724448480943 16.724999214802263 12.320067136345495
Ag 19.023581995475038 15.9345782143789 17.928582534775646
Ag 13.549828978886126 11.451498983730863 19.58523617439748
Ag 15.445485764072716 15.425817926839912 11.171182235039884
Ag 11.354126671238806 18.265147403085248 13.249105455312993
Ag 17.23790363565037 11.536692876827956 15.676049609299758
Ag 13.386883085309806 16.085367001058476 7.159918323074241
Ag 13.351760628015459 10.068623866208238 17.04488616457158
Ag 14.942708393785656 17.413143633541047 16.41014317914593
Ag 13.772546795849083 11.863065129437814 14.939191885163348
Ag 11.837883486086625 15.570706268869397 12.548823167417185
Ag 12.058502472166852 13.058377366870682 11.141443525749432
Ag 14.006118612718263 13.830352579949578 12.953980441463683
Ag 18.386391542299492 10.501700450975834 13.23831983027437
Ag 12.388514365480301 12.742664286658837 17.266791414650307
Ag 16.12884319379876 11.782758625434026 8.269202438937137
Ag 15.568023562358274 9.746404017872115 18.672650868589347
Ag 12.310139053499936 17.597235644512725 15.890841404761035
Ag 10.209746516708812 16.09067229166352 14.842241323499264
