51
Energy = -111.72577137 eV
Ag 9.814531820201495 9.255899452426329 15.400197580295943
Ag 8.13689211012229 8.430679113961432 13.368540046426487
Ag 7.500525022609107 11.030491372660698 14.836675338131267
Ag 9.449829424761237 11.635067866383197 16.91943643710392
Ag 10.935480297056031 8.317649720832744 12.818906031101635
Ag 11.641290748226492 9.741717292439597 17.363420132459098
Ag 6.999825030196254 10.468612567826133 11.881144348956946
Ag 12.049003113492633 12.377203874913054 17.946930297993447
Ag 12.702126357335462 9.126745527218919 14.829600978495943
Ag 9.577163306422609 10.861752544423606 13.078104754286585
Ag 9.112970030439438 13.454276375467478 14.732827016306386
Ag 9.092833058911596 8.840743627699931 10.711215385564088
Ag 10.553941270501912 14.360392251812605 16.85742414967953
Ag 7.873018463578553 10.918748188771197 9.210991084510939
Ag 7.335338557313756 13.079906842556555 12.738873445048254
Ag 11.59141286858739 11.907463132923532 15.026539609612355
Ag 15.410031245398322 9.73776301475694 14.238965170854735
Ag 11.920105923899698 8.761649012751478 10.171604516686278
Ag 13.854645454862968 8.403179924801934 12.288509038967272
Ag 13.99289454923644 11.051824197349724 16.417881286867715
Ag 12.378359726085522 10.795014558670573 12.422517283959477
Ag 5.954854041103271 12.613253296522597 10.418579085045577
Ag 10.834488547488688 13.219787206335397 12.38017899426129
Ag 13.28721889299468 14.030511617770609 15.997772124508078
Ag 10.312577024621381 9.821245855316054 8.006696054503935
Ag 16.714318277240807 8.749414932774108 11.819163526329806
Ag 14.34213834562771 12.384800793261057 14.015043856486395
Ag 13.181604656211805 11.241563914455703 9.511422061684915
Ag 15.147239210788388 10.945855381874352 11.66706182137275
Ag 10.41207777630253 11.276217329298053 10.360675087658919
Ag 13.01944530820009 9.190538992439393 7.50969508034721
Ag 9.629373550223118 12.520264959831273 7.688877885218725
Ag 13.502384779858074 13.2332336634716 11.415448252413727
Ag 11.333248425714228 15.254087316200788 14.332649114148442
Ag 14.761996031899908 8.795793316433754 9.625864689403164
Ag 8.61333657365174 13.532931354903617 10.276202181985203
Ag 9.121722719469831 15.365579844022243 12.462292435757206
Ag 16.191672298496556 13.708868628212928 12.332330459494548
Ag 17.826098576033953 11.496814574035406 11.736317289204669
Ag 11.444069068244358 13.69295733797343 9.513503204680124
Ag 14.040705752296997 15.15783485438399 13.475703747701509
Ag 12.219867327270785 11.770762963219065 6.844384017190136
Ag 17.056918591385653 10.298641776124613 9.367689886636551
Ag 15.078553123534721 11.16085616381095 7.501180281060148
Ag 15.99598193371018 12.857188933193619 9.677587437866592
Ag 13.945775667418811 13.762226933532888 8.055733571783476
Ag 11.467391535397242 14.473629626903474 6.821824382272197
Ag 9.899417378861642 16.009621709408574 9.817365287889393
Ag 12.025907779304992 15.822947264113967 11.619914981380669
Ag 14.757076229842786 15.407537837091533 10.449379050719196
Ag 12.575398507938983 16.13084637928851 8.820267115645274
