52
Energy = -113.56134767 eV
Ag 10.950786486796128 17.362704783615573 11.622132054214061
Ag 9.688919856167766 15.256541334332542 10.042297379151243
Ag 12.46607291571679 15.520320088529937 10.03774088051642
Ag 11.438202583206362 13.680255663189628 8.117853682203167
Ag 7.16975442074807 14.270539839779467 10.935088561529069
Ag 5.904522852994908 15.694343223731702 13.039981130233407
Ag 8.42086306977368 16.465863608126803 12.230808128113527
Ag 10.31616044261731 16.565811293511427 14.376405810893672
Ag 8.897050551756116 12.733441344750123 9.343924953175991
Ag 13.55280682812772 16.492403115946495 12.421687169764683
Ag 14.289336208347354 13.840854707532824 8.753983778706576
Ag 11.225617489104454 14.726112075918056 12.52474296974331
Ag 6.417037092977458 12.915317961660294 13.339949531906663
Ag 13.499606599419472 11.375511228725122 7.849802852532906
Ag 11.815844974701387 12.68977036103684 10.619023102531791
Ag 9.139256000050715 12.839454196786617 12.53841273868668
Ag 15.19594197575828 16.113512533681217 10.102421373296426
Ag 7.158513878760213 11.346030543184497 11.142982892257146
Ag 10.885304338538111 10.919125307552582 8.424642574499138
Ag 12.828636563956874 15.372234551446375 14.918689677642574
Ag 8.104318830133366 14.817664893728306 14.505010737054523
Ag 10.580017250520322 13.72171264756799 15.098458010042963
Ag 8.233761708666574 10.031134756276805 8.842596530178604
Ag 13.841892829211613 13.596832670191347 12.666051055334863
Ag 9.942373508971949 10.555402552374408 11.040408922592222
Ag 16.573158328699343 13.592273244062287 10.466048528487935
Ag 14.474333588827475 11.666339002861378 10.692659643096464
Ag 8.015025239079579 8.607884828538783 11.305526174694956
Ag 11.65582966755031 11.692764489372593 13.163045951931263
Ag 8.362582923098952 12.05484864487269 15.22671642815478
Ag 16.23663039105443 11.72768249752103 8.428346505568276
Ag 10.556237854667591 8.314243156083664 9.41081297806862
Ag 15.372826558004887 14.275849006629885 15.047704653076043
Ag 12.610153775476887 9.643953160478423 11.177959588989008
Ag 9.318759313736535 9.922397233631239 13.67709987691144
Ag 15.003070863072542 9.338674256971567 9.10635564606162
Ag 13.210125822536453 12.605463833240593 15.520244250067865
Ag 16.130194229789183 15.33360495985701 12.58982171612157
Ag 16.57501964947373 12.538061271377435 13.060793982732601
Ag 10.927453478911723 10.933940280560547 15.821854337282408
Ag 14.317986894724669 10.704387727529545 13.377331171607903
Ag 10.557013887687805 7.841787842860712 12.151145648233184
Ag 17.034193928866003 10.665223679089598 10.977323084161583
Ag 13.24188478411416 7.320923764914565 9.829240006238091
Ag 15.942323446157875 11.638840650471346 15.657762445217664
Ag 12.09274772894703 8.969046677299056 14.189648241936975
Ag 15.306266413428816 8.494807373392304 11.711404965827331
Ag 13.701941453297081 9.952093151152786 16.258750231807607
Ag 16.984831089767816 9.77850553631433 13.722335928728766
Ag 13.161090717620848 6.938134508351553 12.56317676086533
Ag 14.839078467969431 8.047318602304586 14.465575636471856
Ag 16.427073761862395 9.07667145320689 16.46996399014312
