52
Energy = -114.21921245 eV
Ag 14.462548866200535 15.717245155709733 15.411047290097676
Ag 16.088134252958856 14.932056246807601 13.229510830291908
Ag 11.997256212782675 17.108251221006004 15.06626800747851
Ag 12.787054199344857 16.350057650150628 17.596863440017174
Ag 12.547384623029515 16.812237504554705 10.219129942167022
Ag 11.302100111272035 17.87519604892815 12.45504339730777
Ag 16.246458254096215 12.039746055387226 12.55278619386339
Ag 17.336768395343228 13.97146977876644 10.86731467619777
Ag 13.695395482989303 16.469870217848975 12.811054368253627
Ag 15.102813804967194 15.59755330496472 10.48214240852396
Ag 14.707354262347328 12.924437107920197 14.771165012596308
Ag 15.164265199154304 12.591529976383883 9.79878056935446
Ag 17.591354996889773 11.257159439125562 10.23422622872227
Ag 12.066655718272289 14.252279631954611 14.414844737750304
Ag 16.51822912978497 9.211324090791189 11.881051044787869
Ag 13.853873961673674 13.654004890902227 12.12605581979936
Ag 13.094182039408057 14.301985150296959 8.994689821719229
Ag 10.756996769839079 15.710815784387172 8.325051147446775
Ag 10.530976527269392 15.041515142631887 16.56977897558541
Ag 13.10613047093895 13.66728164504111 17.027475211054025
Ag 9.697858382408306 16.086823638505088 13.825834024442043
Ag 9.459467663046269 16.582999120467544 10.767455170705183
Ag 14.918758258109044 10.12965037912827 14.103111073950735
Ag 15.494582012274751 9.730994410526458 9.092390317922451
Ag 11.31459176941474 14.812160142057488 11.782962169244675
Ag 13.983703472918926 10.327456394402464 11.395027509966933
Ag 8.033964083769765 14.504269903422571 12.221955697443214
Ag 14.03695763165255 8.205253921504209 16.016055719707392
Ag 12.4053427137108 11.616758316006829 13.509055932510584
Ag 9.414870141215822 13.855620880728312 9.825461405175748
Ag 13.416073705269916 10.956772835068323 16.286899846708245
Ag 14.877722806361318 7.400054205880598 10.512865003370967
Ag 13.303191924979405 11.259836259860444 8.223480438513128
Ag 12.043067480595585 12.256776894079305 10.527094278566219
Ag 10.876330098539112 12.129324967816972 16.266778438339117
Ag 11.192210732702039 9.816060338005013 11.681944146015917
Ag 9.102763366308677 13.520286640434152 14.723273631591002
Ag 9.834292830038866 12.3095694881813 12.225787223347117
Ag 11.024991934049224 12.792445346726907 7.788889363931758
Ag 14.643647081185783 7.46935416474902 13.275127723929124
Ag 12.265593164364486 8.730633851674344 14.031588479633612
Ag 7.310899404021681 12.198899132795336 10.680301728716456
Ag 12.798108570501643 8.678096375771732 9.199973308094288
Ag 9.798769528000413 10.324714798233245 14.280420993201071
Ag 7.398193204254795 11.76488097492704 13.455949305033682
Ag 11.207093874935447 9.335613411043276 16.53881502446939
Ag 9.610632313656557 11.001071833367426 9.526725093995253
Ag 12.295535370081284 7.219474828543452 11.570530871245948
Ag 10.991887053873347 9.868020899792315 7.442214450638334
Ag 10.062652809801266 8.215628732025062 9.7510031677981
Ag 8.356974240195367 9.723799257361767 11.713767544940783
Ag 9.888753738193785 7.713787844029476 12.9658819885357
