5
Energy = -6.45707802 eV
Ag 11.849831314376932 12.470846260305734 12.615131490673962
Ag 12.126129591174784 10.030058418180415 8.04857173431289
Ag 11.470623413103677 10.740816898986006 10.474890803847613
Ag 9.68347454209765 10.9062950280514 12.449758649468983
Ag 13.117015708282796 13.507800318478628 14.658976496303312
