53
Energy = -116.1638455 eV
Ag 15.795017159099748 7.3177779071670335 12.99623492185201
Ag 14.160135553139126 8.202731310538452 15.093216762772292
Ag 13.131131028776764 6.397440749923179 13.090297228542878
Ag 16.24648593512039 9.977120234100925 13.94796692446881
Ag 14.906765367071834 10.730771036985184 16.36018073738891
Ag 14.93593348152934 13.541964045867257 16.602798085001993
Ag 14.136633802415055 7.228209612545412 10.627065815407839
Ag 16.300462016041177 9.178588035085529 10.956767006009537
Ag 16.299585737124804 12.80229028150177 14.345614390540138
Ag 13.886442008591386 9.392089556587596 12.54000120011054
Ag 15.176204353793356 15.6814423961005 14.747511208960134
Ag 11.317478847689813 8.205158582799985 13.983587158543386
Ag 12.199879531685198 9.965717585921 15.909944613858332
Ag 15.64194159995659 11.724094852475325 11.773026398593363
Ag 12.422679465406015 12.419806928693413 17.00998203406143
Ag 14.327301067095283 14.097555112569772 12.536862295192398
Ag 11.308804595137376 14.982647094938295 17.216290738522904
Ag 10.714513474294144 6.860091520105696 11.556029298625695
Ag 13.731665919060697 11.791328950924212 14.090629837141114
Ag 13.935778421108397 9.724047267906844 9.475202126021207
Ag 16.211307906901272 11.31797719664094 9.035912067444423
Ag 12.778177896701964 14.342257568754986 14.990310112667215
Ag 15.026087665388411 13.746783050179692 9.875300108688405
Ag 9.450329831051901 10.008058598056888 15.262459001624212
Ag 10.19171662423574 13.050354074752136 15.237865811271533
Ag 15.854159243915385 13.526503894627167 7.266830752176542
Ag 11.18483641420522 11.065042896480238 13.417813150163166
Ag 11.85345563452403 7.7590947677821065 9.046328832885177
Ag 12.767746046305872 17.082557760031786 15.721382672546822
Ag 11.540923361527712 9.453181078799211 11.199104020775204
Ag 12.984074210727007 16.49095779945532 12.982428299525708
Ag 8.33025996670004 11.71788499192728 13.318649581402582
Ag 12.673207398459029 15.193179958385292 10.494992452012022
Ag 13.389816417557133 14.872250989958475 7.778650916476893
Ag 10.3562786608632 15.948813307340252 14.777973679167038
Ag 12.838604917306188 12.044105710243796 11.00621860415016
Ag 11.355081025308928 13.832213822541501 12.677876084529494
Ag 9.976285202045412 11.971790892722192 10.9921216762525
Ag 8.557927169937198 14.45206115822568 13.275224073587012
Ag 13.602027863150317 12.084362128288591 8.020706297429609
Ag 7.366555155920947 10.56040343084613 10.943948595208031
Ag 11.224642318903696 18.46149979484222 13.762109057639705
Ag 11.33920659457668 10.583076422676498 8.611644529738754
Ag 9.010262211591568 9.000314838307087 12.602834708731372
Ag 11.273568764040144 17.55396274206826 11.041026592632502
Ag 10.936612835956051 16.168560377336885 8.484736126113372
Ag 11.162405109899032 13.374627785077637 8.77080546933976
Ag 8.982144637979188 17.13957770359169 12.693402980447505
Ag 7.550548413715325 13.366453178695899 10.874152826425922
Ag 8.644227112323444 11.62284195820291 8.63111864844729
Ag 9.268983804102861 8.902503465788548 9.722392012705157
Ag 9.680270198428618 15.213217968854844 10.789709497384052
Ag 8.591433190913854 14.434337066503366 8.393450846924138
