53
Energy = -116.10152033 eV
Ag 13.631745817196308 14.664809068139341 15.927430743772812
Ag 9.564541531891434 11.215944297955703 16.691818358560855
Ag 8.61313177322632 13.624745811351472 15.534754093400446
Ag 15.250867675525907 12.867336158523464 14.466664969151392
Ag 10.812528684060974 15.697327318418598 15.458803025522988
Ag 13.613392129153205 11.768952878537918 16.548710506393302
Ag 11.387235413760425 13.03612131937447 15.695293605396763
Ag 8.28120419646352 16.07890413159977 14.128767513257873
Ag 13.126053148167507 17.054357478041197 14.47155038940629
Ag 15.396923095159675 15.430335342465272 13.422087101301345
Ag 11.923183297392153 9.815817034349253 15.273852265487363
Ag 14.893588651054662 10.018104451284843 14.869289756769794
Ag 7.279233520076043 11.216924439201104 14.555289832167418
Ag 7.117057517360203 13.695616864556072 13.10906305827713
Ag 17.032321283895747 13.373761211049139 12.146401600852673
Ag 9.075232455270564 8.982986283103049 15.156209598004237
Ag 10.749123060717963 16.903668550789906 12.89304671317448
Ag 17.41441260769551 11.109524603764209 14.005810839237249
Ag 12.691854794742417 14.540368564977305 13.3237906673294
Ag 15.292570033202056 11.065996758315864 12.190808046722802
Ag 9.953847309979187 11.414455061676573 13.926699325113567
Ag 9.99579861426272 14.081483675803613 13.095717244721437
Ag 13.522961679864997 16.717783318274176 11.697693156151463
Ag 12.828299143439637 11.72071399433173 13.332864149997265
Ag 8.504003690350755 15.62819181786436 11.320020979071899
Ag 16.12037473240062 15.689934124717395 10.718267800217449
Ag 13.410410959242174 8.87704595643828 12.842585927039822
Ag 16.35010733903149 8.57890509609045 12.881002481794727
Ag 13.649141880695705 15.640011631148441 9.159338335418337
Ag 11.064680250704301 10.15994427840538 11.731311060387222
Ag 14.349090138753349 13.631880533323987 11.192337933762852
Ag 17.88232318522346 10.734992116428582 11.255663624861963
Ag 10.793488483753217 7.896611217469607 13.266410526255752
Ag 15.841398978070945 14.268562637780834 8.29563479023389
Ag 8.941057564305131 11.985530109314814 11.32419744802352
Ag 11.207722369263047 15.657973666460801 10.466468474252066
Ag 11.641185117581646 12.95493756894961 11.056436405305673
Ag 6.816870781946141 13.554295421097098 10.296220311874885
Ag 9.452388982399164 13.883438418226717 9.267208848281616
Ag 14.644543854488647 6.889985982984983 11.361320724452968
Ag 13.308736395613401 10.655036136372853 10.252439561476967
Ag 8.37602669902005 9.39856786659049 12.461191057370456
Ag 15.974274597508469 11.830549296011664 9.480545108840625
Ag 6.311230486360338 11.269761883402193 11.889627374124956
Ag 15.853598962978 9.104822473212264 10.102222781693907
Ag 11.969073718232252 7.704105070509602 10.653934032059283
Ag 13.384442361642508 12.854196916754155 8.527443118287014
Ag 10.850350772731304 11.491860608213496 8.809852103375547
Ag 8.007599938938016 11.407774603529203 8.804547419316942
Ag 9.469364607557834 9.14887570460908 9.746713978955015
Ag 11.785154205967105 9.019580910514984 8.150183237765
Ag 14.038605971920866 7.545456293784216 8.7235909612774
Ag 14.34792185670182 10.232762449050353 7.762684761574658
