55
Energy = -122.21660423 eV
Ag 17.146853921354715 10.715848166936746 14.151777548067692
Ag 16.37471594645348 11.323974917419077 10.937154403666018
Ag 16.44564095289643 13.16142573821004 13.155674271357576
Ag 15.837720147330462 15.50248381210195 11.884467057810436
Ag 15.645778915356933 12.413265376189889 15.758408044840317
Ag 16.114957387482228 13.827310312837193 9.571884051808569
Ag 15.273755632464734 8.579554373041455 10.932621647592303
Ag 15.378671109006026 11.413179933250078 8.28377250097872
Ag 14.749398886674363 9.629753734738863 15.608913784314826
Ag 15.11792364750717 15.222335928857088 14.603024561257463
Ag 14.184738491233233 8.731714676706744 8.252134351796258
Ag 14.571330623896234 10.677016655846124 12.971878780049824
Ag 13.874721728370908 14.23916563303046 16.906340157436343
Ag 14.18673724806494 13.134496059447066 11.401145698652611
Ag 13.474521354480538 10.582625727144222 10.178194569260162
Ag 13.834048731203062 15.609432239724148 9.945583322990627
Ag 12.598455442910812 7.822434084106494 10.48295606416037
Ag 13.761476386296238 13.699009462801468 7.896925525605489
Ag 13.119273386847633 11.578131559448044 16.900604872646216
Ag 13.444493575179488 8.050981727371056 13.157444865542333
Ag 13.354744590975386 16.438232395166285 12.793584243859414
Ag 13.32542900405585 13.022463406742876 14.264194913475148
Ag 16.145781392664684 8.249946780934124 13.560901900582873
Ag 12.74342889537742 10.998083129012269 7.32513071674934
Ag 12.249960491831384 8.950737656322438 16.960598617668296
Ag 12.164937546429439 10.195146622201612 14.523763822484693
Ag 12.218991054565317 15.649074015017058 15.19263432771629
Ag 11.904131138806536 11.65101669063141 12.199352239612926
Ag 11.3263412724027 8.61950499756157 8.05166808963994
Ag 11.117551479563419 13.587234119649766 16.801839361432457
Ag 11.732201881979819 14.46287657417691 11.592286372304208
Ag 11.630454518130934 12.607824156147206 9.437196202539035
Ag 10.74320580800792 8.453317940447937 12.59845155436461
Ag 10.27135213864104 11.015488988719552 16.434093970139305
Ag 10.023736235604796 8.44265707665066 15.268555736062241
Ag 11.547165928187217 17.179119544225102 10.759638583141225
Ag 10.550807573400066 13.358255794489656 14.020973714154403
Ag 11.355203783605765 15.344128132776158 8.6320350760156
Ag 10.474664592931333 10.115211916961103 10.283926896190398
Ag 11.234959907675732 13.330725886215314 6.708836151295706
Ag 9.432552707396484 10.702058625325904 13.629444050326098
Ag 10.377891097448495 16.291181448690413 13.179261937979604
Ag 9.852771200484034 11.084148651048318 7.610209855028608
Ag 9.30137566811375 15.318073198539162 15.583678816092998
Ag 9.449539904973928 12.693994369231955 11.343037507472635
Ag 9.895120399449036 7.266008941203779 10.277388319098621
Ag 8.186971803532439 12.65072582822851 15.294640801069399
Ag 8.126304412405418 9.242739682372735 11.556859672944304
Ag 9.237271422694363 15.556488328471275 10.623748009066002
Ag 9.027669559219191 13.64163037618101 8.530231516941958
Ag 7.693525274566679 11.324954378200074 9.632806772655368
Ag 8.086560959810317 14.542928548164333 13.092785479599563
Ag 7.1103875852069915 11.822715725541492 12.584807038190979
Ag 6.987347787709095 13.871193693981688 10.547342200443968
Ag 8.470688077546216 8.892212871964428 8.609430064229926
