54
Energy = -119.37015599 eV
Ag 9.285401673924854 10.321404791947318 16.141103194880763
Ag 10.399446668178443 10.273951850703474 13.614862247307228
Ag 11.911677618659247 9.0338085430717 15.69725576041394
Ag 7.660123921724779 9.974913768579508 13.384107559654751
Ag 9.484693343310866 11.86402384167166 11.253007658160548
Ag 11.51058760251475 10.702238628064448 18.002875101924293
Ag 11.680645716243124 10.09428351207741 11.116325228845346
Ag 9.728433492778573 12.853973937145918 17.38918230593718
Ag 12.358759121761867 9.592553371317377 7.983804962995185
Ag 11.637060172499938 11.983707396387992 15.566031197301136
Ag 6.927343164515129 12.45582795253142 11.868821024592776
Ag 13.212886481375445 10.65021451931504 13.578881762622322
Ag 12.966995121136675 14.685068870828099 15.076580981827583
Ag 13.99043243705669 10.604266673942183 16.65777066191566
Ag 15.187054259733953 12.556004800861256 13.281488584470994
Ag 10.173236345484877 14.47793333684875 15.17246880845426
Ag 8.193670414243813 11.683545382802247 8.679776568199978
Ag 14.211785427118219 11.877537098384654 8.355003970254758
Ag 12.624163261888652 13.425806031047383 17.62501935625067
Ag 17.868332884620077 11.551299973304689 12.712851123962896
Ag 11.252101251754711 11.918780937290837 9.0038615921787
Ag 7.428116108525377 9.886979244265481 10.640147571093626
Ag 16.261961780057256 10.685404872835326 15.061900337972553
Ag 8.439889158465574 14.213971883400077 9.744005041194077
Ag 9.53061107304792 8.344071755306539 11.742575506497557
Ag 11.228383969815207 15.919638372282913 13.002739321224112
Ag 8.54664629155516 12.389831473775528 14.368300441720525
Ag 14.486956595376185 8.406515691890371 14.598829691555334
Ag 9.551211429464605 16.587255540802566 10.894129863216659
Ag 11.5018979205115 12.9416326291361 13.018862549653306
Ag 12.05975922871243 7.997289715256273 13.0511887310474
Ag 11.168440000595373 14.259323135477182 10.58570259922761
Ag 9.958919284140565 10.708039880780916 6.749791936082041
Ag 9.75380303276525 9.24220808470627 9.119462534862807
Ag 8.837290995431205 14.440905909592324 12.5600202785738
Ag 10.559906890730558 15.960795140357805 8.414382141163752
Ag 13.66901452072997 17.13899694067615 13.634810460694117
Ag 13.39017651160965 12.234420466830473 11.032207382533405
Ag 15.782803869913666 9.722512099539944 12.441690884724679
Ag 17.488419355821677 13.297112811749182 14.812385684081653
Ag 13.654208746531648 14.711930583079553 12.289678009334281
Ag 9.850467406969198 13.541409536796442 7.246319910378578
Ag 12.897787585484915 16.41400266377993 10.131971997748416
Ag 15.030002063934234 13.14347464577785 16.150031479321175
Ag 12.049976437318838 7.619899271326335 10.106838411692749
Ag 15.652565262453884 15.31049851816281 14.295699676460268
Ag 14.453400684559808 7.416986208649958 11.780919201357172
Ag 12.302336985517153 12.132767489140367 6.357768450489385
Ag 14.292388381277798 9.573896149774216 10.035329366822385
Ag 12.738740961510098 14.316772266303964 8.072698076713237
Ag 14.981609471016773 14.33241739211402 9.80666643136074
Ag 16.1184595072012 11.79467072800002 10.537516266046953
Ag 15.533468772697985 16.569597556236655 11.541536133330563
Ag 16.998352111886135 14.214978762683781 11.99221705818005
