52
Energy = -113.75288732 eV
Ag 17.60441777434742 14.93669397728731 12.770688312103404
Ag 14.155037750062547 7.811497475794006 15.427501483026186
Ag 16.320398660210095 15.095249336877261 15.378572011400875
Ag 15.472946418677134 10.116416898801967 14.623058481556987
Ag 14.849308086993034 12.7463734490413 16.165336170842647
Ag 16.48467444321374 12.604089633988668 13.812585847482376
Ag 14.526492477867924 8.106900616835677 12.62692007719564
Ag 11.434128430843879 7.97976369836756 16.114706808929242
Ag 13.140112504119326 10.41730172866592 16.223500984193024
Ag 11.891258156855352 12.886257177499267 15.922278524705812
Ag 16.607483164147382 17.371920769187863 13.532719071944191
Ag 15.479306649508484 10.652459793463507 11.84564751356496
Ag 13.477819136960296 15.197417302066091 15.897132759944805
Ag 14.14346775451752 8.610495087237735 9.773227158798418
Ag 16.09313374731123 13.334891159888349 11.08309122616496
Ag 14.624246482160386 14.704244192701918 13.180376878708346
Ag 15.632522606570621 16.268565019018126 11.103159096350982
Ag 12.284330619841933 9.268159322478025 13.796271463858883
Ag 12.330772534814285 6.311116794551835 13.926741562801475
Ag 14.945383712927985 17.54870869813151 15.705936393445304
Ag 13.648163464443364 12.035083997059674 13.747637642025186
Ag 10.337435340912213 10.478705705769764 15.511465723228282
Ag 12.974267010932964 13.154284266780348 11.264271196575972
Ag 14.42425346899484 14.522819396967776 9.17113125963022
Ag 11.361047459463828 7.963479578551222 8.885669766710713
Ag 12.063490904320743 7.4087656246072315 11.458232173163774
Ag 13.837673608951247 17.500879774506814 13.115311596530454
Ag 12.690798066156157 10.316782275876953 11.253499009647227
Ag 9.866800440554199 7.8928233541875965 13.692230379501579
Ag 14.673198339323122 11.624976786212274 9.361628611520167
Ag 13.295301837694698 12.830821788818879 7.198968568675523
Ag 10.98382532520458 11.75363944676383 13.053231454273089
Ag 10.583003317399958 11.872865619752432 10.278897032209139
Ag 12.431844993573609 10.41121230121675 8.359118289549082
Ag 11.595022673216933 14.195029947987546 8.959885799708664
Ag 9.247085321781636 13.021145817333922 14.910609123247959
Ag 11.831784955578808 14.516316831619845 13.517192963177191
Ag 12.791016155807865 15.968887688502187 11.037034232743565
Ag 10.597262985229067 15.406899803594804 15.907781940252317
Ag 9.963253734858398 9.209043616564117 11.227577036390208
Ag 9.345248170262149 9.908674337919196 8.561784930366153
Ag 12.182047787278437 17.685501338214053 15.410296333329565
Ag 10.877757180703837 9.349594856337966 6.364271189384053
Ag 11.020181055001729 17.203468360007314 12.891253803084345
Ag 7.831426519847035 10.927271067785775 10.613812787824902
Ag 8.514697712386784 10.443449771378868 13.346635961523349
Ag 10.511485936133056 12.138652846627036 7.3455781343148825
Ag 8.656624005911086 13.46043736549541 9.329517892691635
Ag 8.407512197032425 13.116637284347481 12.244430981717679
Ag 10.172155213941682 14.985555018344892 11.199030471345607
Ag 8.880058325363217 15.507105544937273 13.652817938072596
Ag 9.424016663392422 17.82790826082369 15.158554248219746
