52
Energy = -113.91313683 eV
Ag 14.122752570494988 8.595510247812701 15.765132077331412
Ag 11.41328773246989 8.110588202689724 15.364421290750446
Ag 10.463823835599186 7.930100634304272 12.628603446397944
Ag 13.245282582750429 7.526128626098014 13.29445569631473
Ag 12.359090518598038 10.783643428362728 16.39815341374489
Ag 12.172362344378756 6.900438536974093 10.70299716318983
Ag 9.391295577691343 9.70809449795502 14.467739495094277
Ag 8.539500073623708 9.948314426379115 11.846680762836295
Ag 9.626091627654047 11.19227560018962 16.79501990741841
Ag 13.859511631938663 12.982156243844598 17.560760965156202
Ag 15.244586094468891 11.139230334722217 15.907789600494741
Ag 15.082367353574556 9.759478368012923 13.431702912334721
Ag 7.859075975909741 11.938401043648284 13.753550731516675
Ag 10.385657077263406 8.93274731638267 9.99734835078045
Ag 12.205229479633536 10.158749902630134 13.553059370168898
Ag 13.369968990637549 12.870408586010084 14.644828670534734
Ag 13.700413865634411 9.21589585644817 11.063155531942414
Ag 11.282656875655817 13.50960119368212 16.89394940025523
Ag 8.322973310271419 10.622365609439612 9.165616793163478
Ag 12.711455042713593 8.504078884601116 8.464463174864147
Ag 10.568777453821673 12.305521311137884 14.402017916352538
Ag 10.863886132289279 11.867478435786328 11.624223264325133
Ag 8.642248762266938 13.72950365919787 15.908886989118454
Ag 15.744470455341087 14.02976393886938 15.7871332905612
Ag 16.130777487494772 12.349721159656884 13.527147896686838
Ag 16.181122913404543 10.96005330126897 11.054609146301992
Ag 15.100030710859665 10.00827526355729 8.674548591932185
Ag 13.287151938195338 15.398186673315045 16.110331141666478
Ag 8.836811196866627 14.520564255563352 13.2529537971429
Ag 10.575242026482467 15.693190170957374 15.272035157820593
Ag 12.543626658778045 11.179625568423555 9.392697786656315
Ag 10.572867635356475 10.250907026912321 7.500862965820655
Ag 8.180792551711487 12.690752646848749 11.043310173965503
Ag 17.55121132604067 14.697103032211583 13.81578387471695
Ag 13.718549006496954 11.993332171663175 11.955102719630258
Ag 11.744832356078572 14.419855056458466 12.924109264549584
Ag 10.180997574621882 12.714208968294932 8.96653486625977
Ag 13.22370262179995 10.710825342517747 6.714650882924214
Ag 14.52693309792604 14.72393705558127 12.631457526975476
Ag 16.781718639205096 13.692802266291675 11.131005679049267
Ag 15.449268372204633 16.572081909240758 14.509014812929315
Ag 12.69067392677362 17.107945964630687 14.016469858286158
Ag 9.978638842311964 14.878870593861247 10.744140588899196
Ag 12.571792233379862 13.921325006505068 10.21278527405043
Ag 10.15447132065164 16.948865341374706 12.755221348178358
Ag 14.98806714639204 12.789415027259805 9.17252764792786
Ag 12.712660953295696 13.309572195292573 7.513120477619785
Ag 16.753506525844376 16.398471460808228 11.855120835445272
Ag 14.841587921643802 15.588361047184131 9.931233694512807
Ag 12.319925488498845 16.562034640740862 10.974609817774553
Ag 14.510606896610104 17.85922819824811 12.045180964075126
Ag 11.98713120553572 19.042208534170083 12.146434907246835
