5
Energy = -6.44141434 eV
Ag 13.882769669477025 10.941814459143702 13.643565253527118
Ag 10.283790552988386 11.270498422997811 9.973114387748423
Ag 10.841424534681735 10.863448819112199 7.442757741112849
Ag 8.923272065558159 11.365854001228183 12.285065091707889
Ag 11.597657289277231 11.337406205338358 12.415611987436353
