54
Energy = -118.92530477 eV
Ag 16.154638368132023 12.274712878586493 8.428751468810352
Ag 14.779922150703285 14.78815634264503 8.63285873115987
Ag 14.348386759713733 16.115717743611423 11.002021485262441
Ag 15.756449641482874 13.581619261481437 10.877619224761439
Ag 16.066220786826488 12.384737691321812 13.432907005289243
Ag 16.202229333507095 9.219953076898268 13.358109969406177
Ag 16.176605810361295 15.247880623194936 13.017508340447769
Ag 14.961007483151292 9.680549275694506 8.510612831500833
Ag 15.668891585478843 10.794206211290229 11.037493097453726
Ag 15.61838380333853 10.805327206159376 15.672647640191348
Ag 13.761196301414918 13.166177536959554 6.677870436411548
Ag 14.277390573422165 15.789009159604488 14.897276691164159
Ag 12.206494571818068 14.338100344191398 10.29164390689108
Ag 14.70915763586229 17.80665180497939 13.09126536396179
Ag 11.800318279174277 14.833173696428073 15.348809747475801
Ag 14.077288544352081 13.094176006335935 15.687212254869442
Ag 13.641400742540986 13.79118212482768 12.88069567330212
Ag 13.274650910430559 9.294271475953119 10.769820077874451
Ag 13.598819889905423 12.009301737297676 9.339708605616833
Ag 13.849645776895978 10.536794685249081 13.370595022063005
Ag 14.522590874600295 8.265971416258331 15.514904823399178
Ag 13.649437431186241 7.624499907406783 13.02514332406175
Ag 12.743492337333674 10.605847384572032 6.945193021484488
Ag 12.157264491711533 16.559931394777823 12.858490526870332
Ag 12.318887848875807 15.512887533834364 7.628771646470745
Ag 12.901609863488028 10.373378692084293 16.380285279331474
Ag 11.852263856551293 17.048197390878375 10.011620761921193
Ag 11.779966773706963 12.044734307432583 14.39279363478345
Ag 9.80811329638204 15.219807276300145 8.818857855493734
Ag 11.187697457468651 9.428647809179964 12.796363097823882
Ag 10.750702143631399 14.091419871994084 12.751509094094715
Ag 11.431567734970715 12.584019336391668 17.116284843264527
Ag 11.223047003322874 12.932029818673787 7.896254986783733
Ag 12.95522020175246 6.486961400475413 10.586818730883467
Ag 11.724772673303722 8.117464654482344 15.235630819854373
Ag 11.949723125659059 11.796367591915756 11.57708226504346
Ag 9.610527181153962 16.16529588371718 14.253359325207066
Ag 12.623268408287803 8.1309259840146 8.29707459006756
Ag 11.069445669577675 10.433094627963207 9.185789513356129
Ag 9.94548081582645 10.461794376773074 15.781884318903163
Ag 9.551534027374462 16.222541167814324 11.429013822381883
Ag 7.518427992266492 14.610286360569342 10.311645621863594
Ag 10.999149796658624 6.644905640758735 12.773853626634883
Ag 9.105541679767535 8.246270984204042 14.322449671102634
Ag 9.576551893312145 12.720668160347687 10.258671431733049
Ag 9.330905601766917 11.57333159225806 13.007025457647636
Ag 10.579254570026693 7.830361328330941 10.174882711091085
Ag 9.368547485932053 13.410124367307434 15.324390784165729
Ag 8.831838918344074 9.94046771664683 10.74584435057298
Ag 7.204305011557939 11.774081218958653 14.694087487579507
Ag 7.907796845495105 14.210153513505896 13.047119517380985
Ag 8.387998832102703 7.371641912658001 11.789402383216547
Ag 7.022405605787059 12.060637411428747 11.498197691353024
Ag 7.118952459588871 9.611288158923061 12.941466340418614
