50
Energy = -109.24769231 eV
Ag 8.978677314350707 12.142268125562936 14.99783807715252
Ag 8.640972815340927 9.630920327904693 13.483622888659754
Ag 10.35227167841359 8.491904194117465 11.443966131222577
Ag 9.26586764370379 14.58961820632921 13.611350753135197
Ag 9.842406574958208 11.366447108752018 7.4536009320967125
Ag 8.11399149449039 12.471072313721557 9.348010603764942
Ag 9.822929208458403 9.74128315858051 16.08105725856282
Ag 12.150315968171109 8.103951497551549 9.24472612156608
Ag 11.299543267451279 8.282986038344102 14.136819792603802
Ag 11.393673781411069 9.16932648425807 6.700534055034857
Ag 9.629835255300206 14.611238577315563 16.408210562107318
Ag 11.02684123169587 13.563841504664888 8.966557670689895
Ag 11.628167738191515 13.318212158676095 14.897199939000782
Ag 11.252920288938451 16.297657973800703 14.723557611740974
Ag 14.838099394195726 8.442383038964826 10.027752040979252
Ag 14.07108767842273 9.067217147195821 7.422428737043815
Ag 12.893290867049009 10.226181908583296 11.128218245146792
Ag 12.526950567800432 11.20734491396091 8.36553844053388
Ag 10.402643512150874 16.313403576961896 9.107324015400051
Ag 10.418248001804512 11.157192513722043 10.304512898600205
Ag 15.272000774864702 15.254260519110717 11.155506590776357
Ag 17.890358668161895 14.973179861784768 12.002311547325384
Ag 15.874663071320382 7.919646536102725 12.498133001578907
Ag 9.507482817394052 8.716554853407112 8.710221974575354
Ag 15.323360284693763 11.023790687610893 9.015469070846594
Ag 7.303385856048791 10.21770917987806 7.958377557772245
Ag 13.723049673363672 12.89391858992248 10.400962762898164
Ag 12.955596932102775 7.502997349842922 11.908327155112918
Ag 13.528891175548122 12.103976929325093 13.219140689437753
Ag 16.045244505616626 13.2769985790422 13.217521551558805
Ag 7.936360282373902 9.833657676796564 10.706896072405359
Ag 11.299044443512596 13.386054644814942 11.951781131390417
Ag 12.682334291806239 15.496394447032158 10.3557677001363
Ag 13.938051923280556 9.357706720194823 13.788389769617215
Ag 16.671082038235472 12.937136104530223 10.453450497034776
Ag 15.656213222493937 10.699265252228095 11.870801349661898
Ag 13.328470190396917 17.475030622353366 12.58056207558228
Ag 13.332622461303087 14.884714797880147 13.195312323637854
Ag 11.032258069797537 10.908011161453611 13.272108418022746
Ag 8.999713751057863 14.620261318402605 10.792527660948911
Ag 10.704097479282009 16.47640010836162 12.010598094602425
Ag 15.9266795493756 16.091693874247973 13.747859221503038
Ag 15.150488722619617 11.41601453377493 15.332218141834774
Ag 12.467748565229137 10.53090576637714 15.792375567324894
Ag 12.378697057018272 15.034473094996137 17.03466971779532
Ag 8.510656786400851 12.232682568686641 12.222234658274907
Ag 13.547382866760978 12.539778430017 17.433148197516225
Ag 14.734222746985134 14.195279368548814 15.574943349422181
Ag 13.844893246938069 16.848660528021128 15.40954119510834
Ag 10.759483697021995 12.211039607203848 17.339664125730646
