55
Energy = -119.40638425 eV
Ag 17.34441704499989 16.51159422590015 8.429188478868461
Ag 14.494441991598435 17.208584519206514 8.082820327709026
Ag 15.425396338545067 15.789575869138634 10.195776255820832
Ag 17.061871622973044 11.452586447957895 11.087481612599621
Ag 16.127010437767183 18.51989419535012 10.122372840947168
Ag 13.355522969985753 17.71424421168466 10.666152467842931
Ag 17.476192539475072 13.976899256445735 9.925557637012709
Ag 12.401988650750596 12.74134391696077 12.097186288863345
Ag 12.821885255672717 15.150450509713131 9.40109207964382
Ag 14.819268005419971 13.09800575666455 10.766042752314677
Ag 10.762117055653889 14.809352572102663 11.307484226307466
Ag 17.92895416381762 16.61042526479107 11.238116274952903
Ag 15.2294911597616 17.78322597154679 12.746271830307304
Ag 14.50225554680508 10.78535094674909 12.338940768317336
Ag 17.305845541995485 12.048711827274209 13.763492636637737
Ag 12.402903129715847 17.626431892416875 13.466922713701813
Ag 16.451213825801336 14.557925401193007 12.55560531774486
Ag 11.74714397030501 10.469708939119808 13.462591034327101
Ag 13.505550193557848 15.317428671605356 12.124317973748186
Ag 11.46571753252648 15.013637540159959 13.969663792565473
Ag 18.52329378764485 9.760921323262892 12.796211967208986
Ag 9.996881926537785 12.748365831387382 13.530077471817814
Ag 13.656841651379226 8.342882552131126 13.303212032666742
Ag 14.509395622889558 13.050051604577506 14.065921193149581
Ag 18.727977644537333 15.715021122890839 16.699795985543137
Ag 16.802456255152602 14.37053737695936 15.297007268620321
Ag 17.653246010445756 19.06773055201522 12.529951091058088
Ag 9.848417650793847 14.285538048772334 16.080996788065722
Ag 17.653225631112626 16.698792185423507 14.118281986964808
Ag 16.1618097392157 9.178597217461958 14.110675542097445
Ag 13.899892871830076 10.383330728000699 15.203275458260594
Ag 14.312469566195691 14.094190824906468 16.821968864858786
Ag 12.347480023417564 15.915336291910313 16.417746864350914
Ag 14.494146174061234 15.866077486614873 14.62866645183237
Ag 10.15767386299681 17.180620863976035 15.466438004798038
Ag 18.229241898890393 10.144959177199178 15.646163658601909
Ag 12.046373290278842 12.526263672965346 15.523922554287465
Ag 16.45767427566989 18.975350883410098 15.09631897407661
Ag 18.785054851763192 12.808632547426965 16.40178721634907
Ag 11.457635798709745 19.637729462066282 15.212245037003724
Ag 9.028132357349898 13.592965629316042 18.606533504294884
Ag 10.208118205056458 16.079844489973542 18.2888611341808
Ag 12.989517306042018 16.096879310135105 19.115325799490037
Ag 16.073544242331 11.875753468786122 16.29699021539078
Ag 13.869858241827458 18.44223994404104 15.773925676995944
Ag 15.807911293387674 9.279133413031722 17.050212977518157
Ag 13.630500916865232 11.504253837261896 17.761209359228975
Ag 11.786826785454046 13.63667359914252 18.239428058004037
Ag 16.89563836187408 14.067429271970632 18.15258115753098
Ag 16.03638061166618 16.687890718062878 16.842757640872346
Ag 11.758953786679086 18.34488628656622 17.71534548277856
Ag 14.384370097206055 13.633838119085746 19.56219996737132
Ag 16.12034529041817 11.426408813782581 19.024699445443215
Ag 15.722484582728482 16.149607180516607 19.599158610197616
Ag 14.51411455442486 18.42296037294929 18.450101392819327
