52
Energy = -113.35287755 eV
Ag 12.34432531245559 17.868129181095867 8.48974929700807
Ag 15.342775281112841 14.414241066982573 8.669274419416176
Ag 17.50785441153425 13.426702850063947 10.154844713415422
Ag 12.774758373935798 14.914801849534719 7.718834952517059
Ag 13.692845338283673 16.133068457214918 10.083591810014026
Ag 14.081261691634007 17.08089958822819 12.927852247965065
Ag 16.1253258623276 11.754155601351473 8.172834191083172
Ag 15.83973750158883 15.18291652384809 11.465460590117088
Ag 10.705584396117782 15.851696152185436 9.271730608290852
Ag 13.361147080422294 12.172929726138216 8.147507106842275
Ag 17.25946660536415 10.657492039917758 10.440099185981126
Ag 10.477097488912719 13.168429612639821 8.067951570800265
Ag 11.700064384591771 17.52578245035264 11.316717899770621
Ag 14.805068854693683 12.51186428525093 10.748796601258556
Ag 16.764307671336216 12.60608047769341 12.765672053620866
Ag 13.001449618729925 14.660466595334093 12.486571044378813
Ag 15.504886339919318 14.733306475465438 14.132903031275962
Ag 12.111130465565278 13.391360933146874 10.262231987576065
Ag 14.49912544578544 9.856593811185434 9.59755192861751
Ag 8.374166134962659 14.442203164030218 9.522285926898968
Ag 11.188368289435289 10.733299840352553 9.299576348505997
Ag 13.910986322143817 12.319925722979798 13.676036955163415
Ag 8.495714398822349 11.668821374433428 9.634061547116504
Ag 10.142202479113676 14.868579492454794 11.779138992171353
Ag 15.52516849581274 10.156100552730573 12.417958986245
Ag 11.074526701389663 13.674202030945263 14.278689384430617
Ag 11.162484157565187 16.547752567411358 13.826383127277015
Ag 14.684958096364724 13.135378705699948 16.339095050538887
Ag 7.734419267468009 13.290830698143099 11.956796730929463
Ag 10.240230759687499 11.89647357033951 11.905712268142938
Ag 14.37232004010492 7.807801180914303 11.601671071244493
Ag 15.833913603308055 10.928893579099086 15.076814146600482
Ag 12.756741557613442 10.59880822013616 11.678433569595276
Ag 13.124213865179371 15.289431695126495 15.36392685624931
Ag 12.01179620721653 8.202420324429868 10.246197597288207
Ag 13.183764051956242 10.689121560934083 16.404687734456825
Ag 8.631389713181767 14.98393554625489 14.141008626864142
Ag 13.700897297346481 9.050598631032814 14.163411223701585
Ag 9.115619439109508 8.933431900206182 10.090912546946207
Ag 11.486128546636476 10.914026138044154 14.187397741789287
Ag 11.997423724627952 13.173607104617405 16.97534885056141
Ag 9.303689266453173 13.690555651227598 16.571270105603197
Ag 7.770196723119203 10.483516207676939 12.161460865131023
Ag 10.452951377609711 8.977855084054543 12.508453371388587
Ag 12.28503740151917 6.8747688961488915 13.152975893435318
Ag 10.12756013280046 6.44581180073952 11.355124669217737
Ag 11.367051877443453 8.495042144317285 15.600745147615921
Ag 10.203964159458641 10.964702364396887 16.60247665296856
Ag 8.648966503886882 12.103219720992143 14.369728883380787
Ag 7.834301541015002 7.762919505829533 12.428301031797428
Ag 8.740751149708554 9.318530547764551 14.730680180436117
Ag 9.701782354183939 6.708247327241601 14.203958355553558
