53
Energy = -117.15823759 eV
Ag 8.231707860454408 13.703420205674366 14.867243836672593
Ag 11.797376988868812 14.54796637876808 15.64954625922021
Ag 10.242899723255524 15.570974580775127 13.640662821434606
Ag 8.251030552740206 10.79363199567465 14.975532320807007
Ag 7.5792081315173 11.938745634544816 12.502914596143732
Ag 10.298165904737049 12.16900115465157 16.358012141524306
Ag 10.266494493310757 12.71280800866624 13.453219928716276
Ag 9.843913522645282 9.46317463206145 16.88575706900137
Ag 12.813096017317685 16.797822745400186 13.860113036338333
Ag 14.576261357790447 13.921043171171991 15.304950178022692
Ag 11.416735840496655 16.50999550025922 11.272251320279322
Ag 12.932176719182067 12.687168334642772 17.45133555684959
Ag 8.297301382817649 14.573891453712688 12.021429009740453
Ag 12.677856469814822 11.941281237942933 14.782095704461154
Ag 8.194627593114005 9.129360731348848 12.574443505557708
Ag 9.20153956364386 15.56579562743891 9.5626426996102
Ag 8.228207369841373 12.890391773569121 9.75977991324864
Ag 12.50615726129007 9.964857323574556 16.766439860870104
Ag 9.93689796552612 10.938945688506221 11.188961920959006
Ag 10.77074383257049 9.897149161277756 13.838440434716565
Ag 12.794500539207784 14.26803913024654 12.950439200849777
Ag 10.87618847876717 13.731731891047689 10.79577819999908
Ag 7.3876456218960564 10.223588141610453 10.172778869842395
Ag 8.81564018004595 7.889277287099427 14.908323448006565
Ag 13.064801110766687 17.83875536388438 9.409749957939798
Ag 14.250692006815374 16.307534634023263 11.375701437214278
Ag 12.501350815519372 11.657231574745898 12.047643104259517
Ag 15.628412386528629 14.269314828136896 12.773296976136441
Ag 11.807603437897448 15.52929499965764 8.613650992426535
Ag 14.550118014318395 15.60581828813297 8.391790757389833
Ag 11.623789953984536 7.6326633169424625 15.31104332482339
Ag 14.995551078905374 11.150317327558557 16.052024328144327
Ag 16.459747164378044 14.896271439845487 10.215678006815745
Ag 10.273616993894528 13.368018028848322 7.872848557176771
Ag 13.832462066146453 13.620292900121735 10.369480085244307
Ag 10.354827025929781 7.221541881141697 12.64431778391303
Ag 15.111573871253423 11.531056141571145 13.185062011417997
Ag 9.62244808999912 8.35307938683354 10.167479636091658
Ag 13.617942433136063 9.31194080258341 14.245511356090873
Ag 9.48018498895362 10.66618366612714 8.363253831550425
Ag 12.311144331910377 9.062905600657702 11.270700926859229
Ag 12.051973195480747 11.536979421187185 9.29847469720975
Ag 15.701739544520425 12.787691858985857 8.470858889107133
Ag 16.893745387205037 12.307342238096656 11.12480041183843
Ag 13.10114292290178 6.875248424462977 12.954096223239628
Ag 13.148490901829309 13.347004927506656 7.369537456929252
Ag 14.698290496228168 10.815166303238732 10.340564882250323
Ag 11.890514816805142 6.580328724481655 10.25484446437926
Ag 11.565090120927078 11.171334448636767 6.523817620470766
Ag 15.076384190106088 8.660424822606828 12.009406389529357
Ag 11.747063802253486 8.88049688063061 8.334865782165764
Ag 14.245641423190829 8.18647699683466 9.313868123062063
Ag 14.110164201872504 10.543035749002675 7.624485326078226
