52
Energy = -114.09342551 eV
Ag 15.709760611465459 10.708840651583177 9.121248263855932
Ag 15.265289879482692 13.586250987615738 10.1050840725244
Ag 17.10405353418328 11.907420903520775 11.418378486115753
Ag 14.051402574238324 12.587002936890537 7.745511002312339
Ag 14.414138932695943 16.042643733065322 11.28285580235757
Ag 13.223098439944627 9.885731064559184 7.861816214755297
Ag 12.693968168177754 14.68529494645889 9.356655516997137
Ag 16.246076457235457 14.375187122411491 12.664675348554807
Ag 15.49434178226213 9.629179339426393 11.731634461984857
Ag 11.944821309684638 11.528928646849016 5.9789087111160075
Ag 12.114540864030246 14.244423889762215 6.600707361702507
Ag 14.785897719360692 12.05308415876349 13.02472148545492
Ag 17.037293681611068 11.34493984290351 14.337872762976893
Ag 13.701778814086321 8.317041622286265 10.164283255558017
Ag 12.89223923131545 13.847374451289966 12.059106778145871
Ag 15.988659378066679 13.755480122947631 15.38711445082758
Ag 11.279965133759708 12.280808233702551 8.574003375195641
Ag 11.758674969638976 7.524717922433606 8.352255946360453
Ag 14.10000763421017 15.371130085743209 14.240896248024129
Ag 12.112226349120697 16.52307787464226 12.730494970408962
Ag 13.38707876981205 11.530408237461552 10.373486121313267
Ag 10.000964063666542 14.830913107329033 8.258549447948523
Ag 10.27855384249972 9.779506628549122 7.376106638838931
Ag 8.902535187642782 12.334120133275103 7.243868296319657
Ag 14.945342572515669 9.398577219629662 14.416393446694524
Ag 14.772485783411796 11.461231903055186 16.240451696167593
Ag 9.13808433375507 7.94510768170951 9.263942280319599
Ag 13.495261313655693 7.5284182160114925 12.868337283050293
Ag 10.325780246188657 15.168827444529722 10.999782528769925
Ag 12.698971901956401 10.15121726503328 12.670693775912627
Ag 11.219087507661897 7.142489106598773 11.18065830653448
Ag 13.46674132376895 14.121120895911703 16.733625424616722
Ag 9.461613676260466 16.69389219171644 13.32922258001065
Ag 12.580896851388024 12.488663508318618 14.658434790316965
Ag 11.200705267101851 9.728958646377727 10.11752860205076
Ag 10.464169339246777 13.980607411296468 13.622066492013143
Ag 8.318619754233836 13.416274739782146 9.951267965540008
Ag 12.417392650425056 9.71106761770417 15.532854151140535
Ag 11.542683487539788 15.852304887162468 15.43619139437219
Ag 8.588853616171193 10.699280117292163 9.526409408464273
Ag 10.690921320808396 12.238331969947732 11.315059864152806
Ag 12.34406763447246 11.617213052054826 17.568000850380713
Ag 10.812329226304442 8.21490729539229 13.756740349209535
Ag 10.337197503286431 11.012764659710667 13.786417959334234
Ag 8.978026680047577 8.977241068498072 11.833603193601315
Ag 7.943183796982794 14.387903276322435 12.582422455691313
Ag 10.551650602032705 13.432880808913048 16.55298470568331
Ag 8.680330251366229 15.174171461946033 15.478471690881953
Ag 9.87564903529229 10.656444204240469 16.532624258810575
Ag 7.997041586814383 11.590770058271291 12.202310628432251
Ag 8.277714755791191 12.482810379537225 14.944018531372034
Ag 8.102502661919237 9.611016199920119 14.437604019818256
