54
Energy = -118.07087674 eV
Ag 8.416201628988285 10.863997394918758 13.686927004309995
Ag 10.727289941777387 9.346141295598443 13.218563899236555
Ag 6.30579167966997 12.631029655734892 14.246617393014175
Ag 11.574943312039142 8.42906058321519 10.40427812866836
Ag 12.50835511969521 7.089026024812955 12.662445489458344
Ag 8.129617684430308 11.847340699719307 16.3338090550339
Ag 9.634243511773196 9.376122723393236 15.902553737719952
Ag 9.440520879583186 10.558128190529393 10.977314616681827
Ag 8.27300202536845 12.025425740532635 8.875239629923415
Ag 10.478009518816918 11.355871916800977 17.87982830147629
Ag 11.770512789742414 7.64166687101232 15.237642501153642
Ag 7.294686346534003 12.275645315506866 11.600837814732708
Ag 6.981691402639807 14.953553190666485 12.684278771861488
Ag 10.357873020597724 12.856540387629794 12.435192385448126
Ag 12.227826888088869 10.946198145220572 11.331326212698611
Ag 14.358160073336915 8.444999465943644 11.144731687407754
Ag 9.282430103709508 14.731208160270288 7.867746115932205
Ag 8.709880287689947 13.974933299237863 14.548642782756577
Ag 12.435388787189815 9.961538818315242 16.57340915631354
Ag 10.835144021319781 10.306276308912528 8.500523390085823
Ag 10.082407560056858 13.937362243285847 16.999006281321247
Ag 15.170170607101426 7.321040910868191 13.623184398058367
Ag 13.607382519651939 9.931496222668832 8.955961132688678
Ag 10.748737412371861 11.775938139995533 15.056427595413412
Ag 8.552056738599585 14.480488429488185 10.507295532133877
Ag 10.20167004368777 12.373612209695676 6.793262756485928
Ag 13.47049198818154 9.558761700787374 13.887376831724104
Ag 9.915368065696878 15.838191645352714 12.61411851311092
Ag 12.780844325570913 12.975245037214219 16.65800614531385
Ag 11.429995303093621 14.508636181701373 14.662345745269292
Ag 14.776952101328709 11.169125598723834 15.923044048761025
Ag 10.827929929249999 12.935111331688645 9.612288528744154
Ag 16.292094867789128 9.873546396799798 14.027672031109663
Ag 12.887301120438549 11.91178115271668 7.151585224778961
Ag 17.103994632248376 8.439967645113997 11.872308597757868
Ag 13.143147260486426 12.37725604473691 13.630085346797689
Ag 14.951576508639837 11.243607014836424 11.77870096096639
Ag 16.349822121713768 9.897136004056218 9.656442060076161
Ag 13.626320219041316 12.90584227900218 9.831991904564921
Ag 15.5728606342725 11.342519772214628 7.401654429735026
Ag 12.515292714916772 14.765180673284053 12.034081537001118
Ag 12.165761489689901 17.564931278016967 11.418942079115006
Ag 10.873616644844144 15.85465596490972 9.822484769169767
Ag 12.369524440054652 16.992211116934545 14.0985865918583
Ag 15.520848607837305 13.70950520763122 16.652966271960132
Ag 16.175954021418526 12.70722148457827 14.054521801557376
Ag 17.64491289781428 11.33061342896523 11.890295552619275
Ag 12.144826518340462 14.552352072621405 7.669768332534395
Ag 13.842506863214622 15.789800576185408 9.738127814957062
Ag 16.47810482166956 12.736047274296954 9.673603614472082
Ag 14.232099091777652 14.855115193265448 14.486600606514212
Ag 14.92081662890748 14.070198015059859 7.687989972768489
Ag 15.368484029763788 14.12664309507494 11.77770917286298
Ag 14.656751040817655 16.728169450375855 12.399661453954327
