54
Energy = -109.17457986 eV
Ag 13.928118010241155 12.787170792308403 16.56920088287792
Ag 20.05576530180858 17.32334642481953 10.699517099140628
Ag 19.784428415330982 16.198932214885566 16.24308859082759
Ag 18.172969262915213 18.245088867491948 12.46539962945147
Ag 17.84490457070018 15.999343295635374 14.04941589638275
Ag 17.985891858866722 19.25442442560385 9.999285296562615
Ag 11.65335312706392 8.926359568817004 15.120726908572053
Ag 14.227435518125269 18.885709240447625 16.143194540573493
Ag 19.557514476202115 20.342582031779063 17.299586787207083
Ag 16.35060747279948 11.653890516576729 15.733490212940698
Ag 11.268977802513357 13.561444713611198 16.645488863969934
Ag 20.43075696203782 16.895638237023974 13.491230132163542
Ag 20.73628494546582 16.283707421162614 18.8693391965243
Ag 15.661343233659965 19.34411398775412 11.624667515630948
Ag 17.801323093881088 20.996619673069592 12.258268486974107
Ag 14.075225511517264 10.128787974685828 15.6158474480218
Ag 16.369469502074363 16.838404540812 16.663931359740783
Ag 11.569295170019869 19.029582736723896 15.332278903510579
Ag 12.498742794137621 14.353124594487497 14.233143658642367
Ag 19.321728161979152 14.843795756985763 11.861428270551711
Ag 13.472459338275964 19.604812138523194 13.33944264363449
Ag 15.28460318411593 14.985124454287897 14.578245472611433
Ag 17.759897455081347 12.37313839693229 18.119158410188717
Ag 18.2078709540142 15.205769015974612 18.657646886268942
Ag 11.60954349407307 15.47045395428662 18.583101059764214
Ag 11.897074319252395 10.862284748910794 17.21687938277746
Ag 12.340309060760335 25.692076412711604 24.65283142667461
Ag 16.811015263374543 19.773602089163738 16.78419527120201
Ag 20.673036600881847 18.991405912290052 19.49159972848555
Ag 17.284154893947616 13.26958567562887 13.480623091492365
Ag 20.17044908176087 14.164016829320932 14.427801149624754
Ag 11.84347864227065 11.728760275808765 14.596721927005149
Ag 18.436934475021022 21.289228353772547 14.937967485014703
Ag 14.510812068073918 12.309981614903062 13.697654774533202
Ag 24.643795057795014 8.754396658303385 25.706272899832538
Ag 15.811569289544073 17.89645665484141 14.015882769987444
Ag 11.029671895357405 16.267811749319254 15.84497555956077
Ag 15.609974007066088 14.379058977673973 18.109705198959016
Ag 10.540534885677001 20.201073257944785 19.558184473572286
Ag 19.57720114088768 12.087174462314495 12.637770198702103
Ag 18.544622359276172 17.932603171662144 18.11040298099405
Ag 13.166232970149563 16.994199080383424 14.180746535081616
Ag 19.07130889176915 11.81306260984238 15.438909953919723
Ag 15.816185758795593 20.783200317529815 14.205252358135645
Ag 26.23174657149496 7.955766259828867 23.859334395425968
Ag 11.082312363377605 18.10328610923236 17.94833139599393
Ag 20.23109995072827 13.716051490256705 17.370253983275145
Ag 11.047421128042611 26.983554715304074 26.450977642020245
Ag 13.636912435633453 15.771727978677868 16.727145924904637
Ag 18.724437670291135 18.54203991902172 15.18899285718277
Ag 17.617400345031953 14.196849731579515 16.109051594343953
Ag 12.412639385547756 20.514453145977928 17.62133967477653
Ag 13.085729306418667 9.977611338464195 12.942872169052219
Ag 14.698784480884354 21.61628533408692 16.641540158717234
