54
Energy = -118.57650913 eV
Ag 10.934094439057024 7.763801794527773 12.044611582419009
Ag 10.171441410059739 7.6822715016717735 14.750797510356405
Ag 13.505835419958405 8.753448197104094 11.449233701920884
Ag 8.915885367291493 8.123717517883666 10.177062342408828
Ag 12.755260443354532 8.47216925857929 14.140517285735967
Ag 8.472008471403585 8.98376282676661 12.906823001951254
Ag 11.32674632578096 9.710039676095885 16.326790985374764
Ag 15.406740494949274 9.406406995776509 13.544070312685875
Ag 11.344478309630011 9.556807922461722 9.657375942733337
Ag 14.003893462150758 10.273774970751017 15.83403070888985
Ag 14.099460765951209 9.421248027805191 8.78528948502208
Ag 11.538480565793783 10.467218304936862 12.447913122253656
Ag 12.530336091392922 12.091156923429093 17.50422440417332
Ag 16.59818191184596 11.194773307240322 15.497281385852407
Ag 8.615581475504808 9.804536413934587 15.59285193995847
Ag 15.285534427524778 11.714019309635422 17.92779049441895
Ag 15.602315565610857 10.424604708098267 10.857416953154708
Ag 13.097798778888434 11.815033337987975 10.283400710769584
Ag 10.451068517862211 12.386629538447881 9.145904585546157
Ag 16.976752484619077 11.855606952021558 12.879239049326623
Ag 9.045733984712122 10.764426789807663 10.886915040649974
Ag 11.909125888109617 12.108085004136413 14.715274803953298
Ag 7.203943795824272 12.201130434391567 15.379437304080891
Ag 9.833209023629522 12.221188535795878 16.547235555181043
Ag 17.750207656883994 11.860813977622115 9.976249094678225
Ag 12.495068333557972 11.253367738790482 7.553254094492502
Ag 14.110993284288238 11.863964863792308 12.993983703635605
Ag 9.295660096335633 11.783462342855378 13.618187936151177
Ag 17.374466443102243 14.411692281024859 9.043167948319283
Ag 6.837704050809172 11.491314921643065 12.54105218833915
Ag 14.570617145429491 13.121728605282296 15.62299520237052
Ag 15.516441075430036 13.3762186850723 10.940196152827227
Ag 15.143314742648531 12.407376437029244 8.337396253535951
Ag 13.045866759374418 14.442472093263008 13.598250283084298
Ag 12.577327175874672 13.929450793788641 8.147895249875955
Ag 14.25867318156587 14.46150595107355 18.0693785940931
Ag 11.139458089231363 13.189804265554704 11.946510086653042
Ag 12.065946263624378 14.608399328463433 16.36832772969508
Ag 8.476955848763781 13.477414256025972 11.030025117770187
Ag 18.151607327296006 14.124718852377564 11.776155606906604
Ag 13.173114372176247 14.895260471469395 10.8171175960428
Ag 10.01301714752296 14.355114843524166 14.592887508598983
Ag 10.458683906952457 15.107060695548173 9.861594603044752
Ag 7.458448656879184 14.211939814620198 13.496546137893892
Ag 15.950725354387982 14.558116505177358 13.569335355941819
Ag 16.322991186809247 16.12850083308111 11.179838715638233
Ag 14.417059453755579 15.96785995727744 15.6285221326929
Ag 14.89313065748476 15.424235983174322 8.667480254671426
Ag 14.243453743406452 16.92011305939916 12.986749215392212
Ag 11.588075821314963 16.69818375443395 14.282038236147944
Ag 11.741192460389668 17.204825502842347 11.499885441799766
Ag 12.3674544733841 16.670681256123565 8.601642423126771
Ag 9.464663895792176 15.886441042416902 12.372478188471842
Ag 14.254752515763224 17.713229958789817 10.330191084731066
