51
Energy = -111.45363758 eV
Ag 15.590306045672627 8.708738336317817 10.730033651485254
Ag 9.499685117234877 13.133837556526545 7.446068829747061
Ag 14.55128544116029 14.738570627624945 9.667772358826134
Ag 14.387010678568638 13.93381123544055 12.551870487295233
Ag 16.852607235653746 12.297127336494892 13.553171327326922
Ag 14.286569574345739 11.41011139193667 14.436628793478192
Ag 8.6604785171399 10.647083076805476 8.516811002110414
Ag 10.554660301342834 12.147204499340996 9.868792309596952
Ag 12.217107070781 9.574421924009158 13.79527916057688
Ag 10.801264304427889 17.245746614011367 10.957371648579423
Ag 14.030452581741079 7.571176290916356 12.958568383198363
Ag 16.62657674449183 13.267145178392806 10.780424745797193
Ag 9.907965940113698 15.442327304125726 8.986774847175342
Ag 7.990545887454883 13.543692094226087 9.829811318358015
Ag 11.298791705345845 9.04991061636838 16.383187292268946
Ag 6.986445763334446 13.504716370578162 12.57721465276837
Ag 10.998501330693347 7.594373952464378 11.937358979782347
Ag 15.335822866869604 13.818554159679246 15.329654245342626
Ag 11.500755173103604 11.136954569601922 7.44054710172559
Ag 9.129510714071019 14.110629788329014 14.781992149653048
Ag 9.685154346734503 13.047665600958481 12.354087933947946
Ag 10.061768545904421 10.25120255856896 12.01069661491228
Ag 16.004454474289798 11.098284731326324 9.083659311759872
Ag 10.656432699806125 13.15534539625478 17.06513882596822
Ag 14.98260842814554 11.233196435105576 11.76317911138599
Ag 8.681946620069395 15.571127559244395 11.670792121075928
Ag 11.130163444925529 15.740660633022543 16.065460430660337
Ag 17.652564037200893 10.63011056838054 11.400192398656623
Ag 12.574986303068162 16.547360171320946 8.937662766262898
Ag 9.47572053847197 8.712012822251548 14.278732624838668
Ag 11.870153359399731 14.452461481238771 10.836050807307851
Ag 13.307705841667653 14.203103875514598 17.134253217114033
Ag 12.89924914875822 9.492861101723875 11.088696817045378
Ag 13.579246784901217 15.918447212947353 14.57515611296554
Ag 13.423558114941159 16.53465916140143 11.801029960618076
Ag 16.10357224892155 9.355201250445074 13.5245839501821
Ag 10.397158757956053 11.404859699409448 14.841180656081582
Ag 13.693272103656367 9.604126067913295 8.451903826719246
Ag 7.518653083514815 11.137334973240137 11.054083454960095
Ag 8.4905472584477 8.480373934456878 10.637148676897194
Ag 11.834384320552534 6.9386149523780745 14.58980528453222
Ag 11.038566141742331 15.687291351376087 13.267053185722055
Ag 14.180636175382913 12.063915044695822 7.074386735201173
Ag 7.873487768039423 11.120102181697987 13.791535522041265
Ag 12.251657565627866 13.481513428920485 14.68158484385882
Ag 12.158894051772604 13.981361874872253 7.9089140738272
Ag 14.084703624069302 8.779586138084992 15.635494168901971
Ag 12.268060085395604 12.012306411706778 12.318577215037518
Ag 13.406898297348494 12.170412763618138 9.705403429693755
Ag 10.856976180979807 9.103555691457263 9.314166892175514
Ag 12.789982716497734 11.36587780014639 16.741840111581865
