5
Energy = -7.31810199 eV
Ag 8.225273382408355 10.743312909850378 11.145637022803234
Ag 10.330535312873248 9.16779241407493 10.512385408552289
Ag 8.206225804095988 9.45041032276817 8.793462613611853
Ag 10.173240211045403 7.590082133768098 8.258611077086835
Ag 8.222055049430491 8.129194685534646 6.460835914149408
