55
Energy = -121.07177646 eV
Ag 13.657540939135885 14.018861387228071 13.568946275217472
Ag 9.028728652204972 9.68595087367894 12.520126521151811
Ag 13.457520829019453 9.629552019542135 16.111604141175796
Ag 8.891378740912 14.006854671481577 14.927345071891551
Ag 13.797729372282811 12.5629390756446 11.096338107784577
Ag 13.529676063995042 12.57541860836655 16.061421847903063
Ag 13.63233387320727 16.90036794126116 13.541770815958277
Ag 13.80218756499369 15.538946912767557 11.029783534618435
Ag 15.851564870907122 16.790750252118638 15.306004763137729
Ag 13.652096629763015 11.11990432656816 13.575418405506404
Ag 13.816992965944724 9.601737363292203 11.04277994542774
Ag 11.167537487382862 14.037577603642497 16.790898313909317
Ag 8.872903156338067 11.111102112933878 14.938262827511632
Ag 16.17021171677321 14.016792593199243 10.421680825405577
Ag 8.838613386072614 12.588039299659094 17.336126881530255
Ag 13.622893344054749 8.252045268938675 13.546157276716931
Ag 16.18190266648391 11.093265130407783 10.418957005513851
Ag 15.988865562641385 11.137327674512516 15.344013448522844
Ag 11.270422994858835 12.568606400347191 14.237509804781732
Ag 9.099990211528741 13.957903910487676 9.999751444207188
Ag 15.813706853662369 8.33218545213374 15.33776895552221
Ag 11.266425228950563 15.530789266235447 14.32626038844146
Ag 9.094822247771434 11.110758024123259 10.004384341738728
Ag 13.492686032750786 15.521645122148808 16.09170329486363
Ag 11.237637301219221 9.613560835893361 14.327640464093797
Ag 11.560525939365872 12.547773119318155 9.298136657109017
Ag 15.997617290963527 13.97777811511067 15.338648309391505
Ag 16.114186782108348 12.55244577776166 12.869281947054832
Ag 16.193220794589205 12.568715147295157 7.994332946369992
Ag 9.27249461542526 12.522672612871936 7.499432651739237
Ag 16.008367139948295 15.451487637460456 12.822633905434106
Ag 11.567009567873024 15.50385720931823 9.26702729587186
Ag 9.274153043300048 15.355283481041884 7.576219826790547
Ag 16.024385606131556 9.674235664749718 12.847580255801303
Ag 9.205000023179085 16.77398978379707 10.049876862087507
Ag 9.331298742850073 9.691798603617194 7.5624767539290865
Ag 11.421314312677199 14.014036326937147 11.782617999012313
Ag 11.587952065461206 9.596820305380167 9.261172349001
Ag 11.624819559289525 14.001964255535908 6.825883227929044
Ag 11.417662860329466 16.900242320475762 11.81656895458914
Ag 9.220957693782905 8.308598897932423 10.047094802725237
Ag 11.650289394207508 11.088382556784929 6.818735510840371
Ag 11.417233728230656 11.107273919282743 11.783904261268196
Ag 13.928252379247347 14.131738036646887 8.581831979250968
Ag 13.980182202581913 12.56225221593175 6.257656812977132
Ag 11.412742204772288 8.237048214004638 11.836336335522446
Ag 13.945601952862809 10.986561643615138 8.589284812835386
Ag 15.82127379577365 12.562823127683783 17.85173813109179
Ag 8.946129961647603 12.54765125704072 12.474426204592259
Ag 11.139957259767714 11.111681358190134 16.774618278960645
Ag 15.830751236930267 15.382900262443403 17.762559690507555
Ag 9.058104874493255 15.426466588372188 12.527848516939015
Ag 13.473167760151714 14.032589305919334 18.504419493272422
Ag 15.744632264990056 9.743822684257095 17.792886070263346
Ag 13.422470576414396 11.162351766811941 18.51023877650957
