50
Energy = -108.59831974 eV
Ag 16.157874769240255 13.319760461064885 15.527627041334775
Ag 16.477450656524812 11.645500655473308 13.285179486122544
Ag 15.969753823348007 9.710872468789134 11.153303067453704
Ag 15.656506151460558 12.590993646338916 10.721717909841557
Ag 15.730632754127441 9.015877795942984 13.894867017164794
Ag 15.580363060659607 14.264919878173032 12.992585421898433
Ag 14.57936246356871 7.986866811302195 9.375262437045881
Ag 15.66497213279275 15.212411791503886 17.45369506540438
Ag 15.165687885353323 15.39350595681028 10.417399553098493
Ag 16.710388981810176 16.081400817096565 14.845011716912909
Ag 14.034637865991568 10.707331363090598 9.333294904641555
Ag 14.232924401184144 7.548658466352179 12.096151790098006
Ag 14.475407274886567 11.136443494528828 15.194251761386218
Ag 13.801573338086989 11.085990646779063 12.298602570084455
Ag 14.833076288569748 18.098465343480605 10.147720944609766
Ag 14.738737269909324 16.94489802935896 12.869518814944287
Ag 13.679740540624438 13.43257687487819 8.830253791540725
Ag 14.098667392250764 15.449620304791054 15.201996756666519
Ag 12.192496385805876 9.037592531055026 10.729106745437091
Ag 12.626642459947854 6.1678628656044365 10.307875956601285
Ag 12.877159471236855 9.036482786647715 14.028396703989273
Ag 13.18371984969598 13.90282725307445 11.631763855259535
Ag 13.582799010186491 13.22900292869896 16.977318503298175
Ag 13.29171014677864 16.188898360073345 8.476608367299791
Ag 12.6387101701859 13.14112936046971 14.247176599493947
Ag 12.58775132830837 16.930268311559082 11.103076252912171
Ag 11.887830000349147 11.461682511977092 7.642906711463104
Ag 11.804526123021509 10.869239042620883 15.886296382663149
Ag 11.590425798349347 14.217429791317803 7.131248219768581
Ag 11.28506055569084 7.143790893844678 12.583795932365161
Ag 11.62899415473057 11.84602720698014 10.418723694760294
Ag 10.098450680613192 7.218209721713817 9.899987614833188
Ag 10.846649717112559 12.718749151228588 17.669200114157988
Ag 11.152307035338517 14.790160579177618 9.802361486777835
Ag 11.973203038826219 16.380163639358 13.728992839352152
Ag 10.117294267252351 8.777077756002852 14.607161604155602
Ag 11.485909841904988 15.001138038279734 16.124043685989243
Ag 10.486842849212445 13.7751478032426 12.390109821641998
Ag 11.08867402944733 11.023034878604559 13.042343823470212
Ag 9.57860463001282 12.716558282436035 8.559568520934718
Ag 9.080038327186983 10.619758307598667 16.50370458742111
Ag 9.933913049027247 9.92988739808558 9.130433816622212
Ag 9.810181374992167 12.896430207469884 15.056482094480913
Ag 8.314761644933727 10.830295043565343 13.786635257673801
Ag 8.791985995829002 11.724222993422627 11.124797099555494
Ag 9.3791211239431 9.071919953401878 11.814763351373067
Ag 9.948490399358986 16.52708546893409 11.769322116726759
Ag 9.388965864276535 15.586914841618036 14.350558859848375
Ag 8.418853053111842 14.435020482164164 10.518991488549919
Ag 7.768982271200562 13.509351978298932 13.142016596961474
