52
Energy = -113.45725254 eV
Ag 14.051298848323617 16.568431629509316 15.042198266730376
Ag 11.979595126285716 15.279853297415164 16.551705181891894
Ag 11.435566758750726 16.761193734526852 14.202440068038406
Ag 13.976498421670373 17.389494419275398 12.411720399204244
Ag 9.317120787538093 15.273736172218577 15.44184505544292
Ag 15.663693198402656 15.255378744462234 13.053367266762452
Ag 14.04084989722029 13.819488294571523 15.26870479670314
Ag 9.223397706692069 12.663157484812542 16.52208732291796
Ag 12.109128546814613 12.481538266230116 17.02207230888854
Ag 11.437820313382561 17.14848161729938 11.432266533447805
Ag 12.876630786438824 14.773970465027782 12.606260766325727
Ag 11.191320234089677 13.364507156196954 14.548313964179206
Ag 9.822883965100798 15.10383880472184 12.688039056809925
Ag 13.844456700619018 15.771324155530124 10.01555364611074
Ag 15.589249492555574 10.073869075343701 13.817677400932089
Ag 16.846865343227137 11.128685990874141 11.583424927788078
Ag 14.809643187769673 12.638014957738442 12.874372148706076
Ag 8.371814041184223 12.978133798758307 13.888556306423164
Ag 10.651294853198014 10.511495693151089 15.5548127528426
Ag 12.524703339891678 8.410843313399035 15.594681858841765
Ag 13.218131583901727 11.193914492139637 14.700226239579736
Ag 16.19508007596473 13.784901018549355 10.704251542004014
Ag 11.144649516230126 14.671050995473085 10.321674626452626
Ag 11.723272307150276 12.148768535657194 12.108399310988469
Ag 14.370091827250313 7.718139865876493 13.291558322193852
Ag 15.744434434406786 8.53494050139862 10.848955060221433
Ag 9.723767154288819 8.132180242175675 14.437340162501268
Ag 13.91620882634063 10.387040137335829 11.448110432156128
Ag 7.881825727216812 10.390558044467994 15.011104290746744
Ag 13.518807232444454 12.965470408563284 10.156758002215547
Ag 15.563256960399418 11.217679786159712 9.18617614946665
Ag 15.148313709625446 13.872941361938487 8.103345386476455
Ag 8.923528303456822 12.92169463943397 11.058282878478527
Ag 11.946039790804722 9.284092572922642 13.10268766353746
Ag 10.885476598745727 12.18293358609537 9.182250534153846
Ag 12.351627364059803 14.31722376067615 7.803382136000868
Ag 9.508973736712784 10.581693477565846 12.743301999471056
Ag 9.456689722467052 14.27756404713217 8.09926245515694
Ag 11.80856768724934 6.5017709348040205 13.455352613638166
Ag 12.901686892944804 7.465392571578787 10.968269162820484
Ag 7.550440402804869 8.54015058044735 12.702409709222643
Ag 13.33334613591966 11.663496370022155 7.565116020031174
Ag 6.863322265534475 11.249470792990298 12.243883113040148
Ag 13.707748218749684 9.104545387166715 8.829149537834233
Ag 11.287745576422726 9.810720542162425 10.40813476474419
Ag 8.05233403758752 11.949544239584357 8.546561107911206
Ag 9.97796055221568 7.596627120736645 11.528924094907854
Ag 10.804215921996793 12.171844115940727 6.4525406579514435
Ag 8.363811599720984 9.709901433195977 10.277397926184495
Ag 12.053157025103962 9.402567934997897 6.571174153274269
Ag 11.172811579915615 7.607635127487782 8.716082247527527
Ag 9.74169212424177 9.878650445738858 7.896083430551571
