6
Energy = -9.53784476 eV
Ag 11.01289706890403 10.570836660000447 13.532875261626206
Ag 11.700089695734215 13.02573702224792 12.507727011389058
Ag 11.203786756373475 10.782462190628317 10.871479289308914
Ag 11.530465849097641 13.201384148229781 9.767389915845229
Ag 10.994275936034652 11.01258517637723 8.22224503950047
Ag 10.486672169243805 8.437553582189302 11.92451003497264
