6
Energy = -9.54102802 eV
Ag 13.05910441670066 9.866937702972702 11.378169115770936
Ag 10.483146832781621 10.21456161072543 10.515454112312758
Ag 14.007933476147922 11.9305894886306 12.901003279698608
Ag 12.597925570278077 14.226566893788663 13.323961926272384
Ag 9.075996100860003 12.521063041072061 10.896215140695073
Ag 11.564297761609255 12.259653854430395 11.848463574882755
