6
Energy = -8.68189163 eV
Ag 12.21974558895632 14.101580630265147 11.300478682374626
Ag 11.114648916231909 11.771804744108264 11.146062575521269
Ag 11.436734546956151 9.220778437816953 10.083556670998473
Ag 9.014437708621044 9.933650948219645 10.823680840933582
Ag 10.949711994749302 9.532171711116636 12.810254640300867
Ag 10.124746509519055 11.114445129076824 8.55876577494483
