6
Energy = -9.53345401 eV
Ag 10.526781624951505 9.088615174054983 7.181958175918118
Ag 7.865722658422842 8.57290734561465 6.856571683343027
Ag 9.564474908236834 9.43904657356085 11.873363594495698
Ag 6.069038459689548 8.546174852621872 8.892077230127063
Ag 11.293418772348202 9.22242725024507 9.797994177029533
Ag 8.650666475120582 9.09725986771778 9.365723431459731
