6
Energy = -9.53906626 eV
Ag 11.064892150328024 7.799818269414102 9.772439235124946
Ag 11.716479371011733 9.978863623838624 8.260414220353978
Ag 8.455994329693219 7.122908514117778 10.306377342762774
Ag 9.165310491546059 9.36260687069798 8.72846505952619
Ag 6.615388492283707 8.970644344276577 9.424058418643046
Ag 7.342511134005205 11.158026901069109 7.955871954551698
