6
Energy = -9.58858226 eV
Ag 8.803807 11.197495359367466 8.598952110039823
Ag 11.076861774046806 9.542153424278794 8.598918938919729
Ag 10.212938938779535 6.868521235994983 8.598576322170363
Ag 8.803807 8.803997320084859 9.828899367779872
Ag 7.3946750612204655 6.868521235994983 8.598576322170363
Ag 6.5307522259531945 9.542153424278794 8.598918938919729
