6
Energy = -9.13052877 eV
Ag 10.295003138593403 8.978717 9.551456741340864
Ag 8.978717 6.613031788877264 10.01985859637568
Ag 8.978717 7.635210166611784 7.364835662283456
Ag 7.6624308614065955 8.978717 9.551456741340864
Ag 8.978717 10.322223833388344 7.364835662283456
Ag 8.978717 11.344402211122738 10.01985859637568
