6
Energy = -8.79875795 eV
Ag 7.176645125732863 11.55176182574769 9.177288782324233
Ag 7.698988515009992 8.99965401884619 8.719794117962609
Ag 9.798325405760274 10.809577956169381 9.249515193910007
Ag 9.278822608619393 7.102032061574898 7.508381273694843
Ag 8.789765610208969 6.915368960850699 10.0709438340031
Ag 11.109878741902914 8.500546782839567 9.144326453177754
