6
Energy = -8.693815 eV
Ag 10.366718448647612 8.930028521145585 10.233630037986389
Ag 7.910078730223224 7.763006282098161 10.327754845665428
Ag 8.880966246529681 11.49880454154112 6.568040149380831
Ag 10.920504219434248 10.568374260492995 8.09965297275638
Ag 8.45507347872344 9.329483873797395 8.194461098787311
Ag 9.460749465490675 7.892967413467382 12.559874539497619
