7
Energy = -10.15238789 eV
Ag 9.900583076622386 11.164833925961139 9.804907607144955
Ag 11.507733658234274 11.591708420485306 13.785844871004514
Ag 12.120270283399382 10.708106091995862 11.301888393652874
Ag 13.120439180301322 13.338617239898817 12.594862806943008
Ag 14.083358769293115 10.718105033666129 13.227806280296619
Ag 10.509049170519182 13.075897714988264 11.677193702278835
Ag 8.719890643367556 10.774619290750575 7.4897557584651535
