7
Energy = -10.67988505 eV
Ag 10.894182943163889 15.800910854503336 10.84894898800962
Ag 10.850733959430102 13.198248506625044 11.694246563376216
Ag 10.944740626929676 8.135935449859906 13.751412800653183
Ag 10.872312884943268 10.684368638621175 12.712716512354659
Ag 13.001768199413934 11.560820182546133 11.14933332448735
Ag 12.942489668678721 9.008491607621579 12.191366576662034
Ag 12.89188292463775 14.146493637217082 10.163332092824954
