7
Energy = -11.15148346 eV
Ag 13.452676688451156 9.30852148676971 9.830153122196744
Ag 11.608159148557187 9.786661767130333 11.778038425164596
Ag 11.605333215245262 11.160016816945898 9.335642046091067
Ag 9.215152566538505 8.759586949069156 12.577086938361434
Ag 10.96554590692594 12.528955999543312 11.717466235973433
Ag 9.134550357556058 10.635650384302531 10.695700837543503
Ag 9.549920011036061 12.946854566712167 9.323581137222247
