7
Energy = -11.11464176 eV
Ag 8.736472525458955 12.070494511878813 9.057097960818787
Ag 9.27758166570091 9.806594086998539 10.438209204590288
Ag 11.067111572741752 10.674346943814097 8.508162964014996
Ag 7.960344296375179 9.672416207378294 7.930774956550664
Ag 10.144752376566649 7.36091019345694 11.163132961540324
Ag 10.300567282643797 8.059482055848585 8.495152500413875
Ag 7.740895946242513 7.583481666354479 9.635195117801224
