7
Energy = -11.27164771 eV
Ag 10.413345533556962 8.006743137494102 8.623773
Ag 8.308799403370939 9.698378600705784 7.262288842593869
Ag 8.303514062646755 6.881058649126509 7.270833732723429
Ag 6.274142936975338 8.453267182577367 8.623773
Ag 8.303514062646755 6.881058649126509 9.976712267276568
Ag 8.308799403370939 9.698378600705784 9.985257157406133
Ag 10.454295597432186 10.747526180263577 8.623773
