7
Energy = -11.14493293 eV
Ag 10.05862532955332 6.661379740700022 6.911990444187533
Ag 10.839461353593657 8.996510888842339 8.010313456534337
Ag 11.740756780345468 11.211233703904629 9.242361220575747
Ag 8.274488913778493 8.034503957290573 8.405883008696781
Ag 9.388274350733436 10.183701597760377 10.030045655391667
Ag 7.958690171884628 10.814305018423125 12.268142773909604
Ag 6.851592046895305 9.270416370886448 10.338381232481831
