7
Energy = -11.32565563 eV
Ag 10.448486543996806 9.730233392087529 8.82716791433052
Ag 10.987504132270113 7.008206021997961 8.961443876329197
Ag 9.052091195723428 10.751978797863321 11.00454840220111
Ag 8.892065495662298 8.018031984273998 10.49303305367592
Ag 8.740902550795994 7.740191010306488 7.65695700288896
Ag 6.706032941267408 9.066234747306067 6.511251205238572
Ag 7.591647554201035 9.966604994233654 8.8758586210256
