7
Energy = -11.60820082 eV
Ag 8.939843823440908 10.158803031167825 9.756971998108705
Ag 9.866207035840942 7.740590935879772 10.753247705775127
Ag 6.897663943568783 9.626838624896578 7.934178075261707
Ag 8.920381908216214 7.704887840188124 8.098373303619184
Ag 9.461385042123887 10.234852063750962 7.019459365752674
Ag 7.1505995592937275 8.046032473749358 10.221375792250761
Ag 11.294166669230002 9.004269028389304 8.719508728493407
