7
Energy = -11.18268588 eV
Ag 12.366355173185505 12.2168459743585 12.428788304591857
Ag 13.30043482958366 10.767694113107138 10.300346899547064
Ag 10.821140834950393 9.725622533623422 10.924888048060925
Ag 10.959910800616923 12.393357261614304 10.05383621054296
Ag 11.42067239197759 10.295693396184166 8.309005244434745
Ag 9.660904670252219 11.766325914128267 12.423658542055984
Ag 8.625708985832185 9.253980691955 12.366485192395096
