7
Energy = -11.6084324 eV
Ag 8.01240888410494 7.571598894831349 10.608483161597125
Ag 10.014792756030312 9.451884666136184 10.014599444496008
Ag 10.128684221426377 6.9171907166401665 8.902429507819038
Ag 10.652626094152522 9.137985365455057 7.290709030022511
Ag 8.9688002803913 11.195084124837823 8.103578143459563
Ag 8.02505506195371 8.554007992367604 8.005362190022055
Ag 7.3372523005652335 10.231608393382063 10.144843810473652
