7
Energy = -11.06189712 eV
Ag 6.868828730431923 10.47744671951291 11.021901898747473
Ag 9.343643723830287 9.71670101890708 10.336906449910426
Ag 11.612713345733988 9.937586565427829 8.806798607118436
Ag 11.037220630405837 7.5344965308848835 10.228056849328366
Ag 7.180112958873268 9.295703532385975 8.638845904665741
Ag 9.639711115315158 8.187539208260185 7.96568348157801
Ag 7.567700814034021 8.109950485553602 6.269385898902518
