8
Energy = -13.90594243 eV
Ag 7.102758279145993 6.954038913153244 9.859254649199675
Ag 11.599007073123126 8.63082552457496 7.394680559079329
Ag 9.360117119983602 7.747626384689665 8.614919906372123
Ag 8.692668037874014 8.837358486734402 11.147768798009954
Ag 10.973813044391786 9.671007767285639 9.898182682579115
Ag 7.098946446467777 9.445623540357229 8.617258783972535
Ag 9.381328025686873 10.298911012041808 7.381197232332343
Ag 8.719809486535423 11.316834004813762 9.889682852156254
