8
Energy = -13.39731654 eV
Ag 7.775778892271349 11.435735023513931 11.524406954098062
Ag 9.11064532853673 9.60295940211707 9.973165582134552
Ag 10.43194160965143 10.360179698047576 7.610067604423045
Ag 11.670499373423915 8.528144741417899 6.044207204753675
Ag 10.41042768311243 7.745697953178423 8.329019106690785
Ag 8.895053481792985 6.977105750216973 10.48623461057431
Ag 9.370736933583611 12.204106854312593 9.336315093086267
Ag 7.757467692423385 8.858781225474052 12.260607782533784
