8
Energy = -13.03395445 eV
Ag 10.013817757565972 8.654252035017475 8.346816837744944
Ag 9.907066886123047 7.346754692981331 10.806820723749272
Ag 12.3189112952934 8.554509156464599 9.926352649019128
Ag 7.771503358873713 8.929412705643836 10.046180369067892
Ag 11.543104164488973 10.954988907408271 8.644501149906718
Ag 6.117298841663489 10.921513068004451 9.214637787057448
Ag 10.203515938120237 10.107906921415555 10.929967980675466
Ag 8.781703383197177 11.18758413839021 8.741644128105143
