9
Energy = -14.80437221 eV
Ag 9.735103017739176 8.348616266569172 6.213982205075653
Ag 10.36433359288763 10.735553260542956 7.598896993617315
Ag 11.423425987476474 8.897663399505948 11.32676935009435
Ag 10.55089567884014 8.278401764050995 8.821129150770771
Ag 8.661608866212791 11.659077523801944 9.442829727772004
Ag 9.344956637278337 6.636246505426245 10.608857592618104
Ag 7.974202250984125 9.148366524147141 8.177531592340218
Ag 8.78864102352253 9.28523254150682 10.845289301810153
Ag 6.3250041725547606 10.186054383324052 10.132277301422205
