9
Energy = -15.07594775 eV
Ag 10.85106678396969 9.267062547615968 8.181152199826837
Ag 11.291150378921666 11.555908360509324 9.656112803722365
Ag 10.596323461298491 7.029316929056917 6.700395457035457
Ag 9.774240017131746 9.334841615228195 10.757556505734893
Ag 9.35223582478652 7.109318836768757 9.078289315274915
Ag 8.762554325870695 11.05561697299359 8.75271366363633
Ag 8.056228225004958 7.112412839808898 11.49770613539283
Ag 7.257200186272693 8.898261875022841 9.581904370210085
Ag 6.289432035161888 10.633672282281953 7.7741822026695075
