9
Energy = -15.59985685 eV
Ag 7.583482840291544 11.372250458345185 10.608206027348343
Ag 8.578099602741167 8.823034692184429 11.131107488249883
Ag 9.868798969130196 9.222270205644662 7.728269791430153
Ag 8.628961563460203 7.024163932521004 8.975433755173464
Ag 10.290458501418355 10.818596475157415 10.060834963552976
Ag 7.1992789303813245 9.331037645680288 8.730469555376988
Ag 11.085261308697458 8.210118635025847 10.061192524759631
Ag 8.599405767509499 11.624679327844392 7.97876726232357
Ag 11.102590759991239 6.722088522070257 7.724577859642486
