9
Energy = -15.42202396 eV
Ag 9.147158813660234 7.671343612986541 5.557672534610577
Ag 6.568371535147784 8.840925430232884 5.76796254345885
Ag 7.117555010552914 6.317177459760774 6.856292394527059
Ag 8.676394654016242 10.040919951349254 7.080735843390488
Ag 5.298022677424322 8.095763014743099 8.070221155007431
Ag 8.728685033495745 4.77358105357948 8.554087365585852
Ag 9.280887528041994 7.561860962869051 8.308688696924847
Ag 7.4132093417641345 9.344571559914293 9.397091755890486
Ag 7.0229459903870035 6.607087539055139 9.660478295095068
