9
Energy = -15.56806796 eV
Ag 8.826813 10.208204555529061 7.313641239649285
Ag 10.277939960235456 6.53225619335782 9.583624051198372
Ag 11.067612728663963 8.826813 8.211613794962336
Ag 7.3756860397645445 6.53225619335782 9.583624051198372
Ag 8.826813 7.445421444470933 7.313641239649285
Ag 10.277939960235456 11.121369806642182 9.583624051198372
Ag 7.3756860397645445 11.121369806642182 9.583624051198372
Ag 8.826813 8.826813 10.056310725982643
Ag 6.586013271336032 8.826813 8.211613794962336
