9
Energy = -14.06794639 eV
Ag 11.324905545017028 8.768869860242273 13.168866258279307
Ag 11.106019196247322 7.62695901669112 10.786543245712942
Ag 10.10116682563728 10.98384655939863 12.377249820519152
Ag 10.945674709144175 6.647283110181526 8.326216881378228
Ag 9.886184954843838 9.888051916857082 9.902722600586008
Ag 8.79618519507133 13.111307842982814 11.478078560718174
Ag 9.749616774342591 8.82615042387681 7.406839328195782
Ag 8.615522572152056 12.123164776111718 9.02462160402239
Ag 8.478907395748115 11.01837615605526 6.61755956795361
