9
Energy = -15.45101738 eV
Ag 9.539600690397886 8.654007243230208 10.78529964964612
Ag 10.712076411966326 11.068183213866924 9.847997001086025
Ag 11.383214387205593 8.713709818014467 8.622678935121105
Ag 8.041420392223309 10.929695193759866 10.758769854096748
Ag 8.747325077293134 12.634423091961319 8.676235631200363
Ag 10.91220184538844 6.384545544815161 10.056917916445284
Ag 7.035205168907928 8.691953280919309 9.48699111818123
Ag 9.017825250907611 7.271254017195978 8.196748503322294
Ag 8.95710441879282 9.99810490622707 7.914463232612642
