9
Energy = -15.3697924 eV
Ag 11.011178947966666 10.53716286007808 7.398208033989729
Ag 10.753594622975868 8.615994560145513 9.44532116284646
Ag 11.158014548951337 11.180778303857213 10.141728519330018
Ag 9.210839281157128 9.79734893072832 11.521383023819709
Ag 8.995878272518343 8.6332148933492 7.16102616944986
Ag 9.700283353309649 6.2829345115442665 8.62605269971252
Ag 8.563990333403044 10.706005859335084 8.920593423960955
Ag 7.917604406290085 8.087099411611511 9.68950159457272
Ag 6.5054129807255245 10.047329276752292 10.93198081673526
