9
Energy = -15.43924141 eV
Ag 9.49894646107611 10.600792505804234 7.924917844941146
Ag 9.32863514547779 8.40601254405975 6.015825434974776
Ag 7.074768093421124 9.396725712729502 7.553272553630428
Ag 10.744994696797185 8.130161487280253 8.341230209032155
Ag 7.496293355912267 10.96003004644954 9.93825197793447
Ag 8.216800099558062 6.854737665841435 7.97057765023092
Ag 9.743798073403562 9.526012707062284 10.535766409128689
Ag 9.543250639790546 6.729585816658223 10.438649424178063
Ag 7.213873791502163 8.257301871053073 10.14286885288765
