10
Energy = -62.70623609 eV
Fe 6.296247417459281 8.28283241133451 6.124822194338014
Fe 5.289215253511694 7.56284155919513 8.09768995062698
Fe 7.489921909430877 7.105538806753749 4.704736207182909
Fe 7.144185125398121 9.445356401992688 7.800102449912132
Fe 5.4742938447800755 6.118200795124744 6.202840419494201
Fe 9.026242553122577 6.033498329929676 8.142271172656464
Fe 7.519091940443892 7.507800606659573 8.785970279941203
Fe 7.760100713841473 5.666113550554912 6.362540452966847
Fe 8.708759800313572 7.950624197549999 6.653448447716918
Fe 6.45885719138586 5.494109090592566 8.29249417485162
