15
Energy = -94.12541146 eV
Fe 13.276114636211634 10.633150929939855 10.23483201680308
Fe 15.364222967308287 10.317012719987794 11.361877986943721
Fe 9.410230787604736 9.477413916601721 10.651091600635217
Fe 10.90264512128085 11.151205716863618 9.638468852646092
Fe 11.503696980331748 10.01020213493025 11.785349523885365
Fe 14.547287418907517 12.492860642042784 11.113624965003464
Fe 12.674230031678485 12.861796947744628 9.694506140790912
Fe 10.479054918703708 13.453399877533903 10.463108283972744
Fe 9.300778749675677 10.4178805446662 12.896861739786027
Fe 7.372669224374389 10.002291355271579 11.560588554843129
Fe 8.705927845215902 11.80969145967334 10.655458040730464
Fe 12.292437910130506 13.011401605499353 12.046981011416898
Fe 13.54324801591922 11.02430073248776 12.716097462375233
Fe 11.347839028935491 11.474580985013844 13.733374014545475
Fe 9.73587561585981 12.751956270766412 12.60173501383963
