18
Energy = -115.93291751 eV
Fe 8.396978510763216 10.311691153329521 10.099146805785804
Fe 9.322952939052904 12.126200505845421 11.580203533917988
Fe 9.015268151896374 12.66644312757189 9.272104014834346
Fe 8.597492727490462 8.03342073597415 11.470829916459602
Fe 14.180868553850557 9.659740729830379 9.274285490936872
Fe 11.764553713819597 11.620195701828115 11.711830567010338
Fe 11.110750203735869 13.303924841147229 10.19368073063551
Fe 7.901789356109643 8.159354000027216 9.259601508848547
Fe 12.230022514492498 9.396813673520835 10.68728309150362
Fe 12.203550674006344 10.007871904622872 8.235264880250007
Fe 10.188987490038958 9.799978538988778 11.90529191783143
Fe 13.103652091965097 11.62643354590053 9.526758291574831
Fe 7.956477234864684 10.248537332038202 12.49792567074828
Fe 11.245773316636267 12.451826674394665 8.077201917192614
Fe 6.568621998413018 9.135294054829531 10.948311475884864
Fe 10.248974302014826 8.55406071746493 9.621508069808108
Fe 11.03794039951391 7.6166858301811065 11.643651767899781
Fe 10.605558275650392 10.961739386819971 9.675332803192216
