13
Energy = -84.54130441 eV
Fe 10.456873545519041 10.21218745030453 9.065316858021902
Fe 9.546370608499569 9.596599081559994 11.243579354559976
Fe 11.099340922781055 10.147512547715948 13.012148165787021
Fe 11.422883319757059 12.413251668733832 8.84576568525946
Fe 8.812583313001578 9.65460583418208 13.436931577003719
Fe 11.885939450001615 10.784802826330493 7.254868147533893
Fe 11.92036716049623 9.195119201938814 10.785667058548727
Fe 11.3685547330767 11.554646344630402 11.119004479892057
Fe 9.48517090080436 11.870962488663245 12.741136235698804
Fe 12.282980007397622 8.852205785364735 8.403461196205223
Fe 7.62954242190726 10.81494695617601 11.798796895788415
Fe 9.228539871975002 11.92427658282527 10.322146816558497
Fe 13.06912157394604 10.819212321033516 9.468690213437085
