18
Energy = -119.09577889 eV
Fe 12.541201222830887 10.421803139270647 9.102085427079
Fe 12.475904912581257 8.136393327632119 9.706935148060461
Fe 12.19815186186119 9.981771019815671 11.395121931651298
Fe 10.859391439057054 11.696754686260379 10.365327274467404
Fe 11.197682931021548 8.679591037254426 7.78546874111789
Fe 10.393911936173861 10.960913424735365 8.217485840348209
Fe 10.49224582693141 9.249411329469236 10.136628021043355
Fe 10.159906311907623 7.111843129453692 9.314374370858788
Fe 9.506478673257766 10.230106843986745 12.028857697064009
Fe 9.375518199239249 7.123015656016591 7.033332051504566
Fe 8.661299098013435 10.861339039510327 10.031462039804016
Fe 8.865246349284408 9.010722202102132 8.256692993186721
Fe 7.1262604540162915 10.270655155071477 11.56501177453545
Fe 8.378216410654682 8.33656408130931 10.725216976591899
Fe 7.7705327416830245 10.964100757015231 7.725010149406794
Fe 7.785607919529628 7.067843349584376 8.94667412643557
Fe 6.72456029204521 9.321158613060973 9.187171813536022
Fe 6.544234864137229 11.632364652676243 9.533495067534435
