10
Energy = -60.93564892 eV
Fe 7.956956022049249 9.55830351741717 14.569524671827134
Fe 9.187647515506836 10.457593104877327 12.693343454168245
Fe 9.947835329932849 11.57403789687397 10.704058739940946
Fe 9.853193402875032 9.120891245586668 10.813167358973107
Fe 11.467729901419695 10.368686373610267 12.059216261465334
Fe 12.024694681516054 9.446354190195448 9.87059787305341
Fe 12.331293902620494 11.855610214700206 10.187758772832321
Fe 10.192801696729779 10.202770932969809 8.598106506722324
Fe 10.788037275891986 12.55660616340638 8.568198083753233
Fe 12.361268789741011 10.96889969868601 8.00261275698681
