11
Energy = -70.84680741 eV
Fe 10.704318673208657 9.4208710052441 9.34456952712756
Fe 6.696088902661498 8.20740696673833 7.368375187807107
Fe 7.063178850737318 10.552759993485502 7.991748656413975
Fe 7.8418291775440885 6.930811535970255 9.109247451502412
Fe 8.706606203730054 6.961768995204095 6.900923337735831
Fe 10.213683557125337 7.123383430760443 8.936603643194342
Fe 10.65273871758556 8.347226983423226 7.076873532595333
Fe 8.92485124688201 8.511669442694487 10.56558335048166
Fe 8.580369732337632 10.674584156427871 9.873512574584662
Fe 6.707830585517828 9.03383792277891 9.638801481698595
Fe 8.75696120672916 9.084136129449037 8.042218110917807
