19
Energy = -124.91138764 eV
Fe 8.33047373081078 12.703685719411864 11.085567086426465
Fe 11.450480996197205 9.31818392430804 11.18808847438522
Fe 7.397634165905561 8.818227926406978 11.286181027110274
Fe 12.664501950918604 9.890412455950932 8.981878136910312
Fe 10.336776387358992 9.981427503302854 9.150091866319496
Fe 6.841096366834132 11.118098935417608 10.594051288398452
Fe 7.354772347349632 7.404766919736218 9.086166316566858
Fe 7.881589523760159 9.718960188473849 9.051018037717219
Fe 8.881487537248974 11.895886847559177 8.967881309760568
Fe 7.183559323059763 8.694166968492192 7.1335617300641605
Fe 9.399260164039472 7.982310271597967 7.803337467370047
Fe 11.596273076944932 7.795708163213122 9.093735188707736
Fe 11.154034622820598 11.479440389995958 7.639220829907296
Fe 9.383751311499044 8.023167794976285 10.243739649773529
Fe 9.635574234185357 8.574292766992365 12.534342113212864
Fe 11.143717553805988 7.001649452500998 11.349961453253306
Fe 11.435681213205678 9.19919426740597 7.021635887710479
Fe 9.146186331920262 10.25438125589958 6.984464114758842
Fe 9.16117261245877 10.524061698681004 11.183101471970366
