10
Energy = -63.92166266 eV
Fe 7.576635583226773 10.692837599739 7.894906546662414
Fe 8.176748285366621 10.0559126002035 10.028759862018887
Fe 10.238248190581059 8.741997309819606 9.948285660188427
Fe 6.487104037127296 8.74783317785433 8.744606983534
Fe 8.685344469287502 8.715429652985437 7.811262636281493
Fe 9.934630563601157 10.630311522363117 8.54851708088695
Fe 7.479884001477877 6.8201708263141505 7.85710999846838
Fe 9.692961042530024 6.706736714898449 8.620822506851464
Fe 10.946807411348507 8.54579055608884 7.761000630377191
Fe 8.11028141545343 7.671625039733572 10.113373094731038
