14
Energy = -90.77103329 eV
Fe 11.056217396159584 13.127201671681664 8.13839179086915
Fe 11.51536102449013 11.493965828484853 11.742557642147252
Fe 12.12948508710914 11.073263568074875 8.292094935591496
Fe 8.38731741034919 9.375780129404125 12.906075075858357
Fe 10.334205113884785 13.303709963015255 10.776784579124689
Fe 9.92587898447719 11.581394286819277 9.341924226780378
Fe 8.684083139630797 9.37719872012265 10.187556799428322
Fe 11.027147454436943 9.596423636349783 9.932083211739974
Fe 9.972021538937703 8.250703265891524 11.742184072172465
Fe 12.439264674031445 12.904177938691651 9.914533091405618
Fe 9.211686382410097 11.055264452637457 11.632812269396943
Fe 13.214537802023179 10.717311119209084 10.368625913149158
Fe 12.174389324876975 9.087918826091824 11.877483032546218
Fe 10.57739826443261 9.956975566751153 13.412738696583874
