13
Energy = -83.47869817 eV
Fe 8.724706748502497 7.3163621160398025 6.047717485186297
Fe 6.836992914789858 5.815689186545363 5.624594030777197
Fe 6.6804005034238205 8.011715623919414 4.854753038384552
Fe 7.944799133963418 9.457816116496874 6.365608314460396
Fe 8.01717899345749 5.832575810911666 7.8733002386737505
Fe 4.8399143125067345 7.06460938328383 6.064737666002286
Fe 6.590978449401777 7.810461460663971 7.28226745801268
Fe 8.876006046748106 8.19142670483575 8.321460894701218
Fe 5.693041354836495 5.596742850556213 7.719904019425159
Fe 6.986850836453355 9.60782653088192 8.74132236922152
Fe 6.57077621320977 7.1145401729488205 9.53774291427309
Fe 8.78198366876242 6.559542669918391 10.03156893859619
Fe 7.894816577341316 8.625682860123245 10.629291044025308
