19
Energy = -126.52374274 eV
Fe 8.838543865242606 12.269461582098725 8.23938863660654
Fe 7.452589403062691 10.279933409820348 8.314430970303553
Fe 10.907548370849119 13.141494572358914 12.547459738918073
Fe 12.043427263525711 8.946363561426782 11.663826064359052
Fe 9.675625182316102 9.125176523690506 11.744427639128244
Fe 9.014897074419599 11.777394460332168 12.363675553658291
Fe 10.616144171705361 7.778655595684149 7.938730589051274
Fe 11.090868953718124 11.156729363871687 11.419099562024096
Fe 10.703055118790532 7.214264673251513 10.392866408954715
Fe 8.377679022868406 8.361226817896986 7.186032556556991
Fe 11.074554978208987 9.48247378197084 9.539862023936857
Fe 12.968849891065247 10.664276598046818 10.19076840538756
Fe 9.657148115840483 13.166072577775221 10.572851250311746
Fe 8.712826817903709 8.656811197355122 9.53661641714326
Fe 8.591905541898097 6.998016521205098 11.22323126361628
Fe 9.82336554271863 10.209446586376288 7.645224634080187
Fe 8.885109120578196 6.478519313062359 8.81586429475475
Fe 11.104904642053441 11.89714349328448 9.059869146359711
Fe 8.97810310115164 10.913685548408258 10.122921022765642
