18
Energy = -118.2299049 eV
Fe 10.720594470104997 9.366137002177041 10.541349736903575
Fe 11.320827329993273 9.995121519927292 12.893561638210446
Fe 12.016159490831159 11.623231940997014 11.13980050430489
Fe 11.653208023985714 8.459088691950308 7.5150960339597015
Fe 10.883343298412578 12.355685542083096 13.179095357131057
Fe 9.884640923828133 9.998081937703581 7.830642841605874
Fe 9.618794133544123 8.08384580876246 9.079585450370036
Fe 8.579166587038703 13.057358581031103 12.567137331461785
Fe 9.547092342916027 11.04653435064411 11.721617052689721
Fe 10.843908622178176 6.388056114327952 8.20014434871106
Fe 10.327394504013675 13.443348574756419 11.058885828258868
Fe 8.18808541030673 12.55773421305767 10.16690288658968
Fe 12.127870781871039 7.702888927336958 9.66541210053613
Fe 12.30010399830016 10.221266290979381 8.954822842915018
Fe 10.341780428444823 11.66960513900811 9.391906841143395
Fe 12.952232182097772 9.49225845203498 11.248191259461514
Fe 7.268676471125458 11.1848071789797 11.810787200101739
Fe 8.405995405274263 10.153500893942551 9.758236549501031
