18
Energy = -118.7385543 eV
Fe 8.342112229763757 10.62900233209744 7.684856664282124
Fe 6.394328773589486 11.153029225833574 8.773270620561778
Fe 11.596309026875202 6.489306177018726 10.842484243144112
Fe 8.299756847608192 11.263103286151182 10.325524161894286
Fe 11.041604029892838 8.718704929215164 11.444705332979478
Fe 9.90688823741692 9.77099636694493 9.338091742014003
Fe 12.227136515681401 10.381924234861645 9.77218419128168
Fe 10.5140554672579 11.154117389219554 11.357962068479734
Fe 8.789212187547147 9.396346586602393 11.592659762990642
Fe 9.422242173838102 7.50360120159574 10.084425428132654
Fe 9.246146818061248 8.130800628088336 7.886342622973075
Fe 11.514784064999475 8.088221786127901 9.01436213951475
Fe 12.607895104559981 10.290968524059755 12.150717474338405
Fe 7.53016933612786 9.154038322888264 9.363364609462579
Fe 10.43556098910636 11.99581526474879 9.009115969874191
Fe 9.405935730857427 13.1985412249779 10.6416198406456
Fe 8.038713135763684 12.739893994672064 8.542313189366597
Fe 13.209076831847717 8.463516025691206 10.697927438858873
