15
Energy = -97.49697728 eV
Fe 12.601372383639061 8.160304353679184 7.371435528420514
Fe 12.482877480883719 10.626332658364795 10.49308973829441
Fe 11.517042296854605 9.156444307554356 8.91327690312893
Fe 11.309946187164858 11.47098131789531 8.54286570096113
Fe 10.933474808776202 8.440342302029977 11.186051230947589
Fe 10.4743235395036 7.308592834110267 8.733272338330801
Fe 10.997900578442197 12.59628283582798 10.765253186256011
Fe 10.91720446001706 10.865893372423546 12.478999665093758
Fe 9.232026965487508 9.663579896629274 8.335733560820215
Fe 8.897440525410111 9.530431076310064 12.29471258478704
Fe 9.050754084113622 12.253215946774244 9.346319264007015
Fe 8.763884707214007 11.866614662204505 11.779157124140491
Fe 8.781981250844044 8.252718935799813 10.205124228248707
Fe 10.06868745288415 10.381040754055233 10.344140857410618
Fe 7.664110798862529 10.454820842232749 10.149519054363996
