15
Energy = -96.45017117 eV
Fe 10.054408028084987 8.385232131566612 6.365378721244167
Fe 8.01298208550811 7.994146795065955 5.025524102830184
Fe 9.721497730300616 6.478227759517122 5.028840119501821
Fe 7.94273691792292 8.907613877009549 7.247078373935367
Fe 7.852127769476735 5.757662065383393 6.170360459370629
Fe 10.052545856408072 6.371380383173743 7.408363397113058
Fe 6.179600218588788 7.358190057495924 6.393378763764682
Fe 5.754352187444437 9.13635641350494 8.075955023481445
Fe 5.685305580716444 7.018972558186759 8.808336697243483
Fe 7.854882693617248 6.8475760755791795 8.134890169037966
Fe 9.373506686951247 8.339798025051657 8.79791822958161
Fe 7.6091674803826574 10.315479444409041 9.15820970930884
Fe 7.5032605606511655 7.144163272496423 10.408716549519177
Fe 6.1361326011932285 9.033080066474497 10.394434588299992
Fe 8.549184479469304 9.193811951801598 10.864305972483976
