16
Energy = -103.36829002 eV
Fe 10.903922599044995 12.181711383844291 8.444833849132836
Fe 11.297346923579656 9.798453766065412 7.998889617025507
Fe 9.114958052466555 10.602554662598054 8.381774824484785
Fe 9.081166551755684 12.60085509790782 9.858725036863735
Fe 9.017567428207402 8.221803533947105 7.743419380156018
Fe 10.844163104695047 10.916147651539736 10.342052984584292
Fe 11.295962496678499 7.422525805006714 8.335894025925622
Fe 12.309006332583685 8.880306741376902 9.903354632115573
Fe 7.059319258696681 9.386721857221676 8.531985258321596
Fe 7.013158582406925 6.907132161303381 8.398905936664347
Fe 10.056549206155005 8.694478876649878 10.015718016598239
Fe 9.542324971860847 11.84677712812385 12.018307415184797
Fe 8.110966840209354 10.506718335733721 10.500958801855205
Fe 7.759162694838027 8.149667863156315 10.298964732052276
Fe 9.297683314113517 6.5759076633249816 9.367138646737796
Fe 9.531908967771054 9.54340479726297 12.094244167360042
