12
Energy = -75.8206613 eV
Fe 8.379182418579642 10.4075082867104 7.18517949603969
Fe 8.475569694716112 8.230801944423863 7.726097185242184
Fe 9.61006013187192 7.590514059209018 9.585892476250821
Fe 10.692648492201494 9.12738226762972 7.73765075793842
Fe 10.401544626750006 11.427876574818475 7.412113921617252
Fe 9.250186764663077 10.167397411344878 9.229970848537432
Fe 11.380395196887049 11.157007951090806 9.447463793990552
Fe 11.432211864632057 9.002269638457413 10.085504602878352
Fe 7.791084955060709 8.89870910266187 10.258316754744557
Fe 9.835238276818627 8.388920800679745 11.809594315983553
Fe 9.752968570019888 10.614983017510093 11.355375835481132
Fe 7.916909060705498 9.517638010635784 12.382013231928397
