13
Energy = -79.85286091 eV
Fe 7.7371627488839945 8.306796782149283 6.6453046592034655
Fe 8.101973551599155 8.334994115366323 8.991284547552764
Fe 8.47220247432136 8.32523256612143 11.507462866927535
Fe 10.002937198953758 8.298246445613891 7.519626213323558
Fe 10.333526945881559 8.32049163816423 9.994977450429092
Fe 10.667650296332404 8.31368277954933 12.37975316361434
Fe 7.721963287828783 10.532683130316252 6.655122562599278
Fe 8.089348629247281 10.507469254112124 8.996336570461015
Fe 8.4590412674016 10.506744019264755 11.511236166890777
Fe 9.984666268194044 10.565925784241909 7.522795646515855
Fe 10.317568295480909 10.54126544392066 9.995445774777949
Fe 10.649865327241297 10.537778605053713 12.384441122004656
Fe 11.997194691769094 9.443790402397235 8.431314289428855
