10
Energy = -63.04314606 eV
Fe 7.79774661029833 7.827971544962608 5.239003910464618
Fe 6.229841887890012 9.07111370519791 6.371652146513318
Fe 8.568823725025952 7.3067279877276174 7.259369110422022
Fe 6.2717276369439565 6.803187070084209 6.928216758193152
Fe 8.441472512682314 9.608874496358588 6.747510497294294
Fe 6.78054346732956 8.548666981854335 8.591339577221392
Fe 9.644865398667061 6.574352211271194 9.062514536264759
Fe 7.360712098606851 5.953507228509891 8.805406161716776
Fe 9.15581528182005 8.968006138786679 8.880650351092674
Fe 7.977315251797358 7.566456506308403 10.343200821878563
