13
Energy = -82.33047406 eV
Fe 12.448903970207942 9.875926053941857 10.02186306054958
Fe 12.48643980149313 8.558024927222755 8.333443501622751
Fe 10.947626783847294 10.26614405212052 8.336210855591945
Fe 10.017054922846718 10.538248422920407 10.55093305917786
Fe 10.586128931993473 8.370277877581508 9.819809652572788
Fe 10.040307009619719 8.17181271350749 7.529571179618385
Fe 8.628659990343445 9.784897497235017 8.735411399504535
Fe 8.544152518293219 7.2556440413606875 9.14150889301729
Fe 8.54818409690499 8.81418733352761 11.08683186649286
Fe 7.279067981086273 10.720636155385035 10.434531336381847
Fe 7.3360809777220295 8.30550926555932 7.441610999818397
Fe 6.28465315714171 10.294221971043731 8.447886781299394
Fe 6.679290041426605 8.53678991885345 9.734628321402365
