17
Energy = -109.65043477 eV
Fe 14.073501071533318 9.148022820220447 11.243585348862153
Fe 12.85538326579883 10.674680057615321 12.5500618662331
Fe 9.485517014929727 12.377033822576921 9.370224803184934
Fe 7.37834789367182 11.936388952930422 10.079795727953837
Fe 10.234246430610265 8.70824011706583 8.674374075400879
Fe 9.774587502057365 10.227663603601782 10.322914549670639
Fe 7.784492226357576 9.986363750760992 11.436131764982257
Fe 10.48301832353851 10.187085124399399 12.574636853539515
Fe 12.760579374482356 9.067086913172286 8.704226326509804
Fe 13.457334809013775 11.004391228012006 10.085583028693492
Fe 8.369091519492903 8.194977088798703 10.005636017116252
Fe 9.098747845328974 12.169485010767195 11.595186056344021
Fe 11.444722349959179 10.830624359587437 8.639103737027337
Fe 6.460969250138031 9.506663523094968 9.630490615627938
Fe 11.52516885118497 11.851221997057216 11.014375190409973
Fe 8.297427428185312 10.225356336516935 8.52101060913159
Fe 11.840256093237793 9.228106543343142 10.876054678833718
