10
Energy = -63.07520584 eV
Fe 7.305594878312074 8.75052017364982 5.810015424565456
Fe 8.313489977005595 6.660137299555007 6.10530245731954
Fe 7.006852083893602 7.766566925170887 7.781818771044394
Fe 10.05507822050353 6.863441568982942 7.577029069814394
Fe 9.253800926553799 8.929319825974178 6.930925307528906
Fe 8.151758154376399 5.965627107442395 8.50761495078806
Fe 7.719326508996756 9.849110671990735 8.547973545622199
Fe 9.18209327789405 8.212439229429858 9.306229482303221
Fe 5.591825531087887 8.999297245710858 8.98589129683741
Fe 7.094300893022988 7.677660403740135 10.121320145823235
