13
Energy = -82.38070378 eV
Fe 9.866139118212715 14.418230250465177 8.226104859233704
Fe 10.444836486573367 12.688940251020007 9.605434711879699
Fe 11.867370546622505 10.778478952469731 8.934755343373856
Fe 10.18374296360513 12.146341870005342 12.19572425037076
Fe 9.57307904591118 10.437847243564224 8.47078646907895
Fe 12.208508581675828 11.769719508441664 11.069440756501738
Fe 10.138020492499257 10.559999039232235 10.631057741077145
Fe 8.608345620880035 8.791649846556785 10.233569488944935
Fe 10.713718818986239 8.529385210999052 9.192350335068191
Fe 12.315660008204071 9.310741988200128 10.837774563922409
Fe 8.97011163472928 9.85894413768639 12.544452807116043
Fe 11.298125831298048 10.207219839903756 12.853222060810882
Fe 10.354546872033492 8.22527215579354 11.65141872905864
