14
Energy = -91.92916141 eV
Fe 13.773859811164646 11.133368599843765 9.090685966208449
Fe 12.06545065706706 9.610143781165103 9.334520199114365
Fe 9.337543395343785 12.559466202311809 10.192355473779873
Fe 11.139781428828034 10.872534921671987 13.144124764277633
Fe 12.979490809401884 11.102545891255271 11.230120733778929
Fe 11.343325908339391 12.83460166846093 11.611574404953004
Fe 9.017053493234155 11.83962018904592 12.490456201262944
Fe 8.174046613216472 10.484722963177912 10.700736576541393
Fe 9.341700528843251 9.396925801416906 12.575126586379081
Fe 10.03285046976961 10.669475286309764 8.684993374772752
Fe 10.574564955234946 10.754578787597136 10.927804822098153
Fe 11.74448735882668 12.251497153223722 9.290208461152442
Fe 9.735365838496236 8.722770328553613 10.308864324662908
Fe 11.867329553723152 8.98010903117259 11.634493547147382
