12
Energy = -76.42076486 eV
Fe 9.453892812750034 8.717948195402261 6.023936126800008
Fe 11.444657678196961 8.218322996945215 6.916538704182451
Fe 9.617296424706357 6.878041205043289 7.449017384060972
Fe 7.879299328853716 10.954683448647822 8.840884294860043
Fe 10.127314905020686 10.04301977557723 7.883689414498869
Fe 8.02494737795418 8.749478788155798 7.97865709592382
Fe 8.575562800195744 7.441693995451124 9.784637604423478
Fe 6.7610319271797 9.165581555877827 10.027734792621539
Fe 10.744393198689657 7.99709938520356 9.182044336075338
Fe 7.641635467136551 10.9899625321689 11.205251005234896
Fe 9.398565074413497 9.798422640041924 10.181590362492319
Fe 8.205665989277593 8.74568199726406 11.809395844310927
