16
Energy = -102.98747658 eV
Fe 11.713656705311827 8.227869195498183 12.047571930396877
Fe 11.112520018335976 10.630861435774417 8.948427915567798
Fe 10.421948895005075 12.83238058088265 8.71271834840962
Fe 8.329590058137578 10.328587118957836 7.611991820730532
Fe 8.318995372311253 12.608276220835263 7.954888119646814
Fe 7.5407344547014015 7.80283366973333 10.195363508121304
Fe 8.226095650460426 9.663284256484031 11.721560833246127
Fe 9.486302616396316 7.043467720495212 8.8902355164287
Fe 9.59754486035041 7.640852068671396 11.27874418374083
Fe 10.57999665145752 10.086859782437237 11.245230701718349
Fe 11.35757691694122 8.257992176913278 9.613076580425876
Fe 10.294259670434126 8.906364275274008 7.451517258149416
Fe 10.258805611300835 11.373783675780524 6.8432218020041375
Fe 8.964991539113955 11.500261988400988 9.952075549027088
Fe 9.91420082357667 9.034345964430498 13.230220142387434
Fe 9.077166607960939 9.25636632122611 9.497542241794205
