11
Energy = -67.416773 eV
Fe 6.589386917045058 13.108672367294844 11.037378845239772
Fe 8.828874607102321 12.23162682138991 10.555275790209995
Fe 10.652885436584404 11.601958779949875 12.056295537194712
Fe 9.503943583061343 10.535252206515812 8.923069522230657
Fe 10.274963117366232 8.51025351669775 9.87948199200729
Fe 11.82847903490354 10.162351359060517 8.737913716540442
Fe 11.105506371961557 9.282192387555725 12.138041091662458
Fe 11.12720379447511 12.1992297204939 9.713036131578502
Fe 12.663436234878851 10.93883684752558 11.004981654911616
Fe 12.606911150531296 8.625701908924059 10.394824474842368
Fe 8.98913059720036 9.914402814515965 11.287666930367925
