15
Energy = -97.39863739 eV
Fe 9.042843776428349 9.53517088252542 7.559611423387088
Fe 11.291300850013828 9.050225879017548 7.732818466842019
Fe 9.543001324797741 7.461328585472002 8.41763890197143
Fe 10.01987732509311 11.317483679851883 8.807440735097535
Fe 7.722539819280558 10.886687700976958 9.225276252447554
Fe 7.624374688197824 8.565485378347931 9.22539385542832
Fe 12.275575226837757 10.68483786347566 9.160391571447931
Fe 9.005713583392646 12.261003686793611 10.91597027268383
Fe 11.337213906190032 12.318284241306484 10.682426429587498
Fe 10.695486548331875 9.187349250654679 9.86567316921184
Fe 8.78757332382832 10.02482753006518 10.983964997009519
Fe 9.053087828863287 7.661262314816979 10.778204974246261
Fe 12.296113914610334 10.39211248742674 11.528724964021333
Fe 10.325529977120958 11.278016174888016 12.550899653476197
Fe 10.545038435889369 8.941194873256652 12.130834862017634
