16
Energy = -104.58500598 eV
Fe 10.351905529947825 7.891728019924525 8.764465437366335
Fe 12.278815884019425 12.076230349470716 10.104740001222808
Fe 7.809377182069426 10.26219718152063 10.171570051303592
Fe 9.53506820086957 10.179294857620105 8.347967046989574
Fe 11.552425114042586 9.4693581910064 7.1983132703027985
Fe 7.900899906773312 8.430745196200888 8.470878115636703
Fe 9.491168373904127 8.393701108910374 6.730807699042401
Fe 9.867733530787206 9.163254768025746 10.759430849918102
Fe 9.126394993231472 10.865590570910422 12.18899714641957
Fe 11.898699935489526 9.809437782894735 9.5110788539661
Fe 7.796266246685864 8.845607188615592 12.195287265319486
Fe 11.222525886115891 11.710049470597138 8.007170202048812
Fe 6.345382580795802 8.454045330808388 10.360541893365713
Fe 8.348232599564707 7.348937153553291 10.535706012384761
Fe 9.98636728386432 11.674473004567998 10.145244325980014
Fe 11.54524839630492 10.559344210432222 11.759594438588271
