19
Energy = -124.41645014 eV
Fe 8.312575200054212 12.472340310511948 8.978260993813631
Fe 6.410112004076467 9.451628138527328 10.932953026581231
Fe 9.019011264462293 9.682383423730398 11.866628972868638
Fe 6.200560593242236 11.192765288816227 9.302107015273966
Fe 12.479309411729611 7.3514607780126555 11.4070418038586
Fe 8.354929531593656 7.877388872860259 10.54153653623939
Fe 9.838259976265947 10.88879086205371 8.049177478023495
Fe 8.794471955983466 8.605343340268831 8.13022024001765
Fe 11.930746945213578 9.460272518825201 11.575064179683011
Fe 10.605124158689032 7.182867394143363 9.6390605193817
Fe 12.078740016877534 10.753831699026847 9.13131199668267
Fe 10.751066068868335 12.892674436021416 8.675577019218808
Fe 11.023137379891072 8.857554643713563 7.63679279478582
Fe 10.35915743693526 9.379768322694694 9.957577805474772
Fe 12.649884937673377 8.557099426482146 9.384041070464114
Fe 7.588263983629054 10.665791521490993 7.447398832445213
Fe 10.216069483613996 7.690362914310964 11.92961811962421
Fe 10.072742879593239 11.673246196263758 10.456682199017258
Fe 8.143800621286502 10.192393761924434 9.786913246224282
