16
Energy = -103.92141472 eV
Fe 12.262718409536502 10.79061224402594 10.874707931782066
Fe 11.812787313745297 8.833895877240286 9.305350821117962
Fe 8.829753806347554 9.177616910472894 12.315370476436394
Fe 10.530192635815396 10.977504203278068 12.595779438652288
Fe 9.64853635474165 7.601789147374274 10.001319470147832
Fe 10.119604675518495 9.787058460561372 10.629234538331826
Fe 11.27076161529673 11.119229472632767 8.817730028204439
Fe 10.600323217255692 7.112892874601083 7.769812511971215
Fe 8.244068840540821 11.24276338665943 11.484860458865505
Fe 9.72453042395479 9.29687129106546 8.233289623677873
Fe 8.73920002729866 11.264812642141242 9.098911184403915
Fe 7.826800305586206 9.204459891499592 10.020105428164147
Fe 8.050389243478588 7.410821217289218 8.227701416641208
Fe 10.267529986929704 12.295208694583813 10.739216665173082
Fe 8.885243107691657 8.410711082167714 6.3330331560380255
Fe 7.359546353276449 9.645738921421042 7.725563167406961
