11
Energy = -69.21086616 eV
Fe 8.14769080849187 9.589514750200484 7.1162792095175424
Fe 10.186719122701641 8.99796641333072 7.6393850576435485
Fe 8.833294622023573 10.064264987482963 9.293860198769812
Fe 11.316371385326365 10.597236333329684 9.018057512503933
Fe 9.681317668335398 12.140840323458322 9.674254500205029
Fe 10.575503962974217 8.311447053533092 9.910688374985543
Fe 12.220700270059645 9.60044773539434 10.91101705624383
Fe 8.807790198971816 10.990047866571421 11.614708040981517
Fe 8.56166046800968 8.63927945387444 11.054426405767373
Fe 11.104231287778678 11.560678970879053 11.33594192042078
Fe 10.366992119008998 9.310548025627106 12.233653636642735
