14
Energy = -91.22676241 eV
Fe 8.803457098022282 11.208448951796038 7.405187997393444
Fe 6.909069607305258 9.49619492646938 6.844405394304181
Fe 9.100434724441 9.064989618103331 6.471729622699937
Fe 9.696582868382862 9.266020475115752 8.807277890426219
Fe 7.119011805629398 10.670228696830211 8.807598955762233
Fe 9.36015650469837 11.365696416252224 9.709627084852558
Fe 10.059204622459061 7.163569065346019 7.691318597675296
Fe 10.40946303091351 9.321685674639884 11.012610367497095
Fe 7.773426902287118 7.099681147702765 6.88291090249786
Fe 10.818956807441616 7.256080255401198 9.921262807590194
Fe 8.132821118929627 9.723558266875473 10.79118703565702
Fe 7.615213453931161 8.216049873960172 8.82893112343604
Fe 8.79466628258363 7.409288216733836 10.906206227381292
Fe 8.663979754966855 6.040101382505829 9.070146583036507
