11
Energy = -69.46706761 eV
Fe 8.608082739880802 11.138323383130194 12.516980459805225
Fe 11.880993131380034 8.793599704107717 8.617718898628308
Fe 10.165968873892647 10.226573946549417 8.026590408747714
Fe 10.59566270297896 11.974671517487947 11.716161729136632
Fe 10.432890379117351 12.213254287266524 9.238136959205864
Fe 10.510532071776911 11.058127186400242 13.83202130451468
Fe 10.065358117467433 9.315241267318878 12.044966202201977
Fe 9.069241669460444 10.542290163600326 10.251716866810296
Fe 12.134940638823945 10.161746969125655 12.511098423568061
Fe 11.457432691248833 10.29145359311728 10.269350375137266
Fe 12.298150913375437 11.05189022108714 8.180648588808115
