12
Energy = -76.24458304 eV
Fe 8.845994865911022 7.685097404615683 9.677384278388422
Fe 10.902471422324247 10.433586657386416 11.146799862553374
Fe 7.436055157283247 8.857453751745856 8.261931719597593
Fe 9.544807664975437 7.651253947209425 7.447186162748912
Fe 9.177595523804733 10.207712919415044 7.443129457786265
Fe 10.785115383882275 9.16225827925767 8.733490644345096
Fe 10.573172196046269 11.459723783803936 9.095245226514889
Fe 8.1408578918423 8.664252527588955 6.045095103610956
Fe 10.783866434319426 8.177633720659943 10.806479136356105
Fe 8.839840381698712 10.192839460751804 9.894221820809735
Fe 7.128884674208331 8.90299591904953 10.682349833303132
Fe 9.086133668203027 9.146125583870184 11.983173642146133
