16
Energy = -103.22251511 eV
Fe 8.482038843393811 11.561268661319543 12.497382050132309
Fe 7.483220580906777 7.84313956762747 8.857125250515374
Fe 9.49556948080393 8.170404661070533 10.063478456896883
Fe 9.916174847943184 11.604671426671107 10.789162528161684
Fe 8.034750496452071 10.092360038588462 9.80058969702337
Fe 10.721474473645761 10.806979887934762 12.924816006547077
Fe 10.242360141605802 10.470826343115904 8.92430416324488
Fe 12.565830320604515 10.658658954303236 9.407516372953262
Fe 11.452378455842066 8.439040035785549 8.676437108939869
Fe 12.16393337181082 11.92766188101281 11.294229364676406
Fe 8.972221360657363 9.417325462607945 11.967142165027518
Fe 11.378541515801144 9.447309144116184 11.010030330110984
Fe 11.228211567350266 12.58857054183418 9.189431247174618
Fe 9.222274231013198 8.951786674434345 7.47880551124426
Fe 7.0962143574514025 9.710685735905095 7.6512882419390005
Fe 9.660323762801237 6.879062946176186 8.186111109198517
