14
Energy = -89.22851183 eV
Fe 9.266403665235192 7.482363426423302 9.097539819173841
Fe 9.651098219335708 13.688695684174528 10.775007005469664
Fe 11.329457134376234 11.893693373608702 11.109858510957853
Fe 13.579754856439187 10.769695152849385 10.494412587698037
Fe 9.767721906485146 11.920477217585496 9.057715566064687
Fe 9.38786219875311 9.878195927780334 10.230486288773102
Fe 11.458540413200902 8.064429624343516 9.212140259702663
Fe 11.732809320804382 10.506617938329905 9.067874176430493
Fe 9.895463883349572 10.259347600623894 12.514662685146215
Fe 9.910653783262005 9.539499530945646 7.957277135124131
Fe 9.712323275401438 12.67456193909677 12.86667388719001
Fe 11.761643027829837 9.424341176190296 11.185351580425559
Fe 8.31810774042606 11.872081530579026 11.235035625247855
Fe 10.01608386365959 7.874721677945931 11.308129613069617
