19
Energy = -127.91254842 eV
Fe 9.921367846826653 9.472544498398374 6.279918869795126
Fe 8.933415484976148 11.437692982217444 7.343962352485657
Fe 11.342516020913935 11.250220298617021 7.70222278823634
Fe 7.7970273255669 9.1695565520608 7.496604127587979
Fe 11.868521668805817 8.690441293496468 7.885625045742954
Fe 9.748690707871212 7.4933180320507615 7.679997892897212
Fe 7.7595182312591024 10.649645782518984 9.412474903832612
Fe 10.000646132295493 11.951041781893752 9.681989726044746
Fe 9.952356860304658 9.68948410836305 8.614567398268585
Fe 8.29255303509651 8.112532321914761 9.624216372453926
Fe 9.664600979115315 9.814064102434623 10.816462485142887
Fe 12.008353911322365 10.210214812718169 9.918233467472444
Fe 10.861712735700351 7.822198929185591 10.011195994334694
Fe 7.35124401724357 9.41819410220074 11.535033535467678
Fe 8.403621699857071 11.657182070707885 11.623206376907055
Fe 10.962225136482921 11.343874338902337 11.975293365332249
Fe 9.226666610601452 7.737814560768069 11.92012775738326
Fe 11.449851711216366 8.987061830472628 12.126440021669925
Fe 9.223221874253234 9.86102959078729 13.120539508653241
