13
Energy = -83.80660534 eV
Fe 8.516698395500121 11.20117089403702 8.042151893595625
Fe 10.919958468148375 10.862016179790897 8.740099458998289
Fe 7.029926988140787 9.517714783869689 7.472340968278816
Fe 12.901309707814477 10.187005633842777 9.589914502093185
Fe 9.360397901074599 8.993023691818948 7.628366480395782
Fe 6.743404372175617 10.546324984660576 9.500897177438599
Fe 11.289157937250163 9.026007603022416 10.739666239837259
Fe 9.140311621824361 9.88922183205728 10.01026237380792
Fe 7.5299921590609165 8.03552648366942 9.271848412170257
Fe 7.153644321160267 9.154514097361586 11.266404013731783
Fe 11.69501823461951 8.607382038717114 8.412641202558872
Fe 9.840319064772114 7.376020844014158 9.327605470064976
Fe 9.122424490374057 7.987425587755372 11.40564894971406
