10
Energy = -63.33822713 eV
Fe 11.734932065328795 9.03646375311425 10.085662858582149
Fe 11.253496402801204 10.848359639863085 8.634160426481785
Fe 10.612810297589666 8.70385974961672 8.129254861623803
Fe 9.858182729716583 10.331358214489159 10.363919295593647
Fe 9.42354235095161 8.029739523680316 10.35064734416432
Fe 7.619890259146109 9.855700114986984 9.908825891157694
Fe 8.875461513041538 10.274891174376897 7.963173458465085
Fe 8.514702082722254 7.709998979641178 8.213372700528335
Fe 6.673906899226678 9.045502192306973 7.976559176328265
Fe 6.945175237131364 7.6762266579246985 9.88652398707482
