15
Energy = -93.15085261 eV
Fe 12.27729977144862 7.062867575851845 7.279614180277939
Fe 9.687022482064718 8.345619328232884 10.546212959997098
Fe 10.50674205446984 11.73204217667549 12.415725779067394
Fe 11.440832825619555 9.03846783774692 8.353521725269966
Fe 8.688236695023395 10.076905478093831 12.118510549266583
Fe 11.216484787536906 10.11950979660997 10.469283699049617
Fe 12.72904590613984 12.972486616744472 11.897622401365798
Fe 9.231249214682098 9.689540888379307 8.497301986854605
Fe 12.804089404779562 10.710240785094122 12.1887344736205
Fe 10.804877734829374 9.343244425317486 12.644953452026993
Fe 12.990049230335796 11.690168693196862 9.959210994700845
Fe 10.854230811680285 11.424019131963085 8.462804351009654
Fe 7.627516416230214 9.311510060744231 10.17797330989634
Fe 10.962151592186697 12.947590970943903 10.326581431403564
Fe 9.037747722853128 11.506553435091059 10.226537219423648
