18
Energy = -117.02795156 eV
Fe 9.220628365455005 10.365258698107853 11.32880948506219
Fe 11.399844270526247 11.308108072581327 8.112136329619501
Fe 9.0867972983065 12.254736357035235 8.000473392908757
Fe 10.998513694603105 8.929988255250446 7.889690798361102
Fe 8.987651703119441 10.478129799061263 13.581151056776056
Fe 10.457169298310344 8.217747389582689 10.219425057530467
Fe 13.020903935110047 9.564136770831118 8.85364515183082
Fe 9.189663975273874 10.041666549047479 8.96083030464172
Fe 12.585341150993353 8.807427136290062 11.420602390308247
Fe 10.717594997825909 12.62617673435771 6.352106547214079
Fe 8.01244049246286 8.495254466976442 12.98158683043859
Fe 7.07769120871534 10.342997060470537 12.014265717259335
Fe 10.288707967690518 8.530248977328613 12.515783300416002
Fe 9.765448453595724 10.532584752969438 6.529006862318296
Fe 8.11887077034399 8.42226984017296 10.628221672610426
Fe 11.428315441343534 10.245129491905958 10.196348045091979
Fe 10.199985859290315 12.170946639671426 10.112151112058827
Fe 11.46680290709672 10.689564798422275 12.326137735616282
