12
Energy = -76.16065546 eV
Fe 8.8190220087511 9.547730186554372 8.06924564349667
Fe 11.132439464289268 12.196152633278825 13.708363526529649
Fe 11.935932484109005 11.644155528604347 10.376870228103297
Fe 12.690904959153913 13.032797368889739 12.203668647178898
Fe 11.028100140372988 10.037199362863374 8.480992584544929
Fe 9.129085004848326 9.091478834884576 10.294063002911443
Fe 11.417065009569273 9.358507316702058 10.676871034647043
Fe 10.315577356224164 7.863851222641962 8.75466414743507
Fe 12.462925350599077 10.831996005646646 12.533566270350411
Fe 9.66333498119986 11.331103092138816 9.86462562131403
Fe 10.119432691819968 10.715356130239819 12.09457069466467
Fe 10.511071245123757 12.992732498059206 11.712884962681688
