13
Energy = -84.77108783 eV
Fe 11.956646319247747 8.505604480828952 10.402848303385133
Fe 10.836864442860701 10.575718651879072 10.36040075353897
Fe 12.284772323936867 11.530015436710913 12.161939227098653
Fe 8.968962479606068 10.227172026016534 8.992469735116849
Fe 8.972829679269008 9.377847985757034 11.254345233898087
Fe 12.25453147693683 12.441309853888571 9.930370886073673
Fe 11.086876736145587 9.124324955668625 12.452927155815992
Fe 10.378927192134524 12.98386567767927 11.265585603776719
Fe 9.914117096147399 11.171156180267781 12.668625124068024
Fe 9.890750811978254 12.432958169151256 9.055998354198248
Fe 8.392350549705787 11.643317134700856 10.763606806143644
Fe 13.392440929397788 9.438261554732776 12.053439783643716
Fe 13.366719458589913 10.35826573622712 9.995515938546722
