13
Energy = -82.19539364 eV
Fe 10.230848787786677 10.831674795575948 8.184777051693024
Fe 10.728673618827411 8.718191027234829 7.553612712552338
Fe 9.114934647788806 12.775951902906638 9.13820145248088
Fe 8.134116685546772 10.617406673998596 9.675782066167448
Fe 8.43480146707977 9.214320697334696 7.666265750749159
Fe 11.99804846900868 9.734744946155956 9.55870315100053
Fe 10.312233962438738 11.263271521798387 10.615831036050942
Fe 9.973243951360658 8.516128156089042 9.748660996577604
Fe 12.522466055580766 10.937629486589966 11.68922629437786
Fe 7.634022910010422 8.405915365207406 9.745072226476116
Fe 11.374010803578038 8.923406702572041 11.79090813785717
Fe 8.970798104259845 9.429607211678269 11.697261688459976
Fe 10.63823307522185 10.743863064573276 13.025975522021412
