19
Energy = -125.41268674 eV
Fe 12.77852079269748 10.821976576486001 11.281078111762623
Fe 10.988579327443745 9.479102828023244 6.70382761582038
Fe 10.969949010935144 11.711575286906426 12.761302784656005
Fe 11.193706226006924 9.234364538506476 12.095118296470721
Fe 10.778762734432302 8.210058854246403 9.853586463925215
Fe 9.154255219975564 10.21628634114329 12.930299612902532
Fe 10.504280058306597 11.09165617622999 10.633639143946384
Fe 6.823480412681124 10.345847237616582 10.919122911142425
Fe 11.997000351606868 7.76865560220547 7.830985524120037
Fe 8.281975854362571 11.478622174446356 9.239099770404547
Fe 8.484891040978246 11.944168488776052 11.573293956913119
Fe 9.683912216254873 7.812332431040383 7.644569486995651
Fe 12.97376857528782 8.571127595962935 10.766563550235045
Fe 8.193540494215243 10.019412189275071 7.101738812982895
Fe 8.86707468135583 9.335491011047598 10.820697324822733
Fe 9.811706440948843 9.901089530660911 8.629292660425712
Fe 12.02843859658071 9.927858677746553 9.005786396431498
Fe 6.267666564244184 10.647773212453066 8.584383409716223
Fe 7.509571169300934 8.773681014841632 8.916693933940552
