19
Energy = -125.68707124 eV
Fe 10.6748351551163 5.741622692189741 10.234380363353214
Fe 13.0769813874611 11.440123749626126 8.737236843675136
Fe 11.270878699122553 10.165167897346995 8.856659360593678
Fe 9.003323499435867 7.236758651934332 9.880763053767025
Fe 7.730590296657441 10.570535901736422 11.46424972980539
Fe 7.678949006362441 12.67556498548539 10.463987805309689
Fe 12.556695408019454 9.356987464236672 10.515807189493115
Fe 7.267897387257096 10.986340850155093 8.89956540664379
Fe 10.726627754699702 11.510320425384009 7.238856602801261
Fe 11.002909808120698 7.596590393138212 11.553369433023374
Fe 7.293732768984577 8.902112664334194 9.936987359649885
Fe 9.148067650562941 9.279389683455532 8.436723025935635
Fe 11.296048571645064 12.958274834651494 8.962157530018084
Fe 11.201327695705622 7.797223591585937 9.202211842054016
Fe 9.43500104425426 11.590761505590454 9.402895635629758
Fe 11.688683438081002 11.616701256061923 10.780855198925298
Fe 9.553338049678045 11.95661329787508 11.737106330589176
Fe 9.966318781624421 9.566612982883004 10.849608784553624
Fe 8.53080011985686 8.155303694974702 11.949585026823602
