17
Energy = -112.4963935 eV
Fe 10.154895518727 6.44514351790411 9.512257151264741
Fe 11.123654116906806 10.453986199866089 8.083721497523683
Fe 9.372068492928678 8.542056889981765 8.351254425753167
Fe 11.358642479128216 8.522405667109755 9.74505601590737
Fe 8.921230556934736 6.49972861041477 7.548529593746043
Fe 8.635146029051837 10.84774172215921 8.10634309970821
Fe 12.18170959271191 10.984653180758984 10.202919896448527
Fe 10.4149140165101 12.518282118944144 9.06020954975028
Fe 7.75999775631348 7.124970966530428 9.46987897168365
Fe 11.959331783753901 13.215466022754006 10.562509974956653
Fe 9.829153904786454 10.275368569029176 10.00937724818629
Fe 8.351576915406602 12.072611065415414 10.238093664867344
Fe 10.982625163516056 9.75786941071535 11.937289194023442
Fe 7.502983010556781 9.512356206603322 9.78622123967129
Fe 9.257037988186191 8.053579763579972 11.00926391932314
Fe 10.325157411189316 12.065595779015124 11.665049992828342
Fe 8.479026237526089 10.253783653024474 11.876079546180787
