19
Energy = -126.1092615 eV
Fe 10.909226562423777 6.468936363867811 7.821035356947121
Fe 11.458131211004751 9.97899595042538 9.627598707629659
Fe 9.194509722526718 9.76945960484034 9.45938011411026
Fe 9.10873586093521 12.153128806265011 9.510387593556201
Fe 10.37735468150344 11.406302885482388 11.1651511785963
Fe 10.595066257441635 7.616167600128492 9.82513103448234
Fe 6.970727440677671 11.348891970992032 8.759393586114477
Fe 8.821287112247045 7.59884293722296 7.94478693192982
Fe 9.548851755720724 6.899516375244023 11.957762502644874
Fe 7.039874704768782 9.08594655270576 9.196865787024242
Fe 9.914306770044393 9.134744581676504 11.602479990747275
Fe 8.244180099346124 7.116097516082503 10.127177230732741
Fe 8.4019197232824 12.219273946071246 7.209640776906992
Fe 7.671240562419776 8.558068950084857 11.823274131735925
Fe 8.347704507228782 9.967739927304976 7.245931677308578
Fe 10.672186281909612 8.799336952058129 7.429920543848702
Fe 10.476786270659963 11.17452290793542 7.893231946097043
Fe 7.965332180199724 10.833810082483922 11.106673074151997
Fe 12.524097390858783 8.11173518432729 8.53569693063397
