14
Energy = -90.65337314 eV
Fe 9.691200927261463 10.049796810539553 5.889539837997313
Fe 9.397171209438433 9.94855966371331 8.219211448907062
Fe 7.701641215071831 9.153826709320668 6.669741707679104
Fe 6.997462170033208 9.86926919599702 8.940129120114886
Fe 10.044744648881494 8.002784630986218 6.924064517390106
Fe 8.636996116500859 11.436133446332969 9.868988696950117
Fe 6.014007944676743 7.910187167936974 8.084287728318477
Fe 10.744257005425677 10.398221063710851 10.08563948281693
Fe 6.750975142679018 7.894382993510403 10.384330063745718
Fe 8.755567631870301 9.157665481463532 10.576334504535673
Fe 8.226495318063646 7.6413311107976725 8.49871885206275
Fe 9.821688225147028 6.032458913224431 8.490574300004383
Fe 10.634171349740738 8.071579972357592 9.335194343741428
Fe 8.97351766744584 6.790129988155609 10.620655572602265
