19
Energy = -128.71590687 eV
Fe 11.996259727644471 10.629467767631674 8.918942656182878
Fe 10.30310066852829 11.018743014139753 7.2251685925592595
Fe 11.40122645014709 8.809573705722572 7.13866468716654
Fe 10.981094234119778 9.766012185232455 11.083409009063672
Fe 11.908233382683786 8.128808270137174 9.447958171622101
Fe 8.911783775221666 9.016718087039846 6.800869379659874
Fe 9.936689963338027 11.703054373467769 9.763440724204695
Fe 8.030623573590896 10.91028616751741 8.374731620286797
Fe 9.993010789520497 9.482073329779967 8.958363866741529
Fe 6.293629171168328 9.949686912275885 9.788592881758413
Fe 8.48785852869802 10.073373786941941 10.832627534615375
Fe 6.543856331617527 9.200223441509545 7.281755524375612
Fe 7.99217481422947 8.475418712754678 9.021371603167895
Fe 9.703768095371121 7.707528655937876 10.645013873290425
Fe 7.671298690546963 6.912028093445649 7.242805313540503
Fe 9.946351670607877 7.111420819600132 8.207400037140939
Fe 7.297629837968182 7.88105875663216 11.13972015897921
Fe 5.886806601544701 7.650534701868959 9.026173642430525
Fe 7.996529989973031 6.141897039819865 9.503786459855872
