12
Energy = -71.36715917 eV
Fe 10.325838056582803 11.103567715351911 11.888696193366815
Fe 12.786893398751511 10.908696900822955 11.326126825638267
Fe 11.307799967754018 13.095560217447364 15.596822355326648
Fe 10.120188057838709 11.277067997440422 7.9553497542718326
Fe 11.273460428701284 13.257730783616378 11.412594643254248
Fe 12.17892187890226 11.825507151961867 13.447668606148618
Fe 14.400547197835596 10.00854883201826 13.087053908415555
Fe 9.270618265431894 10.131413975560761 9.919680862800345
Fe 11.073617499510227 8.959243239622172 11.41072979281734
Fe 11.8151639959577 12.364353666394473 9.217777853954084
Fe 9.676743473224686 12.339933063595794 9.985021051824251
Fe 11.688293802833401 9.92858579002019 9.475175088406097
