18
Energy = -120.01711702 eV
Fe 10.225057293969488 10.555983456177193 7.3157594709986205
Fe 11.704924622123572 10.90515861941148 9.270663717265464
Fe 11.523427779790797 8.590602135034798 8.89960346401793
Fe 9.87916019858003 12.37732733526967 9.04932081196457
Fe 10.346265059474488 6.334542101990568 8.593173449020423
Fe 8.016055915728284 11.459999413099139 7.963753462651675
Fe 9.983621625315863 8.160980061995012 7.192565197184475
Fe 7.818360457038223 9.113669084689308 7.614147633280552
Fe 9.391395819047677 9.837546407298875 9.339552532168645
Fe 10.2294035083053 11.422516464558198 11.250607167075653
Fe 8.113269616412795 6.721079962780717 7.975316491835818
Fe 9.8019057732823 7.705735919221309 10.548935273181788
Fe 6.746967164996289 10.11396740196656 9.557503087389751
Fe 8.01814209339236 11.784595803328921 10.462766237414392
Fe 11.259340403859824 9.434607894607076 11.173255292656616
Fe 8.567126639255994 5.792115557883032 10.033138312723286
Fe 7.504145137287028 7.933890593126406 9.906831196328747
Fe 8.533811333628574 9.62384779163901 11.492243941664938
