17
Energy = -111.55668887 eV
Fe 9.325578307175245 8.930275048040508 7.408396214245571
Fe 10.816536490986145 10.521254348667737 8.29519983778521
Fe 8.58088687843843 11.19568053601696 7.75622528637623
Fe 11.469351618891928 8.111459346287532 8.259039700015004
Fe 7.44357086056419 9.367871104125802 8.856012172746286
Fe 9.866421496969394 12.699395296146928 9.02032661514086
Fe 9.40428141923265 8.259695132062191 9.665507594430448
Fe 12.76390828958837 9.681410635282285 9.422119232724585
Fe 11.47341873999659 11.416404002308646 10.465184338281755
Fe 9.05691447048139 10.722483450400146 10.105350891619558
Fe 11.569122230822886 7.772686162866932 10.578038476528464
Fe 9.704960214370987 12.687712696424544 11.385931592801198
Fe 7.634369531710886 9.129746308885023 11.184582350221945
Fe 12.528056704997425 9.564463488258957 11.758434364296686
Fe 10.06303689697574 9.161206480394114 11.829215369127152
Fe 10.959959068830214 11.13567761966711 12.751864993806818
Fe 8.569670748898693 10.872622313095482 12.488614938782895
