11
Energy = -68.65077325 eV
Fe 8.279686294064827 9.341734651833512 10.743370887722103
Fe 8.274268263463552 9.33629542460435 8.211832870463416
Fe 7.329706252767099 11.204560084836055 9.475055386271073
Fe 10.063380577658815 8.244539552430737 9.49148519584785
Fe 9.750787527941641 10.815133782436547 9.483245326319496
Fe 6.2148048090831525 9.093459704678898 9.479051641218616
Fe 7.79710717923569 7.30523482571378 9.485003739921002
Fe 10.968863638254941 9.663065062332894 11.199002423915744
Fe 10.963954818586839 9.655201487287693 7.763753987111745
Fe 12.473383645967564 8.69314427471984 9.49336174773006
Fe 12.196562046652762 10.960136149125965 9.487341847155648
