19
Energy = -126.21777337 eV
Fe 10.927122179404398 6.900221401241679 11.424991382339662
Fe 9.758449061787267 12.531787243900292 8.816514158634844
Fe 11.407119564248148 9.296318720860404 11.994164408105355
Fe 8.97999855087142 6.7845444026697574 10.026414094610287
Fe 11.8602828381127 10.598268075264338 9.801859772197835
Fe 7.799555176552856 9.655974586892427 7.497348304998688
Fe 9.840069404835212 10.285779442246621 8.289490122418796
Fe 11.338196161947897 12.856535026345878 10.438893844653512
Fe 7.814251437187224 11.36647009774579 9.321814630768925
Fe 11.404474142531594 11.604890006730306 12.32904385351736
Fe 9.361695283179065 10.72584928631256 12.923609564341149
Fe 11.51798399265034 8.878683677692631 7.757486136797388
Fe 9.639862527528557 10.617073478982908 10.68594646899369
Fe 10.659806427916472 8.45405033482398 9.803675134702994
Fe 9.199214230808588 12.755263374953005 11.303855722383616
Fe 9.329056482144692 7.826754478465235 7.822633043568704
Fe 9.176590500746176 8.416715379164424 11.935830460176021
Fe 9.9347529021969 9.52431564288652 6.087434757147027
Fe 8.070425395977153 8.939411603448333 9.757900400271224
