11
Energy = -69.96836148 eV
Fe 11.553754423019544 10.159299318163827 9.927779348443613
Fe 11.223435248816855 8.741785378589979 8.239496325038887
Fe 9.625101075324116 10.752799660094297 8.833765930993994
Fe 9.810307979934967 8.5970600160951 10.139259388121289
Fe 9.499240310804442 6.984995326723912 8.35909680266453
Fe 9.156092572408184 9.163706536302218 7.270187878482183
Fe 7.846226671297359 7.1319053829861545 9.968810691461334
Fe 7.368990740967318 7.582004979304328 7.552030004360233
Fe 7.736438054900682 9.634316841414051 9.76980135904164
Fe 6.980852492854788 9.924232583599865 7.6789869349223485
Fe 5.958547857558489 8.190020001622658 9.170012816910253
