19
Energy = -126.70958376 eV
Fe 10.100541911205655 9.833191994583085 6.676367304112782
Fe 7.175480765595204 6.864251646506787 7.148908961968899
Fe 7.8075878665466725 9.22633663484725 7.153242215795822
Fe 9.5198482137466 7.58360697658359 7.364264350474719
Fe 5.847893361406515 8.289757929238581 8.364384868053627
Fe 8.84592235105893 11.481963997547712 7.8242542468056095
Fe 11.630652903980918 8.820867642384446 8.139361966541705
Fe 11.062010469792414 11.10901385065235 8.64806433021221
Fe 8.484576915465704 5.746973632279667 8.695030759879462
Fe 6.9597399698244065 10.348042890612147 8.92504949791769
Fe 9.44873634173473 9.476207372353915 9.262532458458281
Fe 10.450722320945365 7.002831656429643 9.34449727677655
Fe 7.795064531767399 7.790583254783892 9.443526217495567
Fe 11.035157130632461 11.355797441462053 10.920995039542145
Fe 8.78227154888737 11.614004089914205 10.238800876197887
Fe 11.451242013010779 9.042407674793063 10.540723358616404
Fe 7.564182990355902 9.629096912885155 11.029425041812924
Fe 9.427076338464884 7.8058510575590585 11.255261459659096
Fe 9.608168501435992 9.976089790441304 12.022186215537358
