10
Energy = -63.18636204 eV
Fe 8.65482939146041 6.18198307545685 9.046977244860715
Fe 9.87413528566363 8.380630763553317 9.196850769234253
Fe 8.629823822668293 7.812485896416168 7.239178597882499
Fe 10.386397923356176 9.527173705237105 7.1357904831090035
Fe 6.782841980645804 6.0267165855623706 10.255080013552655
Fe 6.581711457538592 6.611039963742235 8.006302316643948
Fe 7.427457442433602 8.26911415310792 9.469689537009314
Fe 8.452786517406487 9.916158019664392 5.9758438545344035
Fe 6.579829632402246 9.019426224482391 7.26418717503186
Fe 8.462323487119509 10.093199325502981 8.284927288482738
