14
Energy = -92.31479211 eV
Fe 8.751889619930433 9.127809750345524 8.959714823555133
Fe 8.144376919686936 9.826771349047224 11.093737610793285
Fe 9.948406190123235 9.371579898661041 12.619414532412266
Fe 11.510050120988549 9.239203444431485 8.864968340364655
Fe 10.407498374793605 10.414987784189034 10.381400855451606
Fe 12.039808437004721 8.896926516692373 11.310659612495472
Fe 9.98024314409361 10.651668758051786 7.782276423377333
Fe 8.91933049637919 11.804421121683614 9.516783186378616
Fe 9.200572603636074 11.6948986385991 12.04275435809073
Fe 11.565031324741838 11.977114773807187 8.763192208969508
Fe 10.96216101996237 12.736923810924763 10.882684672597247
Fe 11.586928058075356 11.062834924257217 12.50383279775155
Fe 12.801719397140635 10.94262929792656 10.434229718669318
Fe 9.955893324940606 8.026137931383241 10.618259374841578
