15
Energy = -98.86917935 eV
Fe 9.14980849744843 13.458970982564072 12.247699456682392
Fe 10.399981285972627 9.82061192612901 12.991628671184271
Fe 11.001270060539085 12.202076434610214 12.894868552393687
Fe 8.973181572525796 11.150858667325135 11.590335301896669
Fe 12.825014106724755 10.429306911930082 12.685256262032562
Fe 11.297297523880665 14.299607430583112 11.755829246498955
Fe 9.753991850130252 8.871855591848865 10.787551483689967
Fe 12.02303006012807 8.522416333222294 11.505336787921449
Fe 10.292268107109592 12.85189687389479 10.251536365438495
Fe 13.491235537395374 10.23665976044195 10.41972466703239
Fe 9.65686707946375 10.640556882352646 9.22048312762635
Fe 11.677761428590088 9.193668726348992 9.22321220040829
Fe 12.74986301843682 12.516409085217722 11.078384298400161
Fe 11.206854272824536 10.77572511920431 11.003343180697406
Fe 11.981890549453713 11.634670945276763 8.944953735650962
