19
Energy = -126.59622286 eV
Fe 12.471514554547207 12.072413109522229 9.9224413240745
Fe 10.493293561203304 11.611137487686294 8.500699785240746
Fe 10.347780313313612 13.264789749891902 10.16297043464873
Fe 11.935202851908727 9.748172318835694 9.440109185240683
Fe 10.428018656977583 11.10606511552245 11.16936824318814
Fe 10.45470847978445 9.356560558414525 7.385629857127278
Fe 7.203563400307567 9.55345565569281 9.66261192727679
Fe 10.645408922583268 7.592124466027403 9.192003987132633
Fe 8.39092807412488 10.665104954096254 7.659611235905113
Fe 12.651927595345397 10.332893165334257 11.615740275241459
Fe 6.792989904083678 7.191286222319163 9.433372624296872
Fe 8.823415865749377 6.0533984328671195 8.978229170596396
Fe 9.535518898338227 9.614417913566147 9.568059627603269
Fe 8.424064086110825 8.139043154236695 7.991845353169772
Fe 11.818307919438933 12.60557458735789 12.074322660158389
Fe 10.755626752995504 8.690827343077292 11.507302809361354
Fe 8.633752130030588 7.630382737061113 10.735690405996667
Fe 8.401355662657464 11.716215983191304 9.927140348902835
Fe 8.507747154703182 9.837836894118658 11.759488275793101
