11
Energy = -70.04090906 eV
Fe 8.318429652070934 10.761269888250713 8.960368151371332
Fe 6.41821324478808 9.299196126893102 8.697342411870038
Fe 10.381347439961289 9.482378234861486 9.152952140955371
Fe 7.228100067021145 7.066443126405048 8.708853059458605
Fe 9.621693983239616 7.169329097750215 8.989834488495964
Fe 8.413281419520667 8.751720110400893 7.587051434215094
Fe 8.115679662259105 8.660799356715737 10.187843348910018
Fe 9.404516753780602 10.405407957966107 11.078065223348709
Fe 10.232119157305595 8.181513786010603 11.092435118531544
Fe 9.861162087119075 10.53842651064191 7.120218940666765
Fe 10.675964366154654 8.31364166901601 7.139407569312571
