13
Energy = -83.64543752 eV
Fe 12.021735433316609 8.47516914019427 7.704907067023653
Fe 9.791267464411396 10.298179923832631 10.727811623254539
Fe 12.171322978937015 11.68680531398482 10.323773000468012
Fe 10.245900287711189 12.500924169204842 11.396990282894725
Fe 11.681636427142283 10.302135718435103 12.27254595402858
Fe 9.73776025061508 11.097032940251253 13.24071823564858
Fe 9.999836793762487 9.32037343777228 8.365498351542135
Fe 10.26085327705528 13.220714044854262 13.937895009906743
Fe 12.328701398103936 10.713646686347618 7.970114650700529
Fe 10.34322290604241 11.591373048915784 8.842020105957525
Fe 12.13650973139607 12.501266560998502 12.831427518675866
Fe 11.481085185201632 11.371639392567568 14.744693187773972
Fe 11.839454149093736 9.329116277132945 9.84188900067162
