12
Energy = -75.47619276 eV
Fe 12.897996003857335 10.927763567114294 14.538701430989482
Fe 13.135325492188096 11.720947277180269 16.639156451833834
Fe 13.350809729590463 11.586994004746506 10.919219579603107
Fe 13.733626866283357 14.564562671904358 13.44099959125313
Fe 12.828844066717815 13.047086971316153 9.235481802224184
Fe 11.15493154809008 13.067004970375706 10.767631309513218
Fe 13.397859418215807 13.861456695796436 11.302187022164492
Fe 11.925715985040899 13.067243259614983 14.560209441415005
Fe 14.101442472916858 13.150936633991854 15.333022890448031
Fe 14.167594702430351 12.292368201651385 13.176280526825769
Fe 11.551322642847213 14.392619764992226 12.705844317285727
Fe 11.789894944880857 11.856315924265438 12.576149662328831
