15
Energy = -96.3492232 eV
Fe 11.004860205887256 11.198251999565631 9.063893863769069
Fe 8.597365374040722 10.586913528520848 8.69569178964609
Fe 10.468859095355615 10.072293884513615 12.958748400790117
Fe 6.387042369282169 9.62301641030462 8.639910012857076
Fe 7.607788495735653 9.435580073597423 10.618884571005994
Fe 9.454568688674717 10.836644876580047 11.050825937636684
Fe 8.438669045805735 8.053905957757188 8.87030372837687
Fe 12.957529829430626 9.51229204279112 9.387579190558158
Fe 9.67874094861576 8.241790410063253 11.268931381586942
Fe 11.489305760606275 9.769733846998315 11.062801584590842
Fe 10.641797416216953 8.898523894344832 9.114957600801464
Fe 7.601293732664425 9.047479456748269 6.926556196564577
Fe 8.419098560462809 9.375580416575584 12.862804253579887
Fe 12.159801759068003 10.03815652554008 7.403262399342916
Fe 9.889973339407975 9.525479270885159 7.047085867090575
