18
Energy = -118.60931695 eV
Fe 12.007133789736088 8.609211384805093 9.90059265986637
Fe 8.163672749480337 9.556085809060445 9.87994087230668
Fe 11.332215990926239 8.564375873388501 12.313409822803205
Fe 8.558871859545988 11.504858593367874 11.348614684556216
Fe 11.367353985629496 10.479664260646995 6.906177940303738
Fe 9.866522766261804 7.757840347351093 10.711400450180347
Fe 9.350484903360483 11.377667239069151 9.142936913337214
Fe 8.363739704517588 7.434507206895788 8.859267581011073
Fe 10.531883989615674 10.246474678833758 10.909318118401645
Fe 10.846029365264295 12.636679178604012 10.105558948684205
Fe 8.921537887706064 9.236530913841829 12.44909241930517
Fe 7.556054416556495 7.6456714227882365 11.200122986396682
Fe 9.142535805131988 10.956698887274683 6.98010293701581
Fe 6.819692901026878 9.934331038836406 11.701470514478949
Fe 10.180346807799234 9.242349880531469 8.560751373176073
Fe 10.645911124215683 7.0160624436461125 8.564141413104272
Fe 12.069721407549713 11.019846679446971 9.078183672737486
Fe 10.746269584652122 12.608082822801618 7.623714313168427
