11
Energy = -69.2945583 eV
Fe 9.517250099017707 11.054765406529745 8.026673466480652
Fe 7.348737456669675 8.1386003994513 7.5932084373595155
Fe 6.3491073465122705 7.748824444450209 9.612940039601954
Fe 8.753411224514169 6.51552606773348 6.834484715609266
Fe 7.655938709865038 5.981918568552403 8.839487673004403
Fe 7.73424860369959 9.799903447653888 9.300662146422255
Fe 9.903447795875215 7.248302961130278 8.608029417676427
Fe 9.549471418182682 8.973380623655638 6.997320446174294
Fe 7.593274428073012 10.345078362281557 6.994563552076682
Fe 8.43205182215283 7.569447196974623 10.424680228562552
Fe 9.96242477445043 9.413499422338047 9.545042195958441
