12
Energy = -74.421331 eV
Fe 12.765337646215963 8.908133372556074 12.272084765464736
Fe 10.426450544790084 8.625389540123944 12.266078512014445
Fe 12.570826567147899 9.08832538563239 9.923535131545963
Fe 10.187953040910617 8.499932627865917 9.79898981137732
Fe 9.84011217611187 12.376386246220813 10.25348891639422
Fe 11.882884666484262 7.156399832475705 11.120480489161588
Fe 10.927340627550047 10.60614242554853 8.912920170143295
Fe 11.32308816279344 10.709531194475034 11.273939025103589
Fe 8.568144409715563 9.923272709855189 8.621839368849955
Fe 9.12200945988283 12.142469533161998 8.012327512610879
Fe 7.605279161732448 11.812796451076228 9.690063199372466
Fe 9.004323338737631 10.185089921309814 11.032990106352592
