16
Energy = -102.86781063 eV
Fe 12.32383029097398 10.578167613503581 10.992790228114888
Fe 12.049995888709962 9.328167440063364 8.888430096514876
Fe 10.382307501944965 10.237462150580555 12.522652119149262
Fe 11.292329946445314 11.591593078754718 9.023985077899322
Fe 10.186650941617774 12.058699988363543 11.07534515227211
Fe 13.671217066800878 11.13753667655271 9.483725493856486
Fe 10.068174599499327 9.604966524995996 10.204921433611123
Fe 10.25522876193518 7.935513054302557 8.238532877310886
Fe 6.966935804842468 7.528478807815753 8.617802302629881
Fe 8.616898699068255 8.73290742657707 12.09694199762146
Fe 10.396953802447035 10.251019892223473 7.448981419765139
Fe 8.840372208344872 7.581544518998243 10.022293938293773
Fe 8.229724730407838 11.044445920777383 11.754351360010302
Fe 8.81925185630816 11.432887782913722 9.187622635461043
Fe 8.389222343603564 9.348651114854192 8.110807174534331
Fe 7.36846896659104 9.465521418264451 10.18838010249615
