14
Energy = -90.35379557 eV
Fe 10.681952308542932 8.404938306323091 8.722536827887708
Fe 9.766125540631156 10.329498994376815 7.808217610654638
Fe 8.40478620384136 8.77038407922835 9.159968305289798
Fe 11.722225232179712 10.754851044832895 8.972486108681585
Fe 7.751915040324529 7.6479290733338265 11.035893482437118
Fe 12.159872447903572 8.994251430754444 10.412291164119733
Fe 10.025119735715515 7.867391879543292 10.916207482799349
Fe 8.442840927345538 9.770390314443564 11.496130517766701
Fe 12.368194239736663 11.062826714012811 11.405946200494125
Fe 8.191574338681045 11.138854562715082 9.610810485719503
Fe 10.65032864737026 9.767487722096549 12.28051815440477
Fe 9.868522458327366 12.4540588261211 8.689366800230639
Fe 9.982641910740307 11.704193265724848 11.068878869871083
Fe 11.724279300941967 12.781602087160318 10.012818789577686
