12
Energy = -76.78036181 eV
Fe 9.254655660092943 9.019650046261965 13.20275266368447
Fe 12.103809416352 12.213295967989472 9.59598774950319
Fe 11.015556711252566 10.151632683326731 10.082685000661561
Fe 9.936073832288495 12.54473585997935 10.1930532718828
Fe 11.266157365013049 9.374497895422772 12.288061059119467
Fe 9.245850809685654 10.907364769012252 11.853179337398693
Fe 9.856208486916952 9.024856476031497 8.566557840225567
Fe 11.440469476288692 11.785965365551496 12.0310028830759
Fe 10.271088383665916 11.424263260919565 8.217305205224092
Fe 9.403943417692378 8.616401504004424 10.902398570061681
Fe 8.494166950701178 10.513281106789325 9.631305007873545
Fe 13.016870293546978 10.504243861953872 10.985270935087573
