17
Energy = -112.95063168 eV
Fe 11.796403900384357 9.062194464430238 9.176417564982426
Fe 10.983408852444587 11.47916261255109 9.254094645943187
Fe 10.260881836295265 9.932597029671946 7.362625908841291
Fe 12.595321626299375 8.305491002579975 11.286951968019462
Fe 8.308295049068256 10.72868270154627 6.248806286054539
Fe 11.160336613517138 10.149090362500948 11.365270310550388
Fe 9.941517331639375 7.569512257831408 8.255667932190361
Fe 8.63431516660818 11.565310849504453 8.401219822324856
Fe 7.949088348901263 8.963188873200068 7.735966968255251
Fe 9.553097659998372 9.55858813015451 9.548334951028577
Fe 9.168374328216071 11.547724815871478 10.843655976428934
Fe 10.464721207174774 7.553096536873467 10.695257430327883
Fe 6.505131174568148 10.795936241055953 7.814484694306349
Fe 10.791321686124887 8.38204711980608 12.850412943149589
Fe 7.310407274995137 10.050699636585087 9.925212696907554
Fe 8.844203775830657 9.185131579043018 11.735602336856967
Fe 8.118973312141453 7.640165937952118 9.845596160571962
