10
Energy = -63.39359063 eV
Fe 9.679982454350652 7.70431997567927 9.08864224144308
Fe 8.751750855737718 5.626889779492662 8.154446429727859
Fe 9.993962162267088 7.082684214853326 6.837166911093328
Fe 7.559623283411766 6.94409559793008 9.670319840937834
Fe 7.736491566835055 7.440937720762981 7.244014491345525
Fe 5.781702367445885 8.15487117981532 8.531016933570447
Fe 7.704269584546774 9.275617744755309 9.122358040809251
Fe 9.338271403939363 9.286614588238459 7.391333189621899
Fe 5.7685966253557295 8.005240731919185 6.2632608001172105
Fe 6.986533187313221 9.779911957756928 6.998624612536948
