19
Energy = -128.55695303 eV
Fe 7.523379013378072 7.9296131697269985 6.485755101631788
Fe 9.46836047016541 9.427580184494188 6.484365087999368
Fe 9.793026472725995 7.196702954832745 7.294156131592742
Fe 7.161402550393442 10.14259766584288 6.944015783699702
Fe 11.583126963849141 8.701623733407112 7.63585149118544
Fe 8.887345326773168 11.198654906965311 8.068150453649327
Fe 7.6007174294298565 6.238312151142048 7.988984505447626
Fe 11.078498049898489 10.936173902258558 7.1800002370163964
Fe 6.234589994825856 8.346801939504966 8.478089877279018
Fe 8.657559386666307 8.690351038486867 8.929589938895637
Fe 6.698925531894377 10.542391931401296 9.23105903189829
Fe 10.735355931278988 10.29523628230277 9.378517788879872
Fe 9.419693840968485 6.092169408880325 9.388501096369703
Fe 10.886085706733327 7.93908879849481 9.768234861906116
Fe 7.081471033246696 6.929213319563428 10.159132744227076
Fe 8.660816484435118 11.1665931927655 10.3740077269918
Fe 9.675776895173586 9.416902177650229 11.425482047626287
Fe 9.062834850249192 7.246530074478456 11.334734788786848
Fe 7.3394246044068 9.111853704294495 10.999761841409406
