18
Energy = -119.32109329 eV
Fe 7.957110437895657 7.1789760329902705 9.12984747536234
Fe 7.25051924688057 9.324158736656427 8.187039480020447
Fe 10.733985204272892 11.004802682593343 10.970384945704174
Fe 6.950697320909316 10.838209088022968 9.774735059420316
Fe 9.216276715367329 9.403570044841263 9.641929856148424
Fe 10.547641362333302 7.5281494077594475 8.975626147030336
Fe 9.401246656316802 7.389147894701001 11.111464995879144
Fe 7.3918379541831545 8.809840515372615 10.987178108954266
Fe 9.542896564463936 9.308511140277387 12.332511409535236
Fe 8.895913634864803 7.880696074178202 7.238226410598154
Fe 9.382616423715776 10.28100356563429 7.286042789482398
Fe 8.466033381061209 11.141723753008355 11.436467919698808
Fe 7.486560366563991 11.637296959076313 7.518890277169028
Fe 9.218394077596802 11.781773794516527 9.016240496426494
Fe 11.291016280647064 8.6682450372913 7.0711436683486015
Fe 11.461631604022124 8.727073755794994 10.897666788643498
Fe 11.37993855706022 10.1497911841169 8.844454800760811
Fe 12.763970551739641 8.28531667306325 8.918435710712519
