16
Energy = -104.22101639 eV
Fe 10.764681427416502 11.840016735891657 8.694956947933184
Fe 9.593059687229205 12.160059449390165 10.851653998653584
Fe 11.440955533768404 8.897507213361587 13.601132218551598
Fe 10.463186560928637 10.748651551654051 12.641162092539762
Fe 8.708048662672295 8.523231377066724 9.6462261315058
Fe 8.46284956558401 10.958863611609592 9.065781469705287
Fe 6.571368870347738 9.41318088506152 9.751406264672617
Fe 12.04580505122821 10.880872951169307 6.980636636866975
Fe 8.354750266548352 10.153982862840312 11.40548365449514
Fe 7.934133953309398 9.191580530240723 7.627489524252586
Fe 10.529710908739714 9.880299165931346 10.234205458720883
Fe 11.948076366560263 11.75383219361143 10.940052230986161
Fe 12.589182731093315 10.242094742344214 9.089004428084136
Fe 9.955334526330128 8.40039704000756 11.935873927479275
Fe 12.38196617344158 9.460947487937709 11.612221687334285
Fe 10.261661249170666 9.597269567648791 7.8713566081894015
