14
Energy = -90.60061613 eV
Fe 14.463000845478856 11.188774056655781 11.725671828928231
Fe 10.707270668712141 11.610665757960987 11.051985995341651
Fe 9.763598284703983 12.832970248273496 12.701447236826397
Fe 12.42342912329246 10.181414189691344 12.396817108828493
Fe 12.179979384591839 12.409633964877264 12.950875631816343
Fe 11.079516210255328 11.824691264883775 8.87330839154025
Fe 8.434502105104096 11.003669251401936 11.921947460132662
Fe 10.602257181719846 9.5821101931485 9.147613795776005
Fe 8.858340294281824 10.965775313366168 9.670417901937968
Fe 10.1270270829541 9.337022918660832 11.450825667465146
Fe 14.238603099033938 13.365365614136062 12.496589558370644
Fe 12.641434471287601 10.186471366116876 10.07413693448967
Fe 12.933523432999655 12.464319958785396 10.661845064589835
Fe 10.336628156588363 10.727141271003871 13.40891262457058
