11
Energy = -67.77836941 eV
Fe 10.33368518555854 9.01201254222254 8.081031521473097
Fe 10.111013622795841 11.278944512706891 7.918246299960698
Fe 8.817807426233397 9.877813531017534 9.65859770091431
Fe 12.225682470204779 10.11256526916637 8.724712643916082
Fe 11.517452163147755 12.171284252155779 9.526176429900467
Fe 12.311366297862781 10.387636973343588 10.97544639603349
Fe 9.078045483930868 12.15981904928198 9.730932316757716
Fe 10.744805069710791 8.819680759379649 10.38371547266977
Fe 8.911509561895116 9.093785091316548 11.97940701092289
Fe 10.178519357517114 11.079104496623648 11.402364185777145
Fe 7.680565037349486 7.917805198991448 13.529821697880418
