17
Energy = -112.31117358 eV
Fe 11.627363658461062 9.495211141124882 8.225562266617274
Fe 9.766860841419627 10.914507716421802 7.554940679927636
Fe 9.659531474494317 13.095025856661572 8.47443682423634
Fe 11.711183535578954 11.851332816958704 8.63315775711539
Fe 9.00837283591231 8.863123447724703 8.759924541677064
Fe 8.160889774140854 11.40973369437383 9.294540927419757
Fe 11.004804116375723 7.611390773823768 9.610818171810978
Fe 13.158377249728547 8.550498588842226 9.810334555332444
Fe 12.370560091720339 10.630069740270727 10.685637211124867
Fe 7.543712070242795 9.511118389689605 10.684129771065054
Fe 10.41030034217473 12.41592957674314 10.638007273699674
Fe 9.384518345076906 8.094148961098094 11.366021305813865
Fe 11.71534013836735 8.5117496406147 11.720784772575028
Fe 10.152234782490115 10.153391805938293 10.150103663951093
Fe 8.332212021364192 11.558778669261352 11.673510960167425
Fe 8.25693437798577 9.516252546846506 12.92974457098046
Fe 10.394792017709754 10.475724306849058 12.446332419729002
