15
Energy = -96.85903855 eV
Fe 6.420193829552194 7.937832066695944 6.3302862215361175
Fe 5.111679923722898 9.504567262780228 7.433639078147552
Fe 10.590212503516591 7.5553047844143375 8.80430674052573
Fe 7.01526010206277 6.284735194235368 8.1166512660103
Fe 8.57444391125029 7.086671713463095 10.022798975377826
Fe 6.562477264232873 8.438801833632695 8.84567673984837
Fe 8.68568649089237 9.406719153506488 9.35249949588929
Fe 8.40619905061613 8.846736842785353 5.368705069323709
Fe 10.376791925078823 5.531907963312466 9.846687615323933
Fe 8.67685455013988 7.95408460900516 7.452392791958987
Fe 8.8951576048173 10.307603778567715 7.178129866088774
Fe 9.354701250018735 5.726977183613032 7.753231252555819
Fe 6.887753262729825 10.780787930598784 8.356939595334188
Fe 6.778404855377279 10.316133526377303 6.034564657107317
Fe 8.19329731701163 4.850249998031173 9.632604475991227
