23
Energy = -155.17109315 eV
Fe 8.392292575274556 9.842108254699266 14.8539453309783
Fe 8.179549766776592 8.633791626710652 12.91617475299676
Fe 8.501722128867815 10.214696318521888 9.365307623852049
Fe 8.646054170615367 11.188144145315183 12.9880189354803
Fe 10.124303959524374 8.555605311755409 8.733380522028167
Fe 9.397775214376455 12.07687800321686 8.200217389764262
Fe 8.200073196741306 8.172805622746356 10.423582962430814
Fe 11.208803488357647 13.128039666765384 9.910754950404707
Fe 13.085766722791416 11.461347183952283 8.602526808790248
Fe 10.371743031279252 9.713826165762377 13.680266651122357
Fe 8.917849587043948 9.910300996472566 7.186412553197801
Fe 11.676584729723263 8.184958739311114 10.5462431899197
Fe 11.13736919763431 10.471267782625464 7.234175598015138
Fe 11.436572627831563 12.802392441508644 7.597557881025087
Fe 7.299961618316747 10.138350237308845 11.375951329126114
Fe 12.420695456591302 8.778951342671254 8.34811365295776
Fe 9.839579453400924 9.498965236279535 11.3505433057626
Fe 13.013178306991163 11.980809077995186 10.957780462746573
Fe 13.592036478748064 9.737390935149751 10.13377395381307
Fe 9.133583996905022 12.042020041681273 10.667944947798457
Fe 12.255583965169999 9.864192787775162 12.045173831573704
Fe 10.935984003157088 11.798813407929092 12.132009239068848
Fe 11.141774989800707 10.713183339765644 9.65898279306683
