20
Energy = -133.95879267 eV
Fe 11.058299505874356 10.424614041290816 6.372973417320207
Fe 10.817154086155982 8.483485674611616 7.583523647348243
Fe 8.791484495769934 10.087303972800788 7.3191346253676715
Fe 12.762135200409249 9.792064061204595 8.059208129128573
Fe 8.442741161600884 11.397574535830762 9.448265525689735
Fe 10.755737214649917 10.92647899430249 8.58260433087258
Fe 6.83808993403706 11.2846374621157 7.7534418406098995
Fe 6.919286069407566 9.494417441073992 9.19513131759164
Fe 9.24195840119871 9.00157808831121 9.379395942530946
Fe 10.239995302302692 7.006048510181102 9.620167972814846
Fe 11.662577488956583 8.901100079186412 9.948768680659741
Fe 8.921065895212045 12.07290461714297 12.030234800109273
Fe 12.534007625858171 11.1337814251881 10.355141770354592
Fe 7.940695809695234 7.621532760434724 10.651681308233728
Fe 10.220435484462593 10.722164425225731 10.857581859555811
Fe 10.003218339814099 8.333086892307223 11.718864208802207
Fe 7.970016455272473 9.841357822679463 11.440432993549853
Fe 12.030074603463973 9.676873730974233 12.28096830639899
Fe 11.4070447806231 11.900911961920611 12.477016119524826
Fe 9.74758815356748 10.201689511549842 13.229069211869012
