24
Energy = -161.54500357 eV
Fe 10.61130682589873 11.69588624411341 7.57418381446007
Fe 8.585969635235601 11.875573351801867 8.733044386431198
Fe 12.982742951052177 11.66048549102496 8.693736360384015
Fe 11.70712645189956 9.67541693935786 8.272844186215858
Fe 8.50897598735265 11.336350607651681 6.340584383121869
Fe 10.993702656696815 12.111352348589817 9.875531433394999
Fe 8.782303496961347 12.007069569262185 11.110180446575757
Fe 9.231302438998606 9.612268668832067 7.7015619656466665
Fe 13.908278948797347 9.543324700565925 9.022671375144395
Fe 12.510068809753625 10.310128709755508 10.731066101894587
Fe 10.692382763998667 10.986497839129305 12.17836859142449
Fe 6.944088867740004 10.330313139699898 7.701367443851189
Fe 9.98703443638831 9.956214019982994 10.053255291496562
Fe 8.715707234080917 11.718687445291035 13.413480341525847
Fe 7.555342753896016 10.010427094633453 9.98262163579759
Fe 12.290913285258931 8.027289251262463 10.067273886461722
Fe 10.213908702560092 7.764919393279968 8.971102443436113
Fe 6.826657244947725 11.202021069373362 11.982070481384755
Fe 7.687942971696101 8.02284207844234 8.539321868475263
Fe 10.701990877671646 8.45024503124799 11.73681847408297
Fe 8.602149332332678 9.71325136749572 12.261972829835655
Fe 8.496903960739797 7.795637298931082 10.784989808457285
Fe 10.512790848850038 6.272307915341487 10.84668439967635
Fe 8.831924479750528 5.961797515734149 9.268034494018977
