20
Energy = -134.72431661 eV
Fe 8.080928258090553 8.626419876181423 6.434917084196142
Fe 9.812839977708302 10.649810457876747 6.530873792839104
Fe 9.24529018927036 6.68162859206493 7.890619072752627
Fe 7.642594337678027 10.53077937392672 7.849015515315095
Fe 9.588073794603703 8.941347711920194 8.053759924571613
Fe 11.769690494293393 10.167879504637432 7.951112022066317
Fe 7.302587880253788 8.092262687733847 8.677731583156108
Fe 9.817440916923491 11.408024440220318 8.786778182718008
Fe 11.375593449871385 7.405160142564096 8.908522526424335
Fe 6.174106586050926 9.95322616975714 9.6231503620412
Fe 7.722758706632393 11.974797007742355 9.799687804942325
Fe 10.936113777549421 9.405154352871742 9.956499112262723
Fe 9.260193781442329 7.457762542895542 10.152705233278759
Fe 8.486937286022384 9.827327020481295 10.185686040916906
Fe 11.90211497033201 11.5937569945948 10.035851561759374
Fe 7.184308739736403 8.153456353500872 11.106347654379299
Fe 9.938959747100565 11.400701996615998 11.276268294889867
Fe 11.330822028318078 7.584735115482531 11.444845792442024
Fe 9.586187565839458 8.963117465164498 12.127845653711917
Fe 11.701318803890082 10.041513485373754 12.066644076942646
