25
Energy = -168.2300178 eV
Fe 11.49578537422884 8.44345015067972 7.30835849901446
Fe 8.913148925037898 8.947200616018325 7.322359802220424
Fe 8.331073120807467 11.6215446040109 7.3466705059560535
Fe 9.555194889166156 12.585711228941575 8.868305262439295
Fe 10.547512906245846 10.553268324211952 7.704697505344761
Fe 12.559553847124734 9.665720094058205 9.043550766863623
Fe 12.232370779039469 7.383838888973388 9.483508027398711
Fe 12.112752819091748 12.181697738429246 8.795802354142399
Fe 10.074944461323915 8.420765799351358 9.258530001957645
Fe 7.8730002068275695 8.137793619821995 10.00020216779315
Fe 8.396038255978906 10.255893557612945 9.250880204579897
Fe 10.66161210151818 10.69488417196105 10.066706302063665
Fe 13.667435628535022 9.271446639853503 11.363078939025723
Fe 7.234620666163091 12.215038903546496 9.710533617436537
Fe 10.14526363632739 7.086477207216626 11.164069162603727
Fe 8.971239179587489 11.926190364551438 11.222493151472701
Fe 11.611217858522492 8.802504935173083 11.225472709561716
Fe 9.218620737671214 9.295747602030056 11.517573957647844
Fe 7.157468662438514 10.440256865772406 11.369282176212431
Fe 11.148563664373105 12.997510687860748 10.793536027923441
Fe 12.9188331850425 11.531275210954927 10.875077814236628
Fe 11.150550529344113 10.87990980451631 12.362485722354387
Fe 10.645148956104864 8.702762459505566 13.269221271323332
Fe 10.097477807488145 12.879710445528827 13.060798955780188
Fe 8.934982285398792 10.733810562806918 13.271215578035163
