27
Energy = -180.56532316 eV
Fe 15.033440655830073 14.621433370108473 10.654922490351082
Fe 15.079069232193904 10.611799235990867 11.127257601064171
Fe 9.791650913376946 12.688181737644127 13.795261409444661
Fe 15.57272337053777 12.852207331010552 12.364896343720934
Fe 13.865125868086135 11.139615366626375 8.939920612909681
Fe 10.84763216517639 8.800856679023436 12.037427149134773
Fe 11.755996585631387 12.330136042335099 9.23405526048303
Fe 12.047526430320017 13.096013470316608 13.992476933105326
Fe 11.123830506716216 11.362567248272743 15.331677793827792
Fe 13.615053102060159 11.521044145430375 12.96707441220609
Fe 11.210516082830914 10.912505761874009 12.935817633540488
Fe 11.572022232170594 12.69475731480465 11.608254429261017
Fe 9.5460845273153 9.706901231144881 14.055462716466433
Fe 10.286469082354179 10.49044809082805 10.466417834804446
Fe 8.573873254701985 8.839989933230727 11.912647425153324
Fe 11.039648157948355 14.738553505774414 12.346940072277626
Fe 8.859582141365108 11.021235255165065 12.248911080658923
Fe 13.706750748390538 12.571898542614406 10.772750503739534
Fe 9.574473407073455 12.945512846677419 10.838525637480426
Fe 14.297682945791367 13.245033651707196 14.521372548367568
Fe 13.477621953477566 14.284299285096761 12.480441501249725
Fe 11.72674504448324 13.576632560735199 16.21329265291309
Fe 15.913319550679848 12.496218415481772 9.908985840648079
Fe 12.430973610695032 14.582872578497172 10.208706829523399
Fe 12.621257806913658 10.365166745097953 10.937960115293949
Fe 11.221791927734563 13.822506554986335 18.2803857300816
Fe 14.04507964070203 13.517554044081546 8.654098386849377
