21
Energy = -141.06160618 eV
Fe 11.845530898773948 10.609034767464575 8.317885653072342
Fe 10.866758416130988 8.258010385078464 8.296575255586088
Fe 9.647939417942967 9.965164010508742 7.1101609948198154
Fe 11.761902194190577 9.19882839222321 10.37709975411773
Fe 10.022753715865564 12.149498010403109 8.22318626607515
Fe 11.383542303572325 11.807000000503942 10.383844970364184
Fe 9.019021307715134 7.475330757772672 6.613083333492988
Fe 12.070833441554822 10.598347349646124 12.170286817194825
Fe 9.773529161564737 6.217707868919564 8.41540864180772
Fe 9.857327959611947 10.068038998402953 9.548416743135233
Fe 9.839687041799142 10.215966962780481 11.803855780747522
Fe 8.146783996191893 6.012346483807273 9.985209351520206
Fe 7.877859631493745 10.86681754768199 8.382910697776419
Fe 8.454718032397453 8.369822964468245 8.770883970874692
Fe 7.075688060953949 6.773167777499551 8.023767650131267
Fe 8.969162907544698 12.120448455026605 10.368187016823605
Fe 9.499715693937814 7.8447871828679565 10.71105335912686
Fe 7.34467659296647 9.13510960872242 6.745451081826855
Fe 6.852559177244387 7.779544905908801 10.657990095740416
Fe 7.684487243094686 9.938008483750664 10.605403247211765
Fe 6.138453396887181 8.952528893390259 8.764478605335839
