20
Energy = -131.56753606 eV
Fe 8.015305865041864 10.89774543362503 9.679885950015349
Fe 10.055604478348462 9.911390825641261 8.850557807697466
Fe 8.217480827268169 10.031215955132843 7.318846974794939
Fe 8.321274883680413 11.38778424747046 12.104224938710193
Fe 10.34644402453274 7.580442501087817 9.82490620161379
Fe 10.71163447858568 10.605162344123263 12.604581697270405
Fe 9.500544276538111 9.443743524114241 11.086111417194164
Fe 7.08200437325174 9.259149504323402 11.414549221470752
Fe 12.16083751675055 9.585786997903702 7.901018693190657
Fe 9.348442096098097 12.224246105941841 8.226474303918422
Fe 8.392358051550817 7.406600425372478 11.607591254072108
Fe 10.165973224672701 11.768835543120991 10.578011318697376
Fe 8.585702115539759 9.18457862960188 13.206607638834544
Fe 8.083441444349164 8.398929287745995 9.336832301362564
Fe 11.833049114572518 9.772669309123554 10.454832632867426
Fe 12.436534077579593 7.725625917000871 9.187073615776232
Fe 8.012475941953992 7.662441623901507 7.141886162374889
Fe 11.65305520313394 11.769266862033518 8.825151571467998
Fe 10.17193805002984 8.143737973843155 7.448116990084105
Fe 10.398917882023875 10.733664914393527 6.695757234088652
