28
Energy = -192.23732699 eV
Fe 8.512587724430027 13.138471029825032 9.87997091408721
Fe 10.207723480848117 13.894275897835549 8.261989941241525
Fe 7.3349824935266055 11.038838377153747 9.118803053813666
Fe 9.483218406763706 11.709544869722162 8.1396704199608
Fe 10.035328825256883 13.364383539873952 11.943279745992456
Fe 9.06526413998641 11.039221086602623 10.70047475958239
Fe 9.069546701019181 9.421831184125391 8.596901619620636
Fe 11.035187154405502 12.678530840898514 9.99158338679682
Fe 11.207902726329776 10.380267689257266 9.499441661388573
Fe 11.130894407751207 12.45774889513542 13.830767485210277
Fe 7.6286420924998835 8.957902910171512 10.570470060681174
Fe 11.119517670728776 10.829677769400128 11.871058568911783
Fe 11.920794965347222 12.138219980780956 7.762832283593952
Fe 12.591018064323572 12.664447368623515 11.931442479617454
Fe 8.783084790389626 7.25168469295726 9.297511602508258
Fe 11.101828305877442 9.98751765123645 7.130893130313164
Fe 8.926702765177199 11.660791075988566 13.051719040349354
Fe 13.367552895455395 11.928121667384247 9.653518727325388
Fe 13.15014654453938 9.760136506836561 8.533987508938113
Fe 11.065648788151709 8.016484730401704 8.463997481592694
Fe 8.811694122148557 7.153369644505884 11.715834378944619
Fe 10.512757341897718 10.237342460345232 14.262336251062969
Fe 10.18797841209546 8.653100219243386 10.712588327210058
Fe 13.28114941390781 10.18894739625514 11.209052654306166
Fe 12.858181237675046 10.68192857689426 13.60143952474016
Fe 8.97542269759597 9.325058231234173 12.662183607718697
Fe 11.518496122192238 8.65989521215289 12.700720267158395
Fe 12.5348514240266 8.200364209505299 10.323634831680216
