22
Energy = -147.3401186 eV
Fe 6.359834716836296 11.314934716384295 9.815640618699796
Fe 7.826111336784496 11.989226650598125 11.953810041109614
Fe 8.425884477365122 12.741940352758233 9.697288795253058
Fe 6.808269994664988 9.735911115841729 11.70068667891467
Fe 7.161743802871605 8.993606015496892 9.167299460898382
Fe 8.176165407123888 10.81747557111294 7.9543952352014315
Fe 8.584079223653276 10.473758132280624 10.386293113729804
Fe 10.263938516746887 11.722781232966359 11.37407603982312
Fe 8.512439818566573 8.13024558956537 11.2146707631793
Fe 10.202655119228352 11.56543756244691 8.838787238815996
Fe 9.013724175738945 10.014202443844122 12.84360289247538
Fe 8.68983036335209 8.504320123875154 7.197217698857447
Fe 10.704813471629622 9.330847557539053 11.356168049133174
Fe 9.815664555376031 9.060169611309387 9.119174835243149
Fe 8.345482369031949 6.978242834555805 9.000501908659656
Fe 12.109848990022455 10.629132005519475 9.750300431836928
Fe 11.360943166679098 9.701492704949395 7.517528485623851
Fe 10.437583002841789 7.028861098878002 10.341006565411194
Fe 10.62212088658051 7.143535626400897 7.913775026444689
Fe 12.272703022944357 8.425049453421325 9.426330584890135
Fe 13.601163029308683 9.829335712857345 8.130776082869067
Fe 12.751436622966201 7.68040367956527 7.18257800493465
