22
Energy = -144.74849333 eV
Fe 8.63777760130474 6.6306496808658855 12.033387983656313
Fe 10.916847357959982 9.932266211582224 6.643686183719066
Fe 9.386804065981101 7.335903904191549 9.79979788383962
Fe 10.870888489454389 7.097061084636637 11.723828962627655
Fe 6.480823648908939 10.752712020172352 11.01003114920665
Fe 6.722125786336803 11.136056089638226 8.744872895330412
Fe 7.16652340777257 6.9702632650005425 10.387767337316859
Fe 8.783240134553228 12.755063454423896 8.54282613615936
Fe 11.179456685155182 7.497890525565638 8.112517936728183
Fe 8.789756820271746 11.0358249783507 9.979164977092074
Fe 7.4719704863159135 8.87874285599408 11.762355891309484
Fe 12.604038060582273 9.41442462758043 8.032409382240585
Fe 11.783894763067604 8.732204493210396 10.247930230036042
Fe 12.798209923953243 10.970109452156915 9.732073058105675
Fe 7.5657959941718245 9.135360203363252 9.374623492382703
Fe 9.72431289100371 9.065768782324618 11.329820758594009
Fe 8.487122168785278 10.968519546984188 12.238918778388106
Fe 8.7193701062683 10.783331845617942 7.440274953653387
Fe 12.636721004225828 11.48916596375437 7.125964695065999
Fe 10.03481573820313 9.325151103471454 8.765061089722002
Fe 10.858404591344966 11.564110285835142 8.527597425658199
Fe 10.908000583061327 11.05631993396164 10.971989107849696
