25
Energy = -168.49188941 eV
Fe 9.64033177146063 9.094059601143236 6.903784185553189
Fe 7.510430067183501 9.649262331607916 7.830364355511175
Fe 8.793705330539419 11.557493867089349 7.354765294607886
Fe 11.2545147807346 10.843923953694429 7.601776527787593
Fe 12.470806304565231 12.343529558179982 8.986899050963522
Fe 9.032154372437388 7.675643429098157 8.76825302182642
Fe 8.16668191937629 13.536370052393579 8.786656106616844
Fe 11.366756190402306 8.574081756387294 8.589547892434345
Fe 13.269328991879435 9.966984590415395 8.731517057392422
Fe 7.580400659612548 11.464498193208481 9.630801644266295
Fe 9.40229127876182 9.9611967633481 9.153719870443151
Fe 10.064819448304497 12.32044254094658 9.27320480029162
Fe 11.048656560766695 6.606167526635669 9.801410786189196
Fe 11.596165464110285 10.505609804982317 10.20847546529923
Fe 10.147841902825707 8.544455839327744 10.906115440424772
Fe 9.283661874413967 10.812496684654402 11.331338554502073
Fe 11.33574322155987 12.65984767534968 11.237732256558198
Fe 12.492465613274833 8.353334334702286 10.902142060043612
Fe 10.611265541284979 6.597940251921055 12.106861119049983
Fe 8.740588851744574 13.070543608448302 11.208056125390696
Fe 9.438261458087378 8.686256979991969 13.140245152829646
Fe 11.752306034732937 8.231521670694173 13.168598212494983
Fe 11.150741670637567 10.447083263145489 12.671138376064668
Fe 8.683206653262028 10.913370929943977 13.527928565634955
Fe 10.161447228276216 12.578457982925155 13.173241268057788
