26
Energy = -177.61168662 eV
Fe 7.6947585388350745 8.917570797125197 8.356922487177956
Fe 9.471597542722819 10.288554875900067 6.882418111785477
Fe 7.265282023988382 10.227111272747841 10.496934281987889
Fe 7.666882938351509 11.592131925898398 8.379320893076276
Fe 8.813291066295616 8.08596487714762 10.366769598283677
Fe 10.131499045580798 8.148935072109104 8.121968765305102
Fe 10.849245237681673 6.841225368997186 10.17417034043058
Fe 12.621818524770568 8.193526143611823 8.717337196300454
Fe 12.834525716242535 8.196149893977871 11.388383372278879
Fe 10.472687630396267 8.126067531028234 12.368740950706595
Fe 11.152732576296774 9.080123448017389 10.18308169904996
Fe 11.599223325961887 10.294864501368389 7.991031264863467
Fe 9.5042992722993 10.24368787800463 11.509531231554774
Fe 8.043576170795106 8.89165882179379 12.55179104095063
Fe 9.321210471249167 10.259785175743275 9.13470748511974
Fe 8.77154885721443 12.39554461718752 10.397764172450374
Fe 10.085920606826837 12.409332589349978 8.150261691874515
Fe 8.017557929723838 11.56007100070124 12.571142527647044
Fe 11.128087299635482 11.467824686403508 10.197448598556035
Fe 12.578622916716343 12.40066452241308 8.74565716453496
Fe 10.424518684104568 12.375700969431866 12.397335952197261
Fe 10.765686721630663 13.700680191203151 10.229651238627216
Fe 12.792041989635395 12.379508795866812 11.403852578961155
Fe 10.031515802556688 10.229556395289826 13.7211763707703
Fe 11.927349196744288 10.27625334772542 12.288084101529163
Fe 13.293790592949609 10.300722611911462 10.019702524438403
