21
Energy = -141.76122393 eV
Fe 10.932020511903394 10.647390476009464 8.580728154966792
Fe 10.492111887529866 8.257242991478803 8.503852833945388
Fe 11.810173591811793 8.97769801180715 10.320175948678761
Fe 9.649900439066641 12.299910812577457 9.581958773686575
Fe 8.854190530620748 11.68937682764846 7.4376277093009735
Fe 9.577843868862526 9.622101129429584 6.791959584150032
Fe 10.543751367105374 10.825260597319735 11.147392064679341
Fe 12.254445022008838 7.006359232480879 8.8781240193469
Fe 10.868687089549734 6.821364682499013 10.675937487715284
Fe 10.654086473000618 7.25656698655524 6.549446234246707
Fe 7.305644247555829 12.02724680088413 9.271500043744172
Fe 8.725300654794287 9.795571720555895 9.37418889357564
Fe 7.114073638445325 10.067757910691064 7.5869771432809125
Fe 8.140305268730836 11.005704932354712 11.302826849572304
Fe 9.64707902962064 8.77859650207368 11.63685986449014
Fe 8.261074097540394 7.854248570617784 7.510015979785931
Fe 9.950831699475419 6.01549608139961 8.323883378214965
Fe 8.651728926883113 7.401378998157311 9.913766927135857
Fe 6.117421239632572 10.203196871191555 9.86284411713827
Fe 6.551492960116541 8.079957756802509 9.015306501518415
Fe 7.264493069463774 8.793076606847952 11.352140067998915
