24
Energy = -161.43468096 eV
Fe 8.13181338411755 10.422019091909336 14.056937191422831
Fe 12.895176106837008 10.174464279436902 9.676028112778846
Fe 13.714731121722815 11.822300157361251 8.069647151458998
Fe 9.720630822361173 9.511138339005427 12.407001935089728
Fe 12.511870902880997 13.76013885371306 8.179298869391205
Fe 11.128557083902589 8.096732709732018 13.756718888737746
Fe 12.569523806595654 12.705843646589091 10.295128618675834
Fe 14.602379564328242 13.687481023252884 9.298110682893636
Fe 11.908061918915251 10.379733554878674 13.575416494005486
Fe 8.249077034723525 13.204752605069737 10.164202804824019
Fe 8.404920648565833 11.382691483486088 11.799152075179412
Fe 12.025585009508513 8.884652101170245 11.675587851828933
Fe 13.467862372676782 10.850541778012213 11.877698576959878
Fe 14.959779846238504 11.474604416242874 10.098119811709926
Fe 10.074576977018605 9.755434779010692 15.077199455215277
Fe 11.346951278860738 11.387441220912812 8.409431765150481
Fe 9.19681590881456 11.154174007037266 9.650561491300051
Fe 10.108057089889122 13.098985701483262 11.475085404070462
Fe 8.752565609137363 8.12882226903915 13.947315064778845
Fe 10.379702047546106 13.284772495434082 9.223796610675526
Fe 14.363144332849307 13.126733440523616 11.646148182831144
Fe 10.026712744489766 11.792262745203884 13.548593751792447
Fe 12.065222387510449 12.690067341800633 12.659788638379087
Fe 11.011647501625964 11.003552527551275 11.068068553553097
