29
Energy = -196.34559106 eV
Fe 15.024449367850831 12.454255669341817 10.982605362943426
Fe 14.380267493624556 13.876707019582641 12.883538511088348
Fe 12.098276685829683 10.461525281927951 7.7697288841073515
Fe 13.387601252413504 14.16866558006032 10.714406933233175
Fe 15.201386926445586 11.700052538194877 13.205531809235849
Fe 11.154338173472487 8.821690480573599 6.406757531731227
Fe 13.005688942779345 12.064795501268627 9.583305032139387
Fe 14.132512701249125 10.174918356620248 11.497660622804853
Fe 11.881810662243796 10.015379450373365 10.187149209420676
Fe 13.633385062792224 10.144135679117545 13.960906538180577
Fe 12.559655254308714 11.888391088295107 12.153077081220975
Fe 13.082686131874976 12.506749970013042 14.472185046383748
Fe 9.658996129530742 10.438437154620203 7.247370498764981
Fe 10.549594052400371 11.879704949455876 8.95888513161756
Fe 10.462317630019074 8.678040802494415 8.702689881440175
Fe 11.09047827130059 13.391747828658225 10.639877188866784
Fe 11.963068176702283 9.268756730883853 12.447244054906767
Fe 12.015533492485314 14.375670433544387 12.699129479856342
Fe 8.838846143257355 10.240806710429059 9.619159194029015
Fe 10.272061197048307 11.255417230276592 11.854695120416325
Fe 9.904038918017815 8.756599598962893 11.128958030838843
Fe 11.339683761194271 10.694755111307803 14.403574853911422
Fe 8.632080919918613 12.522052071299317 10.476273338226054
Fe 9.538788580316796 14.161143107813361 12.20688944162952
Fe 9.776415726503561 9.087627499577202 13.439396467938934
Fe 10.58781685419372 12.922063656516963 13.94349830520478
Fe 8.019860805670257 10.256675609930166 12.006027292340294
Fe 7.940834535336702 12.557860994944312 12.74895805633017
Fe 8.952969739616115 11.114372249566232 14.24203635590804
