27
Energy = -178.83141551 eV
Fe 9.649886689595574 9.46714817135589 14.42209568459691
Fe 10.527585742000145 8.6845566936932 12.275049689516628
Fe 10.810437046836093 15.383764976030617 9.985283468648776
Fe 10.759107867520608 12.900718138931802 9.710763266517073
Fe 10.934107730041765 8.630440706060604 8.490085036029951
Fe 13.424606509146498 11.198056193496859 12.493949412752828
Fe 12.313026974688519 15.13739416170424 11.73239690241005
Fe 12.83613800380786 9.945461668001997 8.620398358477495
Fe 10.149694542232663 14.560697341260525 12.25021138793811
Fe 8.689919362150356 11.36139266865665 9.939896770767675
Fe 12.791793700112873 8.918829054589462 12.648645075174946
Fe 12.33526927118659 12.235092802530009 8.185531752699957
Fe 11.178970499490129 7.542325002800149 14.146147803314484
Fe 12.780030316502392 14.187843074073493 9.655477447687623
Fe 11.344059112710228 10.570987530412399 10.635147228789569
Fe 12.047461126206528 8.22380946040099 10.438636392754653
Fe 10.36704221532964 10.861584481737998 8.393984467759827
Fe 9.698782143333627 12.359640615275522 11.82223401603121
Fe 11.966651037751783 9.62763430784942 14.699068485609162
Fe 13.538967207737162 11.888334466254955 10.163102688827587
Fe 11.135251461563174 11.034342087449131 13.107388896788292
Fe 8.750858791976645 10.238084086159699 12.205525608069722
Fe 12.019754619680247 12.904725387735224 11.701973988801502
Fe 13.964475376639593 9.628786294155917 10.64467459769352
Fe 9.10901223249341 11.824302021310148 13.950643762534154
Fe 9.388140700334421 9.098787847569982 10.136753382308834
Fe 8.86450591302878 14.057814507080664 10.328384698900466
