24
Energy = -162.95978056 eV
Fe 11.691703171900665 7.18059577178373 8.594526964164501
Fe 10.460271074945194 10.514251185408353 5.798970271441733
Fe 10.537188947127076 9.130419419575023 7.66335214987272
Fe 9.403548740025501 6.9878527284733405 7.350209762425796
Fe 11.573487302903683 9.530271029970145 10.08935284327866
Fe 9.896684921087349 5.660198071012938 9.257265290175917
Fe 11.30429013846321 7.09053612648024 10.916323506630896
Fe 8.666780369076331 9.075542406115604 5.991956705973409
Fe 11.225258907135945 11.302598266142612 8.010997352566989
Fe 9.730209161480946 8.100243534462724 9.586949881759132
Fe 11.455847268744686 11.932135223666267 10.15052812397153
Fe 8.879808453509671 11.238597845348473 7.322768071568534
Fe 9.739281308233867 8.922935755583003 11.794540423443733
Fe 6.7316471143299506 10.273443448828818 6.938399626925864
Fe 10.408579466028922 11.058914363316084 11.93864927181951
Fe 8.891132552988049 6.594351718878141 11.238429027563289
Fe 9.436182306470384 10.644594034709218 9.659870398224369
Fe 8.127175694133967 8.968303390220717 8.190805198479897
Fe 7.69844552293873 6.709844652743293 9.052387840085428
Fe 7.109545078702254 11.052482290475075 9.192106016021905
Fe 8.015623064231661 10.82882044384399 11.591887294301639
Fe 7.640043272685442 8.720887851780077 10.593636032558699
Fe 5.960799641763127 8.821618911510699 8.73723551992149
Fe 5.777931528581945 10.023387952322915 10.763448075804146
