27
Energy = -184.92987457 eV
Fe 11.192923098338007 12.784864367882658 10.52094407588947
Fe 10.999738515819741 12.693088533397681 8.05685916290124
Fe 11.519710086758943 10.609061943932286 11.571007481335617
Fe 12.855585809260427 11.367217836205313 9.489667484942313
Fe 8.891329991553208 12.66704805055315 9.431810557809307
Fe 6.929821821726933 10.26989520893721 6.893546893241538
Fe 9.184523048225197 11.198596422673907 7.229758233732823
Fe 9.13391137252484 11.216296086391667 11.367847341520186
Fe 10.52130577122319 10.835557859617207 9.335499173163871
Fe 11.7836595005818 10.535003134541272 7.360844172607621
Fe 6.962420284894408 12.076865254792585 8.250771770618247
Fe 6.815140670154971 11.37970628553852 10.501534473756927
Fe 13.467470420290041 9.29938177364647 11.406071765567653
Fe 8.307618358391684 10.152235459375825 9.10923334611879
Fe 12.086384819125362 9.441233957191056 13.482096913399072
Fe 12.145190130770153 9.044883596063846 9.475317373318871
Fe 12.998901609760821 7.095320752241093 10.374714853542281
Fe 9.884177737337303 9.026127886327762 10.55717983182157
Fe 6.217998664166039 9.40801122986097 9.042975818441928
Fe 7.897478594652542 8.27954366033344 7.436489122259479
Fe 7.582438498833709 9.218879100691089 11.365947054106751
Fe 9.682373788145627 9.364383234884706 12.959653155114935
Fe 10.123662038297992 8.80896395995543 8.06013886861791
Fe 10.60759987539221 6.990200329442711 9.714319107699847
Fe 11.483323170695629 7.938608240083702 11.87488296211423
Fe 8.14950892106236 7.638505131725243 9.650708849559605
Fe 9.142300074271667 7.2460907596883875 11.925036896752315
