23
Energy = -156.54607675 eV
Fe 12.789454893451877 13.165031117550866 10.521312793088214
Fe 13.228282167234916 12.375738216109369 13.178046090955432
Fe 14.79229335539594 12.400068519056127 11.348623806401022
Fe 11.905059931439098 11.6131612733969 8.942331914336254
Fe 10.813797348362678 13.177116779432417 12.063664181131575
Fe 10.694002930092694 13.839250813632741 9.73047759101204
Fe 14.057640826779673 10.670146931201849 9.856907840309566
Fe 9.81602285733997 12.414532200181213 8.188772136470009
Fe 14.815282643305979 10.398165300025658 12.349224777611985
Fe 12.480352149410887 11.093797434826257 11.475485201558767
Fe 13.50369789828587 8.784545842626738 11.326778444586546
Fe 8.628758648794708 13.06655525475703 10.475748146484356
Fe 7.859805400128449 11.501059981961628 8.90607548496704
Fe 12.998263075402592 10.0060105570576 13.699183149971986
Fe 9.675824073554727 9.989343058246476 8.731922091539472
Fe 10.130424310942315 11.23849831796749 10.64953460470727
Fe 11.732541934185496 9.361999860797665 9.841504880340128
Fe 11.281512914038453 9.06642027436522 12.279059041111635
Fe 8.694780306109005 12.091912417354461 12.638182005126358
Fe 10.932520595994307 11.270252012530278 13.38148848888518
Fe 7.95722121416625 10.417790393043829 10.957315833882777
Fe 9.53038356810978 8.655590191810587 10.719633331187424
Fe 9.144076466154418 9.799817407607696 12.920872914403311
