29
Energy = -196.97562576 eV
Fe 12.689569914339465 9.904563389607674 12.77280391082133
Fe 12.907705636995138 7.7425091783308035 11.805476991866865
Fe 13.653145008412691 9.302577124196729 10.236414903911639
Fe 13.410469839422777 11.44010303978254 11.02616197880407
Fe 12.92520883696034 6.111644845570925 10.02255810036458
Fe 10.100329143357973 10.4632829937398 13.197427972210374
Fe 10.987898043800364 8.248078212672908 13.220062552545325
Fe 11.089623442957016 9.541244663865179 11.058975880110436
Fe 11.249437192205729 11.878331137003764 11.680914039087448
Fe 9.001218727318593 8.509969727828542 11.78269945074474
Fe 10.823021696464934 6.875653673854176 11.237759230640416
Fe 12.156230041763633 13.003251621171191 9.621381966244789
Fe 11.868397631805056 10.687279489866542 9.161813292056204
Fe 11.98363171508772 8.050965488669789 9.281028375809694
Fe 9.649605539685247 7.975125704277456 9.432397319849867
Fe 9.170842203384995 12.872185216031232 12.392596872410227
Fe 9.266461743471496 10.425956295540526 9.22774585324032
Fe 10.605939809832435 12.066473250942488 7.707782413275844
Fe 8.559751948286216 10.88770301303652 11.424239583344594
Fe 9.033461501213317 10.770808996350173 6.595709694784776
Fe 10.667013248429082 9.303591626503096 7.491123268599545
Fe 9.876546996907594 12.679296945659857 9.963537934696754
Fe 7.4635503236083975 8.98203179355353 9.90598703074648
Fe 7.658400188841326 13.137358951218168 10.599675975739414
Fe 7.036951253116977 10.59111322206955 7.745831310309783
Fe 8.276292308112275 8.603634968344517 7.577329832105859
Fe 8.180570384821921 12.566329207431828 8.19794970005905
Fe 6.630805233290903 11.156684451581365 9.943584163909767
Fe 5.697995369700998 8.791904038799482 8.45121632903843
