26
Energy = -175.83570304 eV
Fe 6.855327827605241 10.780544305394022 13.862665729200659
Fe 11.572733833311917 10.602867673444186 13.197076335071857
Fe 10.207475140993825 9.149826534092231 11.86132265877239
Fe 8.027161978875649 10.299961394544232 11.757765235433304
Fe 13.924954558189167 14.516931291707703 14.939597497331725
Fe 10.16858294371432 13.94787852348223 11.814350603381735
Fe 12.842969384368477 9.014681525522867 11.983435342456728
Fe 11.683782769397975 10.368953690028594 10.438190919405221
Fe 15.712871241945065 12.898672115703764 14.121182132242508
Fe 13.982203082155483 10.71294996780701 10.743636889393764
Fe 9.24058636321695 10.339191114292692 13.758009122980093
Fe 10.376933295375423 12.569031200469128 13.847279865383475
Fe 13.597575321771748 16.114634146592593 13.117525086339239
Fe 14.794506892205638 15.437249879739941 11.19095502409588
Fe 12.742581867351737 12.454376814139676 14.429532391579716
Fe 12.45104990040259 14.81387940057389 11.232499649136205
Fe 9.952317167706912 11.559029022339583 11.510213611172778
Fe 15.923008027490212 11.79850062486165 11.975903245015013
Fe 11.826474872436847 14.52479512384428 13.529911419398182
Fe 8.28326652079758 12.46778143572896 12.853856396122953
Fe 14.370102576929593 13.094129310490533 10.532118803026018
Fe 16.519143646424492 13.974434675755992 11.767341479303635
Fe 13.985425483366809 11.076108916587069 12.993915578913333
Fe 12.179066352066457 12.476878679806772 11.77546889903006
Fe 15.80190543077149 15.281183056307242 13.541916648043841
Fe 14.101886388124601 13.65500365844766 12.722097077897729
