27
Energy = -183.12890251 eV
Fe 6.869386321422167 10.981268479692814 12.9734750897826
Fe 8.501922243317324 12.01175911630488 11.734774565141512
Fe 10.383485196920288 12.850705217389214 10.278040447528216
Fe 12.522958346635935 12.59958656561916 11.265872935147613
Fe 9.06415464469998 10.349761373099753 13.607697164650277
Fe 10.77209490595955 11.360211477826521 12.307985649600283
Fe 11.409502254816086 9.68210091268578 13.814013906310475
Fe 6.566118628749429 11.039697643144176 10.605408341122448
Fe 12.412101406887977 12.51797061026244 8.816889119243166
Fe 8.148065387483307 12.140219421442444 9.259076966298522
Fe 11.77382885846882 10.738238587260375 10.27223066131202
Fe 7.834158287382621 9.264848250491774 11.769412588290043
Fe 9.314335090121018 10.330637132074388 10.215169851439075
Fe 12.659494776189007 9.426520345148774 11.84603699919056
Fe 10.36053055715841 11.361387391825291 8.285385728060595
Fe 10.297763509199058 8.910530104595345 11.94741477564074
Fe 11.815799458072773 11.750049518154905 6.609770454917519
Fe 7.395496489539323 9.31064187978568 9.255574140904992
Fe 12.40627558550712 10.002798745212708 8.08635689213462
Fe 8.386191714122642 10.560323969142557 7.516871338344124
Fe 8.994858020094297 7.678324637205677 10.284454418525165
Fe 11.52808058518903 8.467200448491203 9.88631953924264
Fe 10.949894519004106 6.74932106873899 11.259926236248278
Fe 9.760348770692447 8.811550890935747 8.28150439274664
Fe 10.649415065794482 9.68527164690157 6.35846329585454
Fe 10.400229677432407 6.518573865087248 8.865215983178059
Fe 11.834517290432732 7.832688497692431 7.496717057089444
