24
Energy = -162.79671233 eV
Fe 9.380931746948098 10.932553761940781 10.98798078476854
Fe 10.566551971231124 9.066995426002475 12.1128740263076
Fe 8.331782399317033 8.685870980461718 11.428048722282567
Fe 10.016594192622335 12.230849317367113 9.170836669877398
Fe 7.017327091066248 10.73463716938457 10.94375095842178
Fe 11.548812043558048 10.471997952915236 10.111530704956158
Fe 10.435867283250609 6.7996516577420465 11.299321560048229
Fe 7.648436646015772 12.265090098578515 9.191981498922509
Fe 8.383239886866114 9.996812946608067 8.884117110997385
Fe 12.396278610288201 8.409217293778546 10.893796423182526
Fe 6.660643635590375 8.414470619551537 9.747567554747105
Fe 9.140610370672828 11.786859312510977 7.053277404842203
Fe 10.08756488952672 8.509964146410693 9.643885681928055
Fe 6.920963112306909 11.261885013746484 7.098187065300414
Fe 12.455889821733024 8.794854008095431 8.482881245964844
Fe 8.244639900218418 6.5826957784775395 10.442896111506547
Fe 10.702706632141762 10.199410366520905 7.814894524846011
Fe 11.949730716167547 6.660504583953693 9.409835349634292
Fe 5.808763564989673 10.486713170990935 9.00314284457171
Fe 8.75419491576622 9.455751117797833 6.511319705658146
Fe 8.285430019389219 7.559193921560386 8.102153169241525
Fe 9.843356161442886 5.969890541477983 8.857081871123286
Fe 6.559740699848207 8.911086689825801 7.290353748960658
Fe 10.633057565018301 7.723819084259419 7.378007561759213
