23
Energy = -156.0128667 eV
Fe 6.509351585375992 7.666664893246804 11.034190052209503
Fe 9.423794848488502 12.988782966557242 9.293095848271834
Fe 8.592544218188594 10.974912306284411 12.796243467088702
Fe 7.59392776285979 8.155162825382671 8.897632148987975
Fe 11.583994707081333 12.851837183804413 8.054015895413631
Fe 13.479352799931144 8.767000835834606 9.84542083744632
Fe 10.522168134989657 10.912721827097833 8.495338012208938
Fe 11.814901469498954 8.675812089515276 8.276189091233043
Fe 7.934360905649753 8.496191404659589 12.90687512404162
Fe 9.772417760497099 13.075529785202644 11.814473900298607
Fe 9.433343521995921 11.128232251584665 10.58962858857799
Fe 11.632521541471942 12.443194569343202 10.35690902589885
Fe 11.678450270980008 10.034773871780889 10.586428449291828
Fe 9.998263776662862 9.097454427109778 12.012804888284672
Fe 9.521931389081285 9.154082665452194 7.255528802650953
Fe 13.021421969151552 10.901267154556676 8.747101162101089
Fe 11.42154182923369 7.590213797740944 10.527499106877109
Fe 8.748942557336754 7.186451148050454 11.021719285254154
Fe 7.641609852645777 9.637777338277031 10.867078897105001
Fe 8.060657622004385 10.542416355755721 8.596498805247693
Fe 9.71439633787484 8.841871451470274 9.582327013421967
Fe 10.98060356852693 11.249454174508232 12.613093678372742
Fe 11.830560671095755 10.53925377740642 6.74096702033761
