22
Energy = -147.21050236 eV
Fe 10.551744574798573 8.392486759368836 13.335231807438529
Fe 10.38415166469778 11.536271027448624 7.287055795611656
Fe 8.698287969526797 13.502786457486074 10.88614334909462
Fe 9.26579384896382 8.616157133009107 9.848697244613405
Fe 10.327813330242384 8.679238206839063 7.591840322619466
Fe 10.865746186434665 9.626322651857603 11.501073441559024
Fe 11.45395556944711 11.874378216344063 11.220850592394102
Fe 10.708171076717907 10.406822241094394 9.190991112452155
Fe 12.925345290052618 10.023792410209927 10.405346332518311
Fe 12.470075161854322 11.801237148939855 8.791378832868594
Fe 10.237983124726703 7.113960518760902 11.437139289707005
Fe 7.787903951845372 7.855316929548549 8.345713308857093
Fe 11.702196134509325 8.106521332037262 9.60527467458587
Fe 7.406794681642648 9.961075849937723 9.740956452028623
Fe 7.021167759184119 12.26222193710749 10.745604746442428
Fe 9.889639426878418 6.571599858353168 8.915775454242256
Fe 12.451188666085352 7.91526540489999 11.817165357723292
Fe 8.552887579358833 9.045176562607113 12.027217014547087
Fe 9.150180566669459 11.189124962368185 11.025376777507681
Fe 8.55769990779033 12.028974251301689 8.78827955378426
Fe 10.6063463158161 12.985092807053926 9.396953112747312
Fe 8.441819322887257 9.963069443556076 7.552827536787132
