28
Energy = -183.33205811 eV
Fe 6.464408324146329 8.942820411179934 12.080727696176458
Fe 5.896441835070707 10.893924341813399 11.045634156829795
Fe 8.836947163344636 8.452727765585674 12.430104558724565
Fe 8.02378058936396 10.683163828411637 12.566606136417636
Fe 7.277271629791024 7.436557447452475 10.549686960646998
Fe 7.59639876084664 12.537453108045197 11.04009901844139
Fe 11.424284896839701 8.19958998916509 12.126307320817748
Fe 10.415920219850026 10.104045735009292 11.258559736862532
Fe 9.724283253094017 12.264153241090032 11.87705155022329
Fe 6.245146169379952 9.279825432354457 9.328549174049972
Fe 9.608340213187768 7.713859091967505 10.42732464688974
Fe 8.304188299515255 7.988992355470231 8.427332992735973
Fe 8.220253359820335 9.888118564309504 10.303447211080828
Fe 11.733224787504744 12.263578110320106 10.793442965470181
Fe 13.072030879622126 6.803384902983876 8.780639975776042
Fe 8.151829076231923 10.229859842750624 7.752770494365474
Fe 10.407120800255468 6.835874124599434 8.31980889346315
Fe 11.824062847928872 8.016938152178357 9.917003306000156
Fe 10.39460688076211 9.52125595119304 8.789533183961899
Fe 9.515078712234477 11.830995735107491 9.440514787819142
Fe 12.670101373817898 10.08438935967499 10.694904265147441
Fe 6.941696198022441 11.721848125542087 9.001182497472529
Fe 13.152502527524323 9.42855993509312 8.470015570247508
Fe 9.749479625995672 8.851193346494943 6.586035158953504
Fe 9.9382184024401 11.506961175904697 7.066805120043851
Fe 11.913390033154371 7.9833950790408545 7.060380227591359
Fe 11.861226212714012 11.441927221929312 8.663014024383576
Fe 11.749662013257238 10.234059432969117 6.562102206079096
