21
Energy = -142.04782503 eV
Fe 10.655778099513116 8.382228860936108 5.751741531811783
Fe 8.931474761776869 10.153905341213466 5.70752647034825
Fe 8.4263203597988 7.632316160508953 5.758883346610261
Fe 7.063190107071672 9.334469382646033 6.760198453403698
Fe 10.841131665956649 10.455655174499215 7.020601566090542
Fe 10.094131954728267 6.537418920651188 7.392022779346132
Fe 11.695645300870591 8.13193508254167 7.989277057635239
Fe 8.411786968229523 10.848853414342877 8.269702010159904
Fe 7.847765513825257 7.0766507720745295 8.065370519495227
Fe 9.311772427765481 8.807076543193196 7.766990231272543
Fe 10.828824244371411 9.941932239353296 9.348499566515443
Fe 6.582543731347011 8.928584560803325 9.052922101697424
Fe 8.60336605343196 9.039487421696686 10.093410833034827
Fe 9.361486049257529 11.362547193321413 10.609808730373858
Fe 7.413525406859073 6.780093509353645 10.361698917670882
Fe 10.16178174625013 7.374126427432408 9.77223724672563
Fe 10.532984782117547 9.222203769052692 11.579786898205358
Fe 7.07979418488119 10.956196704170281 10.356435066608395
Fe 8.793090959356963 7.76632877891984 12.095484263027132
Fe 6.667651223462423 8.821719352293231 11.563939822658973
Fe 8.420586308023426 10.170902239892097 12.408094436204685
