25
Energy = -169.54590902 eV
Fe 10.776153715881547 9.608689484765693 6.917711739182505
Fe 8.329693725564505 9.120158958754233 7.185127999111646
Fe 11.692698286931142 11.579679029769668 7.665175153274601
Fe 12.592744059815983 9.185253896610561 8.45108136366849
Fe 7.695868768770651 7.516092200488511 8.80942680830338
Fe 9.296808825086453 11.329049357243335 7.964123490560693
Fe 10.086303712251983 8.016308216318231 8.409392280167083
Fe 10.566362812377825 12.57999251209257 9.584050049525292
Fe 12.977437583342784 11.443766673493927 9.560719987856862
Fe 8.091323007346544 9.869196085117784 9.363190860393546
Fe 10.810967258061977 10.019624848683215 9.59320481773044
Fe 11.681125460981606 7.700467270676571 10.187991176827758
Fe 8.05050588777935 12.410987643487136 9.797388649217089
Fe 13.032966477241672 9.536728282741821 11.001628351013764
Fe 9.263992768545398 10.834787567609384 11.225747743208641
Fe 6.649048573045202 8.508550131112722 10.645150683258445
Fe 9.23199805885628 8.055267409986286 10.62443455531008
Fe 11.605140540002925 11.619633809772926 11.524669809240125
Fe 6.82991809206039 10.909193564767818 11.173076151210642
Fe 13.855666134267802 11.544645039249097 11.969779064209527
Fe 10.841692002154765 9.153724646668392 12.013235312448705
Fe 9.52797104459873 13.098498549082924 11.619604180302442
Fe 8.08941651464725 9.245870479201205 12.336848401736233
Fe 12.515538206936482 10.197589207500945 13.301500697772148
Fe 10.149965214187796 11.157551865542088 13.317047405207505
