20
Energy = -133.63047462 eV
Fe 7.283296510446664 9.259301796500353 12.382972830396115
Fe 8.9524075786371 11.04931368702179 12.400364522028276
Fe 11.170789739795989 10.732130862487525 11.29050033390241
Fe 12.004678977747663 8.536904468756445 10.980296845764904
Fe 10.34356652902641 6.868527927577907 10.590473752677902
Fe 10.226728236832518 6.446441024066505 8.311044460582703
Fe 10.622620540048283 8.468931739994336 7.131469413752521
Fe 7.551486119639238 9.527796125395188 10.141270311160142
Fe 12.36426337509349 10.021386957470485 8.910764066471762
Fe 12.150344518510535 7.583192315777385 8.823626538514945
Fe 11.160665104611711 11.975599764433861 9.284344604128156
Fe 8.421220134897437 7.5666506661818405 9.274508105025419
Fe 9.049527271909763 11.291274910086589 10.044186891537295
Fe 10.211434408683887 9.14104901208389 9.319586543482503
Fe 8.952483267870893 12.221359487752396 7.870153914676506
Fe 8.462295051910152 9.7414903234867 7.749228893169839
Fe 9.500961659980334 8.929966208523325 11.550606436823024
Fe 10.669318392720674 10.830209782588922 7.2406349429971275
Fe 6.938835550742934 11.254325261783485 8.63441724610013
Fe 6.999365387292793 11.590436034429146 11.105837703206367
