24
Energy = -163.52430779 eV
Fe 9.300691308703229 12.49285299283317 15.389161249975945
Fe 11.261617669232496 13.501245235317135 10.11423301654879
Fe 11.87257523473023 10.819333557989536 10.641246120363187
Fe 11.481602693895175 13.156954887903154 14.211546245140935
Fe 10.696577953301533 12.409928749146557 12.19051922068518
Fe 10.915613140678074 8.203536689493985 11.2097605988275
Fe 12.490340267024964 11.00942291906925 13.100886501619922
Fe 12.990886766544062 13.068562937577536 11.797920779892195
Fe 14.392021122945003 11.21001123067817 11.559334278555758
Fe 9.879192870993823 10.108629708500276 12.035552108229451
Fe 10.405203511827718 10.940021373974972 14.228126803140434
Fe 12.537577337152978 8.422820147730706 9.582684152065074
Fe 13.251986923419825 12.264861753106464 9.356209639947847
Fe 8.587803060821928 12.125714381429514 13.000570479025848
Fe 12.260898339019276 10.269647871391511 8.092284587668917
Fe 10.257176400833002 9.625456150894975 9.309734941199766
Fe 10.817993374870092 11.98348282544759 8.404743337412082
Fe 11.571946837754345 8.902053745321835 13.35888171363961
Fe 9.146781216673254 13.98872138484017 11.23458083498104
Fe 9.467845557148882 14.230537371417393 13.597947722803928
Fe 11.31045727456179 14.8123429710731 12.26792356309664
Fe 14.189030904772542 10.122037914569312 9.536542239400802
Fe 9.388266026293953 11.717772744540598 10.255092498188114
Fe 13.33717377791244 9.03445119112439 11.709689997433488
