20
Energy = -134.35120472 eV
Fe 7.429320577874579 10.190032505526016 7.991058554080041
Fe 9.792457972363053 9.590019029049266 7.550003363718791
Fe 8.149392613807288 7.859550316901498 8.447411390469519
Fe 11.127430820173522 11.56913690311332 7.317801858909345
Fe 11.220711757417686 10.890907118425986 9.392374222284994
Fe 12.038943901376845 9.115122604549658 8.067436625878548
Fe 10.434275750412427 7.458048028067405 8.945992864921807
Fe 10.845991172687235 12.982495075192352 9.903456194613195
Fe 9.114554851436523 11.854748197415656 8.638537105384406
Fe 6.6799781771581666 8.9500600515446 9.931443209162738
Fe 9.096334209087951 9.631568348970275 9.831234764258147
Fe 13.243816457299449 10.038622361943702 10.041961060538139
Fe 11.375323166082335 8.768641764672614 10.54114509233733
Fe 9.419873802819147 11.559902260219765 11.212490843222085
Fe 8.773792668727008 7.58998590577036 10.888717425104453
Fe 10.806225142171426 6.884962589873994 11.612594784557734
Fe 7.2229840670539085 11.326736403839554 10.104995661306816
Fe 11.690222858228532 11.052525204971031 11.684270078193812
Fe 7.7650654928554745 9.682949276561775 11.873217629333993
Fe 10.077039132538761 9.307720644962602 12.327591863295975
