22
Energy = -147.97984681 eV
Fe 8.064576898172776 11.638358587727463 9.076697371551134
Fe 13.626648993321307 11.376902691789828 9.636148174408156
Fe 12.029876797318241 9.898876286349314 8.726212923720313
Fe 13.446390233749483 8.971235140435992 12.755051966186942
Fe 8.822335673280355 10.11026422963376 13.540699669836759
Fe 8.531435767619902 12.443697424107642 13.066477046447044
Fe 9.924701241599676 10.60665289627125 7.5526112813066195
Fe 12.061088716911803 10.103982808729903 11.2034853892777
Fe 10.477643552843524 11.564412262829865 12.136536018947188
Fe 7.9983235007013205 10.83913629736016 11.381831526256697
Fe 9.973226314001042 10.631544989599536 9.842535444499829
Fe 11.847776607603661 11.855433391538627 7.586499783872879
Fe 10.453419382486427 11.469814221436335 14.522649546339489
Fe 12.883286757061768 12.500450220963687 11.703311946416767
Fe 9.149674464885312 12.970416582172698 10.710454617281046
Fe 9.778528600646633 12.918608794534219 8.251169833010541
Fe 9.663471817156477 9.13489093204938 11.493924456739267
Fe 13.997140996773256 9.164883126212944 10.314958567058792
Fe 14.494943622135201 10.85601784881698 11.931058462911636
Fe 12.63115392898653 11.178881091311968 13.56934468314904
Fe 11.435403334020688 12.353817798615406 9.859179782681862
Fe 11.11345130753357 9.366656391526655 13.420451118838416
