22
Energy = -146.27154765 eV
Fe 9.29519939369993 8.625485257618248 11.94177890874473
Fe 11.042511838108561 8.113414760812715 10.775245332986321
Fe 8.94408514831542 6.60055171106874 10.690748622505092
Fe 10.578295750856926 10.546631319781026 10.957797154068368
Fe 7.079327429532314 8.507355071242104 10.990288872861736
Fe 11.04651560939808 6.749428366051097 8.963907267139634
Fe 8.230856841617268 10.58371628203659 11.999019452288433
Fe 9.20410239996595 8.13545705518817 9.020515644305737
Fe 11.283248484575887 9.362439035389103 8.58360881801811
Fe 7.008896822807898 7.068733126286971 9.136704206343987
Fe 8.818803405830362 6.0139735038351825 8.202846134037953
Fe 6.576117557791119 10.936057703223 10.325940720076979
Fe 8.644558206627979 9.98254403220279 9.728361647531083
Fe 8.64663592993853 12.21834238911615 10.354507039407174
Fe 10.180609708245088 7.602144739645149 6.910413040029587
Fe 6.533214662340523 9.271122143979566 8.650454723391002
Fe 7.782923244470446 7.9329606426665675 7.027214284003801
Fe 10.064177192926984 11.595290921632692 8.626286697433052
Fe 11.706282851308702 9.287831078238055 6.103283874742021
Fe 9.424817589727919 9.937352255716231 7.067145613679731
Fe 7.668653487869852 11.499586917703173 8.199285171087604
Fe 11.670580290422347 11.09249844895414 6.824055323630542
