25
Energy = -170.85488028 eV
Fe 11.682401636038325 10.680237712405939 12.481761285303634
Fe 9.580619749798391 9.518621443114792 11.999412475534092
Fe 12.399285596774584 11.971742116135239 10.98165899149306
Fe 9.87124023449324 11.803646775949227 11.178745015894373
Fe 7.711291992872259 10.946367337987956 11.63634403858363
Fe 7.619873262082125 8.510987735560763 10.87664317507593
Fe 9.908877209592145 7.588685710193587 10.6046930023223
Fe 11.3459472811421 9.783794018659052 10.240437569703841
Fe 7.956946259985146 6.235796353115238 10.127833458363202
Fe 9.023769957093076 9.981994250048784 9.600276271334408
Fe 10.842317311976965 11.810488673621824 9.079388959100156
Fe 6.54492415726959 10.508374703918845 9.704669416910432
Fe 11.427763899914051 7.655269451172178 8.901381876036742
Fe 8.23575321104263 12.224681757453371 9.387043475767747
Fe 10.516495012848356 9.65441017250172 7.780162337676278
Fe 9.717870203920098 5.869666398386474 8.530842402289142
Fe 9.33533970173709 11.654876354911739 7.340601157551602
Fe 8.778113188176825 7.933671771978007 8.347222086511819
Fe 6.448499806187129 8.08663120118886 8.860666927577473
Fe 10.74214644317671 7.456943068246247 6.676099616021897
Fe 7.132735419684982 5.94957682586604 7.9890853163025115
Fe 7.6878802767721455 10.066027498252781 7.651286456028671
Fe 9.028397927979325 8.96705617712087 6.000859358718621
Fe 8.691871307883412 6.412284034578097 6.305888281977329
Fe 6.932353231316515 7.94716785805797 6.52541168968898
