22
Energy = -147.27354332 eV
Fe 7.940941125716478 6.054824243657245 10.512722240850534
Fe 7.6365610120328 12.367332017205168 8.20782221491581
Fe 8.265350487600523 10.540270829832238 9.45241032043315
Fe 7.521702467841851 12.420811069836203 10.728457092091482
Fe 7.570409304568518 10.137203126328865 11.779667841247386
Fe 9.948670841651019 7.045328837060528 10.011418783391706
Fe 11.670427156112849 12.397099294015117 8.276256109459512
Fe 9.52256163977133 11.800180407219232 11.734599659660898
Fe 11.889591433356228 10.006876946714572 7.734070253821399
Fe 9.825348599735788 8.943566944201418 8.526326028471784
Fe 11.6719731880252 7.598978295924731 8.057209102865528
Fe 11.61296372116056 10.438050754352078 11.918501473220587
Fe 13.67741359164552 8.915249258555896 8.68677526137401
Fe 8.360762833250682 7.684002372103201 12.12442901203073
Fe 12.984238922685565 10.869085586522083 9.880723712938984
Fe 9.426701627408303 9.890768161164473 13.165624835908819
Fe 11.880509841391198 8.723672369754594 10.13539334789923
Fe 9.413263787913591 12.996698206892498 9.465728458299207
Fe 10.671156582989875 10.984129300131414 9.722963156904232
Fe 9.700499976532134 9.227935655173066 11.017931489305559
Fe 9.675610653581057 11.29247662535187 7.545278995791261
Fe 7.728201749492371 8.260320242467088 9.910551153581487
