24
Energy = -162.64695646 eV
Fe 6.544084399423116 10.187402385725786 8.911432236189146
Fe 8.311847561491469 6.798445117606309 8.5200570371124
Fe 10.557187255969625 12.570715722082817 8.290588199896863
Fe 10.433927006513276 9.810265325643764 10.261998814984285
Fe 8.621886927934368 9.152023511853722 8.89761240695928
Fe 12.907551209613418 8.735494254870794 9.655671492190157
Fe 8.060877268634657 10.656298809625884 7.056238964637783
Fe 7.962913365066382 10.245181432372316 10.923347718943994
Fe 12.312587377053243 9.262983472522716 7.52084132560616
Fe 9.894353602440926 10.96736456167818 12.417584538004576
Fe 10.333036372990755 10.298833577191022 7.666135507573854
Fe 11.492888145781347 7.464585006183617 10.874678162180158
Fe 10.637054071908834 7.856248547371638 8.61852215968359
Fe 8.425228348991256 8.958493229860977 12.68327072647493
Fe 6.871452853721514 8.09608116512374 10.09481868167258
Fe 6.919976019642199 8.316964866343843 7.40986107298557
Fe 8.474436395724036 12.470038970280324 11.285466796636928
Fe 10.695336349270741 8.659273904461191 12.665161086818461
Fe 10.746220505857568 12.321724648624222 10.671212692327405
Fe 8.760473723030076 11.540226724498678 9.212244620188958
Fe 12.26575728019094 10.120586055754645 11.50965335800836
Fe 9.142915201837724 8.413919046380716 6.631548499555903
Fe 12.233591995773157 11.089390158816933 9.147719850457923
Fe 9.11538034877979 7.728423092766056 10.795297638550613
