25
Energy = -171.11138883 eV
Fe 10.204738530814105 9.81045508552557 6.757415203344496
Fe 8.065940041612377 8.69292507760522 6.617506589870629
Fe 10.091910974559271 7.494976080611169 7.027640421920697
Fe 12.285889693531814 10.843127614008445 7.527780612709668
Fe 10.17519500874434 11.257878771774477 8.536510849731501
Fe 6.783862888882906 9.098179860833813 8.650966936756664
Fe 8.032873479345236 10.869355045343386 7.603383341375296
Fe 10.688874799755789 6.727176027731101 9.098007215376853
Fe 11.5934745700171 9.083378301664574 8.889546328089759
Fe 9.200647635436637 8.887969760228073 8.993756158640396
Fe 8.103620555994986 6.961998912655597 8.372361677285081
Fe 12.252671095892753 11.385866635289588 9.85186006038989
Fe 8.421393698063305 12.90773613132803 9.076954199024572
Fe 10.547306674152127 13.0034414421155 10.098684719969565
Fe 7.925689166346585 10.884196226851362 10.027930046898637
Fe 12.619522380086627 9.639925421627936 11.287545479412978
Fe 7.722712326999788 8.700910444905297 10.889284632521667
Fe 8.909010315086954 6.72418387925679 10.601551818056862
Fe 10.165497661435001 10.230597669190333 10.79784492209228
Fe 11.09572300449757 11.805049317432244 12.161969133864277
Fe 8.777112650733196 12.548812808913272 11.559003800730329
Fe 11.020879270408264 7.953715402978352 11.061788569438967
Fe 11.086206791089019 9.633701445975339 13.087761320720913
Fe 8.700992033615524 10.449886531110963 12.60186768627999
Fe 9.304485967177634 8.180787319322052 12.597309489776507
