25
Energy = -169.25254999 eV
Fe 9.200594623785726 11.433317645758038 11.425405983321989
Fe 11.195621086545236 8.089896172459627 11.95299050610915
Fe 7.538849757908066 12.37295338614772 10.037564730735394
Fe 7.811750788900614 9.83767926235425 10.214670981395573
Fe 9.460508194674922 11.469247441774726 8.912535613251077
Fe 9.79121784697614 6.68288410601573 8.178012875590403
Fe 7.462619248446936 10.727169255119176 8.147105445073263
Fe 11.417819352337427 7.784378119003536 9.403227546978613
Fe 11.235598702708145 8.181288493558858 7.048745799248953
Fe 11.457193729015863 10.244812656534368 8.301427412781942
Fe 11.402410407826302 10.513732392294825 12.475366040979663
Fe 13.417244325508431 11.320465041415462 9.072844788553041
Fe 9.259042451923525 9.001059139355728 8.234955854405808
Fe 9.810272553839011 13.50162834759174 10.240562686481976
Fe 9.38866423356806 11.279393957832232 13.714260657300102
Fe 10.770626445181655 12.945917018692787 12.556427285152713
Fe 10.55458104316988 9.116408520297178 14.07865008067504
Fe 11.55871306312331 11.790568136689169 10.453258619380906
Fe 8.46677100740693 13.334353929163754 12.352445802225168
Fe 8.988153054091018 9.172413697246684 12.424894951299397
Fe 11.460664632787633 12.733348940478276 8.371993552084
Fe 13.3013326607161 8.796686330793722 8.315636220932435
Fe 9.106757727595461 7.6394119378224135 10.320790961830228
Fe 10.330748408063796 9.64855414827057 10.411957309050134
Fe 12.790959429999866 9.561146699429479 10.532983071263224
