25
Energy = -167.7690248 eV
Fe 7.171205981255526 8.702804174881738 7.339646029980622
Fe 6.420485088380899 8.440457317116634 9.914853792797654
Fe 7.3471530891145225 6.543577140202539 6.28159561583696
Fe 7.675413618092386 11.007671938401362 8.298962468964891
Fe 7.404457059688153 6.53411509849333 8.617788251084413
Fe 8.346293139664898 12.72247858863129 9.831106791646809
Fe 9.474499464280811 10.113398021053097 7.206822245038147
Fe 7.204240181366269 10.672478283686594 10.521823098130357
Fe 8.546673069118548 8.748080088055655 9.212756792549978
Fe 8.961599246478766 5.283238432139475 7.458845572492451
Fe 9.333620217717023 7.584900963272495 7.046679498095236
Fe 8.114963698969984 7.02705073411693 10.9495630308162
Fe 12.30042816535486 9.569002064430423 10.200068512560403
Fe 10.948951118966948 10.667413376338306 11.90422950678649
Fe 12.127405305694355 7.091501566600216 9.747077776661877
Fe 11.99668262308836 11.834419136183204 9.923750552587988
Fe 10.359309188313944 8.327330687932996 10.92884521973737
Fe 10.427719371962603 13.268476419078818 10.91468388973759
Fe 11.759819017965473 10.63740342606439 7.923674776603698
Fe 8.836343774132757 11.725885136312241 11.919938152401853
Fe 9.859139991877626 10.655792374699839 9.849936315423532
Fe 9.81415790235018 6.541730873821867 9.29712237478265
Fe 10.929166843398976 8.599172897219313 8.550607628391905
Fe 8.494344340096907 9.277147999437581 11.83452129041065
Fe 10.066406654522803 12.344951413681938 8.245578968334845
