23
Energy = -153.07100739 eV
Fe 13.389781850229427 7.941011054590803 10.244740487393901
Fe 7.723484281562159 11.115818276707392 10.553032113989637
Fe 9.91728334726174 8.551053260315264 8.196553038867547
Fe 9.74188699173687 9.665775590503799 11.43778374157622
Fe 8.203781374316819 8.993697070465803 9.7622966524769
Fe 10.403187023986858 10.567236776715374 7.098633333608854
Fe 12.210889468428933 9.128056288553651 12.07929863745617
Fe 13.801473827596531 10.137680603811711 10.511223586821007
Fe 10.913262579440529 12.640572099571491 8.436290551620834
Fe 11.385909921499227 8.873710218920694 9.86088087471405
Fe 13.256438974357616 11.351124830697072 12.560644636500037
Fe 8.552647531219677 11.058640260797535 12.903182757309784
Fe 10.069025791112889 9.258705042388572 13.816366827581474
Fe 8.113640945052527 10.641971450867231 8.005485065176622
Fe 10.160988023832791 11.316543621794438 14.887270049389134
Fe 9.607722365521083 12.323753832698753 11.179612950157773
Fe 8.672862027493192 12.883937341559992 8.930706751903893
Fe 9.944473274834639 10.731716284336498 9.3317002893131
Fe 11.770233502000362 11.352317500551687 10.61415124705453
Fe 12.32687246740555 10.035440885128907 14.316308710048341
Fe 12.37176259568326 10.378651596491059 8.455667052241765
Fe 9.295678198458099 12.60496274785735 6.779734242946391
Fe 10.969343274329411 11.250253002035702 12.841066039212366
