21
Energy = -142.1170152 eV
Fe 8.845558942657046 10.43670389697082 6.38361852891165
Fe 8.929835612756024 8.005447464503929 7.07499469990313
Fe 10.85549756258085 9.39910544340385 6.607039135167353
Fe 7.043009770264656 9.378546722535315 7.453347887595342
Fe 10.149742551417772 11.645613655259686 7.874394121918758
Fe 7.664095011963782 11.549511273605509 8.156563530414463
Fe 12.081524965492447 10.345738126667452 8.296756642200682
Fe 9.241938173742984 6.696033187681419 8.992434728168877
Fe 11.26012260587866 7.785694251353686 8.262527888365605
Fe 9.539587310000758 9.51604886553103 9.077976451796582
Fe 7.403303523120848 6.244911839824178 10.917412269958936
Fe 8.90758878668998 12.166116694764732 9.946289354226012
Fe 7.267212978097158 7.85451440412349 9.076502836162371
Fe 7.230314257322821 10.090737087828176 9.929470984393777
Fe 8.65617877542234 8.267478233211527 11.071823218752575
Fe 11.017048871233172 11.19849545532935 10.28004079255802
Fe 10.682334192368693 7.268549283774404 10.692099015381086
Fe 12.24302958377314 8.940351296294187 10.068022946747933
Fe 8.788185678776193 10.605301756949835 11.620361143296854
Fe 6.281083080839922 8.008723416910609 11.283301924988507
Fe 10.743516260619273 9.427086138495207 11.765730394109987
