27
Energy = -184.94656493 eV
Fe 14.70313364807821 11.717629652816601 14.664947881632628
Fe 14.852587083358541 10.965772783448925 12.604247295478912
Fe 13.839001498356753 12.50244721427873 11.244323555895502
Fe 12.983552092545217 12.515327024297644 13.38593817990445
Fe 14.204613136866339 10.580628189647276 9.876479475231923
Fe 12.79084620144552 10.06950037363909 11.740024373963042
Fe 12.169194150269218 14.14517065679198 11.946463804104374
Fe 11.751328116180364 11.689803617640196 10.181386457578823
Fe 12.79226625419573 10.218241057047775 14.201261655825162
Fe 10.610042699188352 13.689655684667692 13.760749059875232
Fe 11.694668415933425 12.079670687799814 15.244569178959726
Fe 10.951496361879137 11.512250476190635 12.643745360325513
Fe 12.769508531662055 10.448239422621807 7.928290253549124
Fe 10.091364030830732 13.646575610930324 11.26985020623806
Fe 12.24020289390017 9.025520880616554 9.702461327561098
Fe 9.289520921774683 12.004070094922747 14.747371894252822
Fe 13.777664163425483 12.545998854706353 8.719930112608676
Fe 8.507369971630194 12.434213227519633 12.609086078812632
Fe 10.44463756818732 9.991653988859262 14.86496109562838
Fe 11.269607982835398 8.80190711151367 13.012453161691075
Fe 12.039267837744312 13.991214750812647 9.521868822402888
Fe 9.20136639224768 11.439605026450606 10.534970081998699
Fe 10.353859460097066 9.502572990907813 10.978424134454396
Fe 8.962766082814962 10.122758782276122 12.985569939915742
Fe 10.421179797023248 10.49657524873923 8.557481872791747
Fe 9.88534513958116 13.072721366341048 8.95798708890975
Fe 11.663312256357282 12.468668857701402 7.580326436476599
