28
Energy = -191.86193417 eV
Fe 12.682982139635719 12.032942156615222 7.3934712656992145
Fe 14.753185143000756 12.114772025077139 10.551802261268632
Fe 14.459445596334328 9.694355898480664 11.080342475306015
Fe 12.700966659633087 8.655248243492466 12.782471112762515
Fe 12.207753090124234 10.373093307702803 14.47180657303125
Fe 15.47099447201441 11.608058384364512 12.623565740658394
Fe 12.949173120988178 11.150871423579998 12.16010116785945
Fe 8.970124182837683 11.762388768120376 12.369247952671197
Fe 9.843894587888759 11.855450368635589 14.601538221047786
Fe 12.843538844303392 14.349397097702166 14.48306186649877
Fe 10.79599653382129 11.348056169306975 10.92536843793073
Fe 10.649066950359746 10.03393300124665 12.811460477515325
Fe 11.717147557966705 14.328354857740866 7.529346663987767
Fe 13.4853792171427 13.595910941766011 8.841960666730948
Fe 13.97511141128897 13.583629225571004 12.53005819908011
Fe 12.892651590704538 11.14311217574041 9.582054503493096
Fe 14.523234214897785 9.752187741358764 13.531932203698045
Fe 11.9843294214323 9.258244659759736 10.684536679242964
Fe 12.457684926249092 13.19381768695052 10.889356953747692
Fe 10.570869142021765 14.234976281748613 14.961237688349286
Fe 11.486575329332295 14.798058080816105 12.537977805964264
Fe 11.518854825257769 14.986503630496435 9.791722081740591
Fe 11.838968620238235 12.402816983025154 15.742107733029574
Fe 11.398544682046134 12.572620559832064 13.142556809742516
Fe 13.784972205428206 12.09258504337798 14.343680730657736
Fe 9.95574442266462 13.547140406696716 10.94086759583554
Fe 9.248920318190814 13.9889720911018 13.172640100717183
Fe 10.942953214603062 12.648333158235085 8.881383034769994
