21
Energy = -139.23131456 eV
Fe 7.275538810480825 10.724742628902835 10.616732463404414
Fe 10.678909239209915 7.084107464142104 9.432705461602342
Fe 11.17092383707866 7.5895882990855545 7.120198216354242
Fe 10.319741869348377 13.259060774613753 9.486062376403648
Fe 9.035631445505482 8.192875177807922 8.146103646538355
Fe 10.780890031514753 9.790587477711922 7.444764029086017
Fe 12.520058436098298 8.824836445992716 8.585011375544722
Fe 11.729551299357128 11.366661196302118 9.07808352834726
Fe 10.650448843398829 9.274050584285245 9.79027467303163
Fe 10.233233028787792 7.8166698185584655 11.794985253278933
Fe 9.950007323845897 12.178490001183244 7.502551040189699
Fe 10.995679896025278 11.528398488957754 11.29134960539878
Fe 10.739279693951833 9.686208932522021 13.412381611985172
Fe 8.387700365787566 8.491815288887578 10.344638370504159
Fe 12.035755342416776 9.350687593393278 11.554345244289845
Fe 8.542779823507361 6.321615836528223 9.533917883633707
Fe 9.29014312879148 10.063849770860477 11.765520100871456
Fe 9.222877395094942 11.71065866744535 13.292352639598668
Fe 8.718604316773458 12.454631445488676 11.099485905013369
Fe 9.15911186849511 10.879185163123093 9.25077479043922
Fe 8.001025213750866 12.849170153428304 8.895652993705138
