21
Energy = -140.82235546 eV
Fe 13.076307381828377 9.517928773915852 7.932191038052816
Fe 11.986530280582217 7.625647225223601 9.255311846358563
Fe 8.896016361336581 7.99687761298519 11.725703919623271
Fe 11.11087981248997 13.174364947081196 9.81102586769452
Fe 10.946203220101314 8.753838617718856 7.494415526518982
Fe 9.149570456624305 10.121732553027343 8.06963489452642
Fe 10.394188594542417 9.229535916772775 10.073131845248996
Fe 9.758105150280025 12.541538487536425 7.960763847322687
Fe 7.843034976652928 9.466993018846564 10.257889913329052
Fe 12.954835266105443 9.512782557274164 10.246470565023053
Fe 9.28943834501642 11.368455762778245 10.024364852918149
Fe 10.454821675750594 6.644316641114493 10.679623545290292
Fe 11.461818185888063 11.00025407624594 8.6721066646964
Fe 7.236681170875998 9.655112296261397 12.48472383744321
Fe 9.159771642927904 7.67013546977109 8.95157451421087
Fe 11.54869728457497 11.167998250387102 11.176964793103293
Fe 9.555582702605184 10.296668081628795 12.222257380256595
Fe 7.6364775743715425 11.761159319949662 11.56960386010674
Fe 9.838072734388204 12.8201412902295 11.873922006785763
Fe 11.34980475360801 8.446574903652124 11.96537413904316
Fe 8.698929572483143 13.573711340633153 9.898712285481082
