29
Energy = -199.13409982 eV
Fe 13.936606015982226 10.047388626526937 12.216168127635035
Fe 12.55085748699194 10.132666205364924 14.068090844997908
Fe 13.139051943062936 9.214719966801923 10.06013401030875
Fe 12.686535448064419 8.101928193736258 12.358912201031467
Fe 11.001780087494852 8.868722701871576 8.057791144688114
Fe 12.940380606250548 12.242483847166175 12.601672109740617
Fe 11.45497007209081 8.104264323630728 14.324452234684783
Fe 12.795189528534564 10.561680794512299 7.954133861152196
Fe 13.164357140106583 11.517003913966503 10.399416078316209
Fe 11.280583988229685 7.85844180418404 10.397522802831405
Fe 11.011419818188047 11.99561238891611 13.873157493357535
Fe 11.051889115015278 10.030731639013137 12.002160529722358
Fe 10.052766191894488 7.795411589830242 12.489929433261421
Fe 11.061785684619764 10.459805176180451 9.588870455970271
Fe 9.91792560371279 9.850785700241453 14.215589458970287
Fe 10.938804719206503 12.328047219073422 11.157591878041755
Fe 11.94594104449081 12.793923865496403 8.778415777164513
Fe 12.568138329183808 14.050019177311682 10.879301971813437
Fe 9.183545366803104 8.69798172601986 10.251662894649723
Fe 10.664025379947402 14.099508556879735 12.449359287726299
Fe 10.693385208719144 11.381267827506303 7.168930813932101
Fe 8.98388411654025 11.82801470282269 12.880517395667141
Fe 8.406401903413494 9.442529146123789 12.489878684146465
Fe 8.980499453441405 10.126499999360755 8.291474972423782
Fe 9.034684633679559 10.934456572955908 10.76417921749534
Fe 10.488600565748815 14.522091111100348 9.806208109405581
Fe 10.296086596190966 13.80820927188681 7.447255439947426
Fe 8.76112261967289 13.497439347338569 11.124192538715198
Fe 9.410353587632 12.425443816081975 9.020476403936595
