22
Energy = -147.23580299 eV
Fe 9.664534804753941 10.043652010430977 10.415332294603173
Fe 11.891931237355019 9.008318611614214 9.892098479506828
Fe 10.794518524912467 9.131463310025346 12.141073631058939
Fe 8.147374030930164 8.813442610002095 6.86161118644438
Fe 10.267234158478859 7.664474307055932 6.302821950419534
Fe 11.427020531320599 6.9290873302349665 8.412852351084013
Fe 7.449084327792271 10.969509871907206 10.329806571524047
Fe 7.839701003028716 8.737064405067963 9.390380895018112
Fe 10.020670979160538 8.914964745405442 8.318942203828737
Fe 10.925692691114564 11.14903590821167 8.428401918176162
Fe 8.322102144273687 10.401743635220837 12.457565578594812
Fe 9.742640235106293 12.336899089720395 10.212608854430762
Fe 8.70893025302191 10.977179445258757 8.22109071130662
Fe 10.095195799743411 10.102737345162684 6.254289053292238
Fe 9.904480012852401 7.51038759693723 10.24853839816884
Fe 8.427301329878297 8.16641544003391 11.925868876066687
Fe 10.38697837430087 11.553043280515098 12.359743444131874
Fe 8.120057877982433 12.714855190769072 11.897996210685195
Fe 6.453790771316745 9.193296258050562 11.26010288749525
Fe 8.879380528849806 6.818554996766749 8.101219440587219
Fe 11.92519677320864 11.205447016504493 10.710956943629052
Fe 12.0293234383611 9.081567422847545 7.27983794769095
