22
Energy = -143.93325149 eV
Fe 8.743934726225742 7.437609066345122 11.17281043923183
Fe 9.728440759620964 12.409907466174744 8.58353336132532
Fe 9.902565479153788 10.133132079699077 7.602505688893331
Fe 11.378548619636627 10.629411665418852 11.477401651336214
Fe 10.65150966701697 8.492201582008226 10.4996939236828
Fe 7.4826659319915825 11.76542143908646 10.07730985041273
Fe 9.052235110614689 8.237310323256988 8.794060357468085
Fe 9.331200105717537 7.7832843287672695 13.367800981923633
Fe 11.316517964906717 8.226735720141566 8.125125071657074
Fe 10.672057959593973 11.988796358552442 6.42487763104866
Fe 8.976523194215888 9.479464485085993 11.992110128282471
Fe 9.439319983381196 11.893939586421062 11.52357187014901
Fe 11.46248202295929 8.505145827765388 12.650719012763362
Fe 12.24839498287225 10.349880935390033 6.9011016134035295
Fe 11.36204272046899 12.613753459523274 10.151647250726558
Fe 9.31341612709367 10.384192508535104 9.785129729424817
Fe 12.749142275716334 8.69236192938412 10.067083727040615
Fe 7.259843076326601 10.929535587071983 12.19577591296916
Fe 10.326720666756529 10.188918935431673 13.64318469606097
Fe 12.255980412336633 12.458957870741797 7.990508384175762
Fe 11.5995772422006 10.437854120201735 9.099447551004996
Fe 7.253541314472882 9.468845068275966 10.381261510298389
