24
Energy = -161.43697778 eV
Fe 11.359851282386739 9.491062222063247 8.099592585649518
Fe 9.427963671671678 7.767538717421054 8.358092063302635
Fe 9.20140232096979 7.011883783800829 10.626942194528144
Fe 11.644938509697536 7.38336791842725 7.307313734057883
Fe 7.777799539901404 8.91157620048063 9.993285744176724
Fe 10.955971509859872 7.867027542264584 12.051258617647292
Fe 11.472360228354464 11.241274456272642 10.07205889859754
Fe 7.946879799510471 13.038983114182221 11.137757446287484
Fe 8.771819258557343 11.385226491992478 12.956717570372007
Fe 13.375797663737421 8.39153329466442 8.666378548775537
Fe 12.677449463507351 9.395623789029896 10.883979850447597
Fe 9.105400616899809 11.10471663337796 10.632562437873949
Fe 6.960197073635977 10.579205954631753 11.696041170136148
Fe 8.525049334646022 12.525995625721363 8.69552945760884
Fe 8.976912608657141 10.19645444543614 8.3343357212808
Fe 6.879855814185926 11.119926409625599 9.428185653024661
Fe 10.492115651626378 12.693657237625068 12.053758096151206
Fe 8.8386502647339 9.033352419742569 12.184134750099208
Fe 10.341114356636766 13.285815038379571 9.92034014306662
Fe 13.177886719586025 10.783196695521735 8.609934515741006
Fe 10.321353768398048 9.17109949842352 10.195349290584868
Fe 10.832162567890592 11.790141380449361 7.934346331929065
Fe 11.084447950706709 10.297968611487779 12.226480970311444
Fe 11.548703487170572 7.229455981905546 9.631707671277027
