26
Energy = -177.40813008 eV
Fe 11.527170364138744 10.665665193049492 9.802402739483895
Fe 13.115932375857989 8.779569141467837 9.882591289842049
Fe 11.91737688193849 9.190248884477322 11.79778957242834
Fe 9.12792629748754 11.46217631804349 9.984936854247708
Fe 12.26458540834928 9.479901268723745 7.784476276926127
Fe 11.160148613239167 11.953807052115026 11.653176166412424
Fe 10.210874470372568 10.575111089779329 7.910392242523404
Fe 10.606464881611476 12.82022143054497 8.835821321121793
Fe 10.462885331136258 8.441080415323263 9.627149929043034
Fe 9.706953784525426 13.681341083320163 10.921922438722477
Fe 11.862963487070827 6.7936235598209125 10.56439569226697
Fe 12.341441998972492 7.177029182132395 8.215569753521095
Fe 8.998978287871026 11.909551349106875 12.520429726360295
Fe 10.423706472737365 6.006165405889366 8.37411316362509
Fe 8.187620781268782 13.636155456009938 9.073977670557014
Fe 7.354544476522371 12.887364083378445 11.146118435577177
Fe 9.661680939383071 9.832937100123042 11.531358736532574
Fe 10.157467757139832 8.216925414573131 7.2824774205640335
Fe 8.349073399689336 11.900310325712592 7.568735778927011
Fe 9.545345337484006 6.0906061432556635 10.495454965386815
Fe 7.314247430184177 10.399322222578318 11.238163230779488
Fe 10.14822935712393 7.634404274599118 12.211740494358214
Fe 8.170182159045932 8.008870022934717 10.824010677274766
Fe 6.723356968622593 11.540593906183629 9.25507789549765
Fe 8.23699053860096 9.661257775812087 8.894228018760147
Fe 8.399550757783713 7.2774720730511415 8.613553817198055
