26
Energy = -178.09028253 eV
Fe 11.14377311868816 12.10032988307818 16.54768879910268
Fe 11.23748970027635 14.988067638959352 10.922580328729259
Fe 12.85545659459597 13.147702186345576 15.174387606989045
Fe 13.532548109279727 14.79332482471711 11.134765711434216
Fe 10.803153715427383 11.750860475127991 8.564255231011254
Fe 10.439568447596677 13.019529626783113 14.574921665429992
Fe 13.05316072718544 11.925422515776205 8.21319790995476
Fe 12.219925725559362 12.495163291886463 10.704182462429136
Fe 10.382781424228327 11.05823860613051 11.025154568255296
Fe 10.571171750687633 10.403532809389967 15.032135152716306
Fe 14.259873636039996 10.938772387190607 9.934671184401145
Fe 14.175366756780086 11.342459656441797 13.922604931221578
Fe 12.932649856615893 10.888598973282384 15.852869319227146
Fe 11.851365239633038 11.602853265464079 13.230299774961829
Fe 9.824477001815895 13.292535378394708 9.898533997656463
Fe 14.481012188760323 13.338437329883986 9.63549909816895
Fe 12.318955077804258 13.899002154461122 12.91944753122113
Fe 12.500915008431031 9.341767177276566 14.099939069173116
Fe 12.14907157296275 14.004983658608493 8.96912451854625
Fe 9.295583909721596 11.234805582514594 13.255282677357137
Fe 10.166243317562753 13.231895920596637 12.189622863781478
Fe 14.244129191945547 12.431859241376632 11.857392464822235
Fe 10.6897516485894 9.375493099474577 12.647958929039497
Fe 12.044764975857296 10.05496948777509 9.665370654007475
Fe 14.437126221211056 13.825463881194958 13.693722470994318
Fe 13.00804461125738 10.180274064168898 11.838379982344671
