23
Energy = -157.70689424 eV
Fe 9.843225160783808 6.72218781125905 8.199751492424138
Fe 7.458659997928558 6.204645758463431 8.706648436501448
Fe 8.919813748200287 6.109920203502049 10.5148231827658
Fe 8.081583738634622 7.923253185338248 7.172398473460843
Fe 10.259140961942817 8.110981731654281 6.189018379528479
Fe 11.93822544677681 8.188268646879655 7.805475006303355
Fe 8.341520198733564 8.397901557488712 9.71416053362897
Fe 10.798769276551345 7.747224146380195 10.018470453663229
Fe 6.0415035807836155 8.064704415762977 8.815984006758145
Fe 6.854141593453567 7.460258252033269 11.047337765228916
Fe 9.042473761989168 10.109333709059957 6.095342733507954
Fe 9.852932628283599 9.430904280598117 8.347683387739684
Fe 11.274877829271098 10.496251903268934 7.046496702485417
Fe 7.345424729212094 9.987145104714976 7.913332161561504
Fe 9.36767352120121 7.802256434263412 12.016672210411842
Fe 12.160354762767001 9.740153238896104 9.498826728789753
Fe 6.259828925842881 10.010793365261195 10.146229659681289
Fe 8.961919264289515 11.85891062856807 7.6813050539959855
Fe 10.255760907430652 9.815004252463586 10.995648552521011
Fe 7.820143019589831 9.553963935769655 11.867674033759911
Fe 10.78519124609433 11.604202218004346 9.173161713900384
Fe 6.836474861391382 12.020185810092311 8.86489489098908
Fe 8.546156356148428 10.935098731861219 9.9479001956141
