25
Energy = -169.95804717 eV
Fe 11.881282934872665 10.245889827160902 7.929859792403282
Fe 10.163797478996521 12.056833184813561 7.3734436602020414
Fe 11.389820037398632 11.940181050279378 9.562112154344087
Fe 11.665768825487314 9.527236880386035 10.312181355643691
Fe 10.510220374651437 8.214606710067203 8.339017765833345
Fe 11.058022720007704 6.965298218681829 10.497134590416442
Fe 9.56653819796466 9.756581433852546 6.607902714917083
Fe 12.672632842472623 7.913745305181071 8.983517917301157
Fe 9.384966609631165 8.707782295994969 10.626620463693039
Fe 9.757959961024728 11.119993553357 11.189917066221764
Fe 9.75342067498806 10.361559829615059 8.955952363811402
Fe 8.845809206982109 12.526194984663839 9.314428586643057
Fe 6.830427510655408 6.910439227755188 7.9401841424234565
Fe 5.979708530441184 9.363849943049035 8.459051601153076
Fe 5.585241355514104 9.648127660546292 10.860355685934225
Fe 6.933674153710245 7.848250234264275 10.306507864402278
Fe 8.992453378537531 7.139899690454501 6.801337551667676
Fe 8.853795812214123 6.524005988708075 9.322311191186667
Fe 7.325915813834615 8.85400848780093 6.277664846880825
Fe 10.942159352429039 5.986185192161825 8.337814784032767
Fe 8.671157909721977 6.815822343003656 11.688169889255693
Fe 7.709799739749091 9.281192407284143 12.123934842286248
Fe 8.194793759697165 8.729542566609016 8.468082068718328
Fe 7.569521645754326 10.506407546866468 10.087243513221498
Fe 7.755207966616395 11.05046223079571 7.62935038075987
