27
Energy = -182.49247446 eV
Fe 13.466811153601046 10.802682749610453 7.798255320100007
Fe 10.05665295904303 14.172367081434214 12.269622238069624
Fe 15.032513451121783 10.609760590800938 9.523365917686021
Fe 10.713730056212833 11.87490143475661 11.535537889709648
Fe 12.783005188191794 11.640780090085581 14.977107733876437
Fe 9.173295162934313 13.54349101368513 14.511295037049925
Fe 9.08831884448322 11.713145808656298 13.068691694000425
Fe 14.930266475663004 11.277544457116747 13.399954721066434
Fe 13.293985529058725 8.962874737258861 9.52030699243096
Fe 11.468083340254704 9.701529700239783 8.409895442691733
Fe 9.98271102988504 11.12558178701344 9.504337230224806
Fe 11.518473751037032 9.639961326157657 11.110293811535227
Fe 10.68748421789018 13.454098057147796 9.72307516987069
Fe 13.007281266814939 14.177285506102026 15.229405528470293
Fe 13.922600601291636 13.405664867571424 13.259602014480762
Fe 11.12225666395375 13.203026017369407 16.130720015699065
Fe 12.397697302603602 13.528477463622844 11.27838684581123
Fe 10.80476146752549 15.18023643924934 14.720827595023962
Fe 12.288187320692757 15.193724457486024 13.004672023353924
Fe 14.578955364045525 12.263774390879147 11.151417743251349
Fe 11.45778041194041 12.13703891242272 7.921587033112204
Fe 10.089837106580568 11.367735176323688 15.284855259676366
Fe 14.195338866165494 9.73989936557408 11.519563615710895
Fe 12.647606334682173 11.469090391137634 9.923569007483637
Fe 11.05076297010879 10.32133313667125 13.508433084746715
Fe 12.840566743624347 11.294950444204366 12.474855698140502
Fe 11.409949339330874 12.940872031926723 13.632124398005972
