20
Energy = -132.78855658 eV
Fe 7.175801667762237 10.864812884392611 8.612178293168675
Fe 11.288045098677546 8.343736357753365 9.002186863885603
Fe 9.246297760300104 7.607213160629042 10.367058050815256
Fe 7.62250026879021 9.432183406591847 10.609286819111187
Fe 11.867775899146311 11.823222243438744 7.22220196423199
Fe 10.199765453814289 9.643772887532469 10.905389297957457
Fe 9.086300973800753 11.573686267634198 10.172302981043345
Fe 11.170802566339582 10.957011329213197 9.195456776558723
Fe 11.011948918442608 6.149319956399032 9.834004642984288
Fe 6.8739531498624675 11.655063097779296 10.952598670865747
Fe 10.831787241733258 9.731280820112985 6.959997169382188
Fe 10.689732602573219 9.388067570945317 13.047820840053163
Fe 8.664551628236147 10.80976241696352 12.471746586942787
Fe 8.662608015531854 8.430091451571364 12.552536842351461
Fe 9.375074458768152 11.677866876100207 7.725578212662364
Fe 11.523312317087965 7.642358321854734 11.461261688960043
Fe 9.116770952430794 9.414535008111821 8.664074366392049
Fe 12.95633465918557 9.806220181879524 8.155795044687538
Fe 7.725195913363845 13.060903298129263 9.13029752378715
Fe 12.59548387917785 9.672935887991674 10.642270789183614
