21
Energy = -139.93110921 eV
Fe 6.625850945204905 8.085527985044704 9.441842734728462
Fe 6.8985006224592 10.283048202161662 10.339645893510445
Fe 7.138075719333386 8.114135529893478 11.669922158938824
Fe 8.430173345601183 11.97267082866918 11.50636790743078
Fe 8.705619464432901 9.61460625317553 8.811519971260392
Fe 8.08590352008494 7.527681140881676 7.724780443375717
Fe 7.976283267809234 12.126989112331836 9.26967674482137
Fe 7.2570164419084255 10.261167593516422 12.601179200368147
Fe 9.494420297436184 9.240202954604381 6.520990271514565
Fe 9.418808149137504 11.554380052002937 7.535374030214431
Fe 9.44525731686243 5.764813657739182 8.604660541471715
Fe 8.933931042943762 7.4528598981165075 10.096589592015823
Fe 9.101748014664148 9.598487330449682 11.28137904023342
Fe 11.198730769941102 9.97968892717081 7.889138026117027
Fe 11.59041559063314 12.228239964998915 8.290420879316878
Fe 10.221961515609742 11.316403862677456 9.91146647175524
Fe 10.463282295796837 7.75707701892718 7.993366029113607
Fe 10.913061387006024 8.946025755214752 10.140129866119665
Fe 11.222176541401096 6.652667163982853 9.96869955323143
Fe 12.526125006881234 10.577389220603969 9.782685939330367
Fe 12.686503015421707 8.290934716646989 8.7098940699664
