25
Energy = -169.70341416 eV
Fe 10.17565713699554 11.846074951036698 12.942763596830346
Fe 7.970989154183168 11.569945485306928 12.076062029012533
Fe 10.556500285931662 12.27193495264916 10.57569381548731
Fe 11.660888459223756 10.320884124355503 12.029503611280369
Fe 11.47957616868221 9.977272149981111 9.690897460128843
Fe 8.041012198290616 12.179012413322603 9.773443140741534
Fe 11.05337261941094 7.953931251690924 10.761672294975057
Fe 9.46275996454899 10.209562158784939 10.986992075113637
Fe 12.877410105131295 11.771801704207482 10.39980121281044
Fe 7.34182336610558 9.348545482638041 12.41875249051155
Fe 9.600684626412226 9.574978027621476 13.222669471356411
Fe 11.863832820766914 12.028359781296544 8.326960596170458
Fe 9.909093426744557 7.545121559036301 6.9820730731851945
Fe 7.577304393260557 8.126215553765617 7.678727210916411
Fe 9.034332607890429 9.750250542648994 6.4579937340695714
Fe 11.770278685786835 7.8249628353089316 8.457142941808172
Fe 11.243024124181103 9.762733443697853 7.2414503633461
Fe 7.370263905841682 10.556143708536998 7.855686486601861
Fe 9.553745918500177 6.585635691377466 9.300992825757389
Fe 9.36796650334262 8.838283669006447 8.927855950841831
Fe 13.292464037110832 10.172616044155093 8.385724012470332
Fe 7.315532465942876 7.340181859768171 9.865176443097667
Fe 8.856534260373781 7.868794993445326 11.440432011270467
Fe 9.620077104340968 11.165596961623974 8.511794715062797
Fe 7.363033693045882 9.769318686782327 10.047896469198779
