29
Energy = -197.89536906 eV
Fe 12.2746802934693 12.192520598155403 12.408042462582962
Fe 11.865935053392485 13.77719473602402 10.631837369520573
Fe 10.627953642209317 11.21894146353649 13.610576632741546
Fe 12.998696359368585 11.313041032018866 10.36456156441211
Fe 10.01231131019472 13.260416493565709 12.259172618346744
Fe 12.019291580657331 12.653266668671613 8.564704166974058
Fe 11.395128465930737 9.890435569548327 11.585230509918997
Fe 9.766439200543703 13.759372322093288 9.438693372345998
Fe 10.302824395602443 8.861235751639834 13.325376843679676
Fe 10.52232460677857 11.828259287074388 10.496157485861728
Fe 12.774164853451934 8.513650717253718 10.13491373314242
Fe 8.928567117732829 10.666925765671998 12.107458278739117
Fe 11.535719064177083 10.226437882220422 8.844867222745505
Fe 11.357441309470067 7.345696871849908 11.683635220545192
Fe 11.664116077880989 8.022919235362272 7.7796085103631745
Fe 6.953480422613911 10.215879649416461 10.629660787850947
Fe 10.287021643456464 8.380568842358898 9.727567054311747
Fe 9.91908982949036 11.8183656828677 7.989700947260585
Fe 11.72932630040705 6.369181594582425 9.445514424142992
Fe 8.218143374036378 12.517026734889681 10.808140045998881
Fe 8.934257196118113 10.372823663247017 9.576016884122422
Fe 9.512321305223146 6.302927561256125 10.389294719558274
Fe 7.607159002691658 12.088636335270136 8.603926212458674
Fe 9.511947240985393 9.373040323302469 7.584518186212329
Fe 8.757741566503713 8.625687032246576 11.501281887925003
Fe 9.630209698204345 6.766045902440777 8.003260563888286
Fe 7.845889596520948 8.001369417055935 9.322540401963668
Fe 7.1326938586508595 9.847878872984527 8.144855230458026
Fe 7.698850467604931 7.837021944085274 7.052691594216202
