21
Energy = -141.17690795 eV
Fe 9.994642905871878 7.826338270291283 6.593854020127545
Fe 8.344346120153329 10.021105002749279 6.190841555803787
Fe 10.757615048802386 9.93575508030526 6.554948069538522
Fe 7.772532334567807 7.752804270008099 7.218971667707088
Fe 9.541367782047345 11.81356409237766 7.234791063911574
Fe 6.540217422353162 9.62405469708031 8.026895043373337
Fe 11.285276924849255 8.703938879015078 8.567285523929405
Fe 9.540714332713181 7.142864151585572 8.87357001838277
Fe 7.509589922183524 11.716224114303152 8.157385746932306
Fe 9.024902408484087 9.59243702047582 8.252374693973103
Fe 7.52062758466169 10.396606764989793 10.18279098543358
Fe 9.798899127130465 9.189892177735235 10.406995654390826
Fe 9.532951556321867 11.500247868183841 9.634476788854252
Fe 7.577612312868478 8.082062772990284 9.743851869161107
Fe 11.342784284064363 7.0805580431201145 10.485921688834956
Fe 12.26817008449387 9.10254662902697 10.745736259983353
Fe 11.08741436047704 11.008514407612536 11.418425186308099
Fe 8.043175450953536 8.894807318795937 12.105829871023714
Fe 8.936306976891789 11.023074734371402 12.041415142229338
Fe 9.209815738670743 6.96361892701475 11.339673811974931
Fe 10.590549046536463 8.848496503064299 12.443477063222517
