20
Energy = -134.24297613 eV
Fe 9.463024166535048 9.753109517361274 6.879407428711633
Fe 12.605684854129878 8.528601986959472 9.282184694920405
Fe 7.933222276338068 8.187134597030562 7.94886963408544
Fe 8.736677374456153 10.132075931846838 9.128799839611585
Fe 10.378047383637256 8.147511617010402 8.327084826305242
Fe 11.30407731584293 10.455742881729162 8.561576241995352
Fe 9.745802812014807 11.955547429763287 7.867864354701443
Fe 11.406890664576345 12.760399795981641 9.534998487636509
Fe 6.879688524159451 8.913709639702189 10.051587440114302
Fe 8.693713866251237 12.940078954206749 9.67204992823411
Fe 8.81304567217354 7.578073376390197 10.121939000764042
Fe 9.88543971396616 11.422966599414705 10.730503548903897
Fe 11.153661390667832 6.787923162466535 10.172469215984774
Fe 12.46892814212508 10.792560593270672 10.665619510607529
Fe 11.487819054315858 12.466391173957366 11.961595711685293
Fe 7.311210376240781 11.238505338145698 10.623295332095042
Fe 10.760766291567295 9.138935055441275 10.58000173192683
Fe 10.89819751963243 10.207614391142295 12.606698988045933
Fe 8.575965347770246 9.538167799837904 11.72079427732735
Fe 10.090319962510282 7.647132867252911 12.154842515254284
