23
Energy = -147.58765666 eV
Fe 8.701656042317682 14.174231084429874 11.907774428848452
Fe 15.303340981489633 9.651083138076276 10.27342974832434
Fe 10.901508558605252 11.88656751112128 14.567238826847943
Fe 9.866123487945849 12.123798201730514 12.416737735005368
Fe 15.285559043255606 12.10526332414939 10.975807912924237
Fe 8.047102647030588 10.025707820878202 9.92258628302884
Fe 10.745199158568443 13.738063584139896 10.930386046972126
Fe 11.632976614695766 11.304600567212232 10.767730561799338
Fe 13.565445169558481 5.903400414608042 13.474133958696644
Fe 13.26241235521573 13.398684929914104 10.527448407288064
Fe 13.724408725843347 11.287699086015953 9.477426861282005
Fe 12.401839249913085 14.949422640899579 12.132274172027564
Fe 12.351343265904644 12.60162289985714 12.699410623661558
Fe 10.587512394190226 14.104577178741588 13.46222641470255
Fe 7.787868120150835 11.58723394862419 11.633757963302108
Fe 13.804935058728732 5.144012500653091 11.660197189750564
Fe 9.83367716083114 9.772897758876676 11.357346494895202
Fe 11.526257107322655 10.275665417461411 13.017328015007438
Fe 13.739813512623913 10.735909062826405 11.774136215530891
Fe 9.370808329173709 11.998667852062505 9.927220857109164
Fe 11.655465688668802 12.833427961115461 8.927584447655871
Fe 9.104390866341754 10.350402693415544 13.573099202108367
Fe 11.950840576008861 15.19754453757537 9.745201747616745
