22
Energy = -144.35328581 eV
Fe 11.623419839335405 7.600837092292827 10.15055215540741
Fe 12.336666861438092 11.374764622783214 11.169960158497496
Fe 11.539503031457663 12.276372605319498 8.982497938992294
Fe 11.566437898683272 10.074335608714584 6.964464425691666
Fe 9.481280884887237 7.2984252449089295 11.049210510895875
Fe 7.975135367090736 10.825477613084002 9.671577917357217
Fe 8.569821890807047 9.488976891186338 11.598855605449433
Fe 7.101858522437436 7.759626441185947 11.678902812609898
Fe 7.616493921457199 9.73482010779901 7.666391690854967
Fe 9.7339406833623 11.102153662725023 8.016185023838137
Fe 7.808217084505979 11.736270055210634 11.671179937145189
Fe 6.320473582785895 9.82356673459153 10.958249557870584
Fe 11.045443810183828 9.275957425783803 11.65581176192208
Fe 7.679568891570767 7.183298747689914 7.440216557097627
Fe 12.085070742947016 10.013658035033313 9.355494676903692
Fe 9.91277273444547 9.178329381412276 9.373315182678134
Fe 9.732736839388448 6.7594338631210835 8.693465950157746
Fe 10.119308360047796 11.273710184597197 10.734446311871297
Fe 11.792826088871807 8.091510628736646 7.759418937675627
Fe 9.485323781952205 8.546104894683733 7.0818154285262125
Fe 9.210896907069856 12.888187645092392 9.375789158069646
Fe 7.759137992210868 8.190518230985102 9.448534017424093
