22
Energy = -146.50322076 eV
Fe 8.516129846873309 7.64790555101108 10.753699841619573
Fe 11.006357821140703 9.887673243138874 13.168633488496038
Fe 8.965364972992102 8.803069706500613 12.811541816278073
Fe 10.733134541771204 8.548854074947727 11.240281733527206
Fe 10.473675443897962 7.183659166637664 9.206694091743532
Fe 8.309617507645749 6.441672028649916 8.827001417405254
Fe 10.063197705432984 5.790670095897606 7.235863363429373
Fe 11.874068270851309 9.234832113379706 9.051959588142378
Fe 12.009525214941412 10.543003433195624 11.114178474561104
Fe 7.607545026194294 9.841188603842818 11.164708365321626
Fe 9.669836596267478 10.930022013188593 11.559886092580141
Fe 11.338837934072536 7.912880420509357 7.204427285214482
Fe 9.257459909066837 9.493840166948063 9.402238362709216
Fe 8.49755219638591 11.91883400271605 9.61813004632257
Fe 8.961687888838524 7.988743258338973 7.210400971656261
Fe 7.0735296106953784 8.47244555835725 8.859220996752239
Fe 6.528579337237853 10.72676773033446 9.193909755764903
Fe 10.86745404311856 11.495394243259003 9.258460687920008
Fe 10.487038520301764 10.10751077950642 7.186182622988574
Fe 7.307024320891282 12.448031977417497 7.657457716331868
Fe 8.097984644488317 10.30470549752062 7.384355006515366
Fe 9.595180610056719 12.346198490848638 7.442016525468955
