28
Energy = -191.56964464 eV
Fe 10.139496887090285 14.213218619071213 9.802935384915138
Fe 12.249075310077568 13.140762830521647 10.12265541094791
Fe 11.474416777911443 13.329778089937124 7.817622523979798
Fe 10.858650146152852 12.672246578810014 11.91225669628249
Fe 9.28651779512518 13.335112831797332 7.373640931526802
Fe 8.640704685367467 13.009375208829105 11.501762774388073
Fe 7.919414216296323 13.43285286290591 9.212194319876083
Fe 10.020211045214745 11.871380556357384 9.481907288921365
Fe 12.532104552684983 11.395406592728037 8.478601991799453
Fe 11.863817543324446 10.775869945218327 10.735139840787088
Fe 10.315678176191405 11.045469624033025 7.266054556677659
Fe 9.493196547931399 10.654806270579833 11.608577615483963
Fe 8.00403133540413 11.337242268103969 7.856627686187471
Fe 7.522692486701954 11.303050548539478 10.28749646076251
Fe 11.302464359087528 9.506018044538326 8.850993128678937
Fe 8.893874923914892 9.687431864377626 9.299400205206313
Fe 11.40387623810285 10.059546622135784 12.874058341284513
Fe 7.839020022739647 8.934266102616483 11.509078431200967
Fe 12.749725247260551 8.558798074750438 11.110143702689868
Fe 9.903453503719598 7.837163963420981 8.152407379979598
Fe 10.336485922572315 8.406441616387985 10.801510958672015
Fe 9.323595175543316 8.729905443743814 13.244622261339176
Fe 12.041597223266903 7.303400760015392 9.190268474325935
Fe 11.44102288235453 7.7257058829406375 13.057750505790708
Fe 8.09983702795822 7.475626096588156 9.793802498056694
Fe 11.695740496115478 6.329135700734118 11.334982303532927
Fe 9.962486505253723 6.015014568437128 9.765262744761255
Fe 9.217368754091204 6.748332360936222 12.027746547456399
