21
Energy = -140.41896032 eV
Fe 11.042431455712926 9.739899300955054 6.70752942760531
Fe 9.319162707596114 10.247777130961587 8.072124060067907
Fe 10.049762753750922 7.87380962474466 7.945286802628379
Fe 11.022347196261535 11.909614568160755 8.000636767047876
Fe 7.075743043587318 10.685797125784239 7.832500820824835
Fe 9.031199715621414 6.794016797713331 10.20841722971811
Fe 10.573244045717708 13.472220924868088 9.640347854176234
Fe 7.739502283534061 8.426834051203212 8.630726080562656
Fe 12.379052032224418 8.079309746163753 7.498936958660427
Fe 5.8132236820387435 9.525289630177681 9.377529390626767
Fe 8.734262771028485 12.506495831915068 8.609754323442434
Fe 11.610234608491684 7.51295339162706 9.69608191497475
Fe 7.7813834526750085 10.739596227676753 10.09054147528667
Fe 9.589007532009484 8.956003568823043 10.1612094284762
Fe 7.2814282068010465 8.591697076984945 11.083273180114585
Fe 10.199283634482605 11.28761456509856 10.277743229372554
Fe 8.97721210328274 10.367664061431048 12.202255859306547
Fe 11.724519499735672 9.808969725046643 9.065240818652526
Fe 10.892607495316653 7.131540659357096 11.812777194423804
Fe 9.022890251559822 8.080092321551566 12.531208844000266
Fe 11.231116461841044 9.472913993762873 11.74373699880599
