29
Energy = -194.12574865 eV
Fe 12.631927765125774 15.81061407542153 12.989173732111674
Fe 12.188555489864804 14.975095576344527 10.648237133615323
Fe 14.013840496966848 13.989536328106247 12.164387935671884
Fe 11.245667019448941 14.949183511049721 14.760235427148908
Fe 13.3349812928031 14.067756296417329 14.49505849085463
Fe 10.652105616346226 14.602073754781639 12.488513197428725
Fe 14.017243867752086 13.681673284874828 9.778078042118807
Fe 10.009367302702751 14.050378229263547 10.241132297036962
Fe 12.073880192061377 12.286609797875922 11.230895686277963
Fe 13.682918923038299 11.935883213835474 13.442598713103067
Fe 11.252296441024084 12.538967023070562 13.833856629995976
Fe 11.749706067300872 13.162782132124159 8.83834974476944
Fe 14.66630535192145 11.767284151605365 11.091134627585594
Fe 13.691932185718578 11.623448456901972 8.810201540759884
Fe 9.682646157147378 11.822666035223893 9.600534505736265
Fe 13.91848878345146 9.836623069230415 12.457520116917069
Fe 11.544411097498305 10.631557279625888 8.807947205782533
Fe 13.406815997082495 9.705623076261812 10.182542946286345
Fe 10.777952420434195 10.164581743969384 11.333321899853479
Fe 9.533814538146782 12.519856931993468 12.010439865502164
Fe 8.179826165696227 10.827384364059283 11.165928749839134
Fe 11.901164809405884 10.144104257612621 13.665652537612031
Fe 9.279726771087795 9.28346698918137 9.623605852657692
Fe 12.290880213813518 8.180617127909297 11.874679570355658
Fe 11.55914741352098 8.370670459692237 9.512971538316368
Fe 9.394600522763056 10.53749149586159 13.435675450668628
Fe 10.35091299033168 8.298868770254161 13.342541979374195
Fe 8.368001828220848 8.722253486292518 12.099419999369717
Fe 10.098316804257172 7.434582159919555 11.158903956409569
