24
Energy = -158.48422804 eV
Fe 11.085779162810478 12.446486090868708 11.37956701281031
Fe 11.640381858036607 10.61829265814245 12.760672774488055
Fe 9.474946494178434 10.360541568503647 9.094050671568613
Fe 9.404010402019585 9.886238899487273 6.706700163265614
Fe 11.415226098693713 10.82005351096548 7.889783947890518
Fe 13.399679570760055 11.084162813483784 11.155881017227223
Fe 12.648737802752057 12.182464522913877 9.361597363616262
Fe 7.356207824406164 9.378643485261922 6.396754508964677
Fe 7.334626053476675 10.535990959814706 8.515678947794672
Fe 11.971100154826946 7.723205010204884 10.286706744981078
Fe 10.282992891812183 12.57293971889477 9.221041078845536
Fe 11.462664657501161 9.989733479631338 10.395003950266174
Fe 9.586041879836486 8.049297143492842 10.425327178902494
Fe 13.26150096279595 9.723575917080504 9.106633912966984
Fe 8.40827007478448 8.301403082613557 8.389134380602199
Fe 11.014732533467347 12.333708264560578 14.118610723703053
Fe 9.131267560094955 12.182521694549342 12.858741872929912
Fe 10.869238435352964 8.519632756512733 8.347724899520902
Fe 13.37534473992697 11.88975848011212 13.476210796767301
Fe 9.389614522639834 10.227498382983319 11.587695308604264
Fe 7.479821342953154 9.353894142922346 10.467104968697765
Fe 9.753599011219457 10.25565969809206 14.046200246035188
Fe 10.826594778097938 8.475402614838957 12.406294671834399
Fe 8.229395225581689 11.890669142094083 10.40865689574165
