27
Energy = -182.6781382 eV
Fe 12.607467285767964 8.655875434327848 10.683063401794547
Fe 12.931553982722827 13.48079180355306 11.359085826285574
Fe 10.983568604105853 12.843874269687012 10.318816313140887
Fe 13.145106735862873 11.224839334503624 11.007517821445315
Fe 8.528149985248934 9.778899922475986 10.835149175113454
Fe 12.140209709436995 10.302537721964942 8.894197663058117
Fe 7.431909460059025 10.823549817172383 12.733232614459208
Fe 11.183206060784844 11.52825463156803 7.136329220869002
Fe 8.886595592700699 11.219299334054133 7.035316305326325
Fe 10.315233118307493 8.247947316864007 12.024450504476464
Fe 11.1749529388163 6.672774648495855 10.44088089083001
Fe 8.668830603122316 7.437448916167747 10.463489758615426
Fe 12.639209161853415 12.768388967457932 8.787664636015858
Fe 10.24135783802803 13.341535478669263 8.27475592516487
Fe 10.398971312963727 8.642939259384645 9.46123550561797
Fe 11.704749672478869 14.795071966663595 9.491345072295584
Fe 9.012365662368536 12.327168513675812 13.759666956180299
Fe 9.748797462328927 10.237437941855994 13.227524412144257
Fe 8.098872137589936 8.473930444675478 12.805512502752007
Fe 10.925342171267141 10.461802108237116 11.046675366011744
Fe 12.303064621744035 7.273150783105657 12.534849994747418
Fe 12.204690346350135 9.725817041640141 12.93977739907578
Fe 8.3015273142137 9.25566049575619 8.417525884590479
Fe 9.044777470876463 12.104950800022847 11.453588714759565
Fe 9.712881336117178 11.110473729808524 9.110667585676763
Fe 10.494128048122283 9.301487432749845 7.23050983174496
Fe 11.324973241457378 12.116583760158347 12.679662592503977
