38
Energy = -263.9743298 eV
Fe 15.228166272696985 14.31327232766964 18.11809351265744
Fe 13.280479890143127 13.689440913102475 16.463397668281832
Fe 17.425238469215103 13.66149205610553 17.420643969836565
Fe 13.863448791848413 16.07900582826139 16.687764193063018
Fe 15.553010392945623 12.187687911655766 16.776242242254224
Fe 19.159532907130004 16.74747263020976 12.239061659238756
Fe 13.526219003209944 14.991271082158843 14.367278981941507
Fe 17.974990361007364 14.954249234010858 15.401998914271308
Fe 14.242990532542695 18.66446085615831 17.021122111340816
Fe 15.098371237048315 16.917717416766447 18.654971478699004
Fe 16.831748216963714 16.579617734771006 11.971447478887805
Fe 15.859270337264293 18.983728125757526 14.211723839605307
Fe 19.911941420975975 15.862821398109006 14.467663903656993
Fe 16.164712345413825 20.444789550533827 16.353397217016244
Fe 17.079287527729896 12.85154638019595 14.855500670145178
Fe 16.41737105686332 18.20967140972899 16.455365615793504
Fe 17.027972141068993 15.420948204215076 19.37068526931588
Fe 16.22751162465884 19.380267332240827 18.635716727008894
Fe 15.97490121594792 14.860826776391438 13.47283991524186
Fe 14.808115186844724 13.92031966525077 20.30985569981463
Fe 16.6442221352175 15.994739004277644 17.01389662541554
Fe 13.090067346902982 14.984706656646889 18.727074608317253
Fe 13.463247184618524 11.410770703119317 16.177052314960257
Fe 17.48850085411704 17.014401323982636 14.196420131727871
Fe 18.780607031343106 17.3453863321297 16.249631766388738
Fe 17.81917015486505 18.734330325209037 12.593727223225338
Fe 17.847527012464703 17.527153657284188 18.561245338854473
Fe 18.29045022270042 14.693924408990867 13.006336535346437
Fe 19.780256125568567 18.130124628783985 14.16567616178265
Fe 16.314991604671267 17.7981542230599 20.414056159294752
Fe 15.18161348032363 16.75083709608043 14.846586581992819
Fe 15.546030557723732 14.44710362789483 15.732090191825495
Fe 14.13878642506652 18.818067983696324 19.513247508603055
Fe 14.58726850719125 12.754066575465867 14.437838990770274
Fe 19.027507069213197 15.3956882636547 17.644896124926852
Fe 18.030439256188302 19.498653143287772 14.971077156994955
Fe 13.72759941615404 12.527051133760674 18.466935003340225
Fe 18.357753377386494 19.5631296480385 17.32448612319212
