37
Energy = -253.43593955 eV
Fe 11.267981215401239 11.884249324790538 16.050191340594075
Fe 13.546041237364117 12.509006852160494 15.221785289142998
Fe 10.87181456104105 13.042111858953858 12.251636382452716
Fe 13.08850441301626 10.282928423936957 15.647158786965246
Fe 9.367396880637573 11.647215605753518 13.656611812388041
Fe 10.728782210232582 9.776310590714523 15.150995096016441
Fe 8.674907610841133 13.027220869492249 11.706864400240617
Fe 12.685974123848869 14.539216895244024 10.881900849187858
Fe 13.174981222161065 13.256066371350537 12.905625638205679
Fe 11.773187073738544 11.611517296969357 13.908239560523553
Fe 10.274966074694401 14.753002013812267 10.654964696018194
Fe 14.267096542489707 11.137061897109882 13.424535535109781
Fe 7.949168929628318 10.617454842790101 11.797984435450774
Fe 12.811772454431916 9.285766065490623 13.520162360610719
Fe 11.845921034238913 12.592555010306288 10.012298603374285
Fe 8.546183859705152 9.39684571114919 13.810201422900994
Fe 7.88851300386793 14.43194556995432 9.96043161897774
Fe 10.047216672854674 11.303276705503523 11.132608628641492
Fe 11.434126865653266 14.38408989319237 8.654902257642064
Fe 10.524488207761777 9.695534743219222 12.82232814300413
Fe 9.506480919394912 13.002760264758995 9.214890132130215
Fe 7.273393858709144 12.177031024532688 9.921710465102727
Fe 12.37457780655622 10.961336013440496 11.665755379611912
Fe 14.18857596187503 12.405506480172232 11.019883553533777
Fe 14.254294175845965 9.77494053604311 11.238260175539498
Fe 9.360263033127605 8.805344284584486 10.950542701213767
Fe 11.999560619552653 8.561129143339326 11.407584864585287
Fe 13.404169421668213 10.959886729419228 9.191211967983842
Fe 11.168113046159934 11.769016543810642 7.896873758835071
Fe 8.885736773172953 10.659074313910187 9.125077048529254
Fe 11.144159965075357 9.883068308513748 9.45007171290767
Fe 13.147872924429073 8.525322012228129 9.288067148189693
Fe 10.911879350195692 7.248150908188087 9.818647674794331
Fe 9.168729463395621 8.274265950776828 8.59387375812667
Fe 12.582094689058156 9.939910215012855 7.241520358183284
Fe 10.08123131993614 9.813393049355383 7.102919857697715
Fe 11.487326093427283 7.932212822483011 7.689498123656839
