37
Energy = -255.84644408 eV
Fe 8.97340867076896 5.790496314719643 5.662698631463275
Fe 10.851292856208204 9.444258573365458 4.997520371508964
Fe 8.744704190862752 8.299507755589715 5.456608250757689
Fe 11.119960798230533 7.080621825504723 5.832092626458614
Fe 8.90377803789283 10.802414478163666 6.315675186763293
Fe 6.96484113700542 6.987629210537251 6.900051851658676
Fe 11.269527194917114 11.2440531254302 7.233124858363278
Fe 10.748958257361341 5.109968644227979 7.560985134474565
Fe 6.1507990836914255 9.59616715772183 6.59416628929497
Fe 8.080688176198725 8.968424162172855 7.699650137401396
Fe 8.24419694398887 4.975009374089219 8.219608853494746
Fe 12.701264534680183 8.863855718153959 6.837907889695552
Fe 9.107781135009882 12.724534678045025 8.043919998830654
Fe 10.48240155604738 9.034317472274825 7.194432586033095
Fe 9.376845541156296 6.943931865074473 7.547351992386686
Fe 4.78844955886306 10.768369172386567 8.51995254880362
Fe 9.555021150218721 10.606837575812598 8.735098425006772
Fe 11.770242696119924 7.166342605754793 8.383312434448268
Fe 7.114817297013411 11.156879429140604 8.298417193358288
Fe 9.895471727716739 8.325803579939633 9.428185718517762
Fe 5.8350815092424835 8.650841552270993 8.763422522073958
Fe 11.948557155969855 9.748644516658082 9.157490590773378
Fe 7.704684721630634 7.165206377259116 9.365966301982349
Fe 6.021510903238815 5.6575463082248705 8.622582226550627
Fe 9.835931182078722 5.914381060241583 9.817252624675094
Fe 10.881577404324862 12.090674017874248 9.841763872001367
Fe 7.897068676212591 9.483488473978788 10.067716712451658
Fe 11.531442009061376 7.831753672523138 10.861016391895499
Fe 7.186675688127799 5.696732406142258 10.944804265045065
Fe 4.259137592917087 9.22947260284834 10.368629763639479
Fe 8.898117230510422 7.756331001332159 11.53359348220221
Fe 8.432798030619862 11.872461142365841 10.447064837739836
Fe 10.235083890459403 10.062229666537055 11.119193689417536
Fe 6.016784878994436 10.775866962494066 10.596513221362343
Fe 6.3741732966061715 8.183957966738719 11.35154212880799
Fe 5.005291854367939 6.876410540674543 10.384168610750535
Fe 8.045378856967906 10.068324439012422 12.250263205193058
