30
Energy = -205.283497 eV
Fe 10.705522422269866 7.222663849675886 6.391598664795129
Fe 8.655580572413733 10.826412683370915 6.345620987017465
Fe 10.523375709596985 9.36753722109653 5.667979793875061
Fe 11.062032717948824 10.711422348686618 7.4423876723262
Fe 12.742276790064453 8.971561593153133 6.8210310971748696
Fe 7.2817365501091125 7.911931755699949 9.157762473775005
Fe 9.150602461204214 6.622044091466893 8.141135953639697
Fe 9.043087927907187 11.667646450706828 8.48245761734975
Fe 11.402698427498898 12.225035695086046 9.460884982438111
Fe 12.841748499032882 6.71129845863309 7.287789742268792
Fe 6.998754860828714 10.318461351882874 8.102745628933018
Fe 12.833465766547432 10.12792885884198 9.119400928983168
Fe 9.152074702876208 8.961560405941354 7.714514123867249
Fe 13.669260816966206 7.992409870603562 9.025937929825401
Fe 11.319767213686434 8.001033839060982 8.545642639671016
Fe 10.528235700145322 9.983435306776206 9.623789137916473
Fe 9.53875014388789 7.694536283470287 10.16305027611592
Fe 6.019736759030041 9.833816010876644 10.417530803549324
Fe 8.293678166611953 9.851085123554759 9.991845572265177
Fe 7.101806363494962 12.002377699025116 10.154453750979151
Fe 11.963498625244698 8.438962141547545 10.87396584224363
Fe 7.634745381204902 8.197207151450701 11.659373025957992
Fe 9.488947753477124 11.810336569063713 10.897177565931637
Fe 11.816509438197663 10.85951590721015 11.464534529926086
Fe 9.833952213390871 9.36671620155623 11.918621669032836
Fe 7.549694339068776 10.567881622444032 12.196263406792548
Fe 9.796262508397822 11.348644449442398 13.159770962176928
Fe 7.941470434274887 12.819460730426105 12.325256764453046
Fe 8.456474917133944 9.34825152162624 14.00896969462793
Fe 7.699816867435567 11.284389857569952 14.484071812038618
