36
Energy = -249.13495593 eV
Fe 8.930200638922456 11.842296496656974 4.041001060303047
Fe 8.023630123241299 8.329864751359992 5.851761746117512
Fe 7.324901299699194 10.62471087095204 5.447952992289024
Fe 10.472392763638105 7.782070608662332 5.299853033354981
Fe 9.833055551353553 10.201795089865449 5.518936950069838
Fe 9.149809517465753 6.336908742536886 6.964725714423616
Fe 8.974548245240802 12.236996680278075 6.502866782210471
Fe 6.080212678970061 9.291852508508263 7.344075906769454
Fe 6.615119273333447 6.617935327190734 7.262313936634063
Fe 12.043527242013313 9.414042845797082 6.694479909161198
Fe 8.295096528422267 10.25059728066903 7.517732414946901
Fe 6.508213921684603 11.693072678786576 7.714096018973601
Fe 9.995656815483931 8.675223693851489 7.3561573195595225
Fe 10.374859431495201 5.0837739316279 8.617153809758504
Fe 10.652783582360861 11.04210787772653 7.924927063165453
Fe 11.654175989386594 6.944793487824709 7.450169311315101
Fe 7.842158446950034 8.065789856070342 8.367092860838198
Fe 8.655542807183737 12.049225205562195 9.104377314571826
Fe 10.702228393992707 10.913326090586056 10.952387548139644
Fe 12.108080494098404 6.712351932031564 9.821507312702662
Fe 11.777961634304967 9.060354815019261 9.148630423161967
Fe 6.4220251986917045 12.14477510315191 10.12960755955768
Fe 6.970088625845786 9.990887146021871 9.617516299481604
Fe 9.986278377190239 7.26584811062828 9.2468038995679
Fe 8.28712767915621 7.8994034904251595 10.836121732634396
Fe 6.172354482935817 7.577445446008124 10.103487110816463
Fe 9.444863041567912 9.679593492287454 9.610265969969545
Fe 9.854205571113026 5.783868307193862 11.037334615268195
Fe 7.9926401971573595 5.815188282111585 9.245542189067713
Fe 6.528222553623785 9.84676930992385 11.842650334248939
Fe 10.72525423968887 8.329257574582167 11.332570872955287
Fe 8.329716543993165 11.48797200635779 11.405571596030464
Fe 8.870201375031607 9.479311679211103 12.452419075894401
Fe 9.039657200726074 7.040651285755002 12.881479739785297
Fe 6.69025333911012 7.625279585397221 12.601708343284946
Fe 7.43348352434132 5.625185738794692 11.51524856238286
