35
Energy = -241.05058639 eV
Fe 10.683315120972892 14.441711429174179 10.951129510489716
Fe 12.72530236220669 9.082556727004006 8.550028915856647
Fe 10.567297633191465 5.783335013406001 10.09572468301186
Fe 9.034262280850088 13.234359979808124 12.181668499324187
Fe 10.761271995892766 10.524263877574931 9.578555065531614
Fe 10.749799999176613 7.994381144831227 9.67210657178904
Fe 7.938879490063485 13.27887971023223 8.208981326206311
Fe 11.598510956182452 6.830011001055632 11.964656393037851
Fe 10.23435136068035 9.42019267075444 7.691876113053398
Fe 14.294630084543844 11.308130015249201 8.598006806401163
Fe 7.261296954466802 11.711972417746457 12.85789366638997
Fe 14.423696119495945 10.012490041720664 12.196929903746753
Fe 10.111469512662554 14.5157352360623 8.37872188729081
Fe 14.735488466606359 9.31608941730168 9.800729516831492
Fe 10.721939109480436 9.440088897528279 11.727414728832922
Fe 8.365609292895224 10.818443949090652 8.696600246269997
Fe 10.024582155446828 12.087745289653563 7.542713305565253
Fe 6.656331206042369 13.698063127031386 12.298581415424344
Fe 8.617968065719541 8.84709912363418 10.139496161314305
Fe 7.223090675550868 12.466582439672889 10.303048514651676
Fe 9.376372666235929 7.257115374805757 11.800078862609574
Fe 8.368356053081763 9.311299490971527 12.753546306668856
Fe 12.232285274446093 11.14463427537349 7.607613486953267
Fe 8.294646069168 14.595812221869513 10.30414089406405
Fe 12.729747698247566 6.70262901567983 9.694138790408617
Fe 13.004026578230556 11.024412753781181 10.508554100778241
Fe 12.858618387041021 8.389222345048013 13.378443591980568
Fe 9.84611501079353 11.047370011016769 13.492789549907355
Fe 8.804807004436677 10.954712323166756 11.192143372425159
Fe 12.85387128143059 8.651510081066755 10.994521645997283
Fe 9.677338724871248 12.698136266464008 9.773790649780342
Fe 11.097562794571152 12.048708144078942 11.595064968686284
Fe 10.448833952946226 8.551865586348196 13.807152513406596
Fe 12.000838089371465 12.862538270076255 9.239323158206266
Fe 12.3371879819211 10.607602740642267 13.083535286028717
