32
Energy = -218.25887626 eV
Fe 9.873623925762276 13.73239679962669 9.09828612755467
Fe 8.475412926775066 13.600983522890957 11.063277746850625
Fe 8.071305846355537 12.360955941488834 8.639910728452326
Fe 9.970688458684073 12.192033161748041 7.036484620102976
Fe 8.456393769829885 10.415145520088656 6.929132954408668
Fe 11.18888933449607 13.15602286487728 10.951281927284969
Fe 11.58228148372908 12.021303156857018 8.704728837497617
Fe 9.640182699073199 8.39580813924944 6.659274198338291
Fe 9.389431491994078 11.461147135882747 10.569902557947588
Fe 6.879290432536155 11.87301973399701 10.697418154838143
Fe 11.261815998256719 10.12623485434613 6.7232159233616535
Fe 12.066944522602878 11.65020434245508 12.799395700356317
Fe 7.429456900931365 10.139869398520057 9.082902644710595
Fe 7.3318228515101485 8.177276814309872 7.514614250343981
Fe 11.782640756603016 10.774897651946805 10.747587761759906
Fe 9.910634001440798 12.887145494143557 12.865770178862027
Fe 10.004259772630014 10.188790579565945 8.690171207865465
Fe 8.801704716461995 8.163676179772802 9.181722441413632
Fe 8.152971571110598 9.446755280956173 11.306779595828287
Fe 7.98320613188116 11.534126551552824 12.68811829186573
Fe 10.074042821464179 10.405432322093947 12.68670313301279
Fe 12.557986069725212 9.77233977692171 8.70928810004287
Fe 9.237147974427675 6.331926562238306 7.963440328618646
Fe 13.749345718317768 9.688895803205963 11.02662547296033
Fe 11.232939965048628 7.929050981018245 8.213236243612672
Fe 10.525936527190648 8.796048874973259 10.642044571915044
Fe 8.755227180865251 6.9206291992614135 11.131303247683203
Fe 9.444251182806738 8.183615959510538 13.02496600321013
Fe 11.96280493923818 8.982356799686785 12.585083921122422
Fe 10.635276560527426 6.359106630252055 9.848297765947754
Fe 12.709649395760817 7.884430040582671 10.378653854119767
Fe 11.101766469129892 6.849962336971991 12.156086565022493
