38
Energy = -263.18403922 eV
Fe 11.068616566062618 6.596162213165427 11.593547751273492
Fe 10.984089181181874 9.053737343010281 6.221504680483277
Fe 7.168516328655957 11.115232698844986 5.624952057574139
Fe 10.098574476439236 11.885828242175224 8.927340554321832
Fe 8.596645100289336 5.7608224068879155 7.021781663274375
Fe 13.057541358144388 7.221002222103892 11.606141415430978
Fe 12.843801770482523 8.97252583273287 7.9680468852978805
Fe 6.241751675542992 6.987760209426242 7.520545883222694
Fe 5.293980609270368 11.02859163527788 7.228631630492061
Fe 8.918617013469406 7.990097944072213 7.663072618454794
Fe 8.47130668803977 10.107751285927689 9.107145095838256
Fe 7.008927005923271 8.349220373403279 9.404365912475022
Fe 8.868033683182684 5.767934892428638 11.35518239082435
Fe 7.068431073285995 9.45204784908167 7.212152816607655
Fe 6.105982163123298 10.61337001506911 9.449075486243395
Fe 12.228801668172691 10.633638379125271 9.79874581100564
Fe 11.372925643582057 8.930062055084377 11.287168531003918
Fe 7.6004886393682805 9.760167651887995 11.367142439342746
Fe 9.333205631621265 7.968530050331034 10.210521414994533
Fe 11.148375112344828 6.974499861527317 7.400153553275094
Fe 11.88417683818099 7.485915454983681 9.54838122129122
Fe 8.690953647489453 9.229641052744118 5.205168126315727
Fe 7.925336625053794 12.0604159629454 10.303080652892037
Fe 5.294134842820259 8.922130293577826 10.980686739486076
Fe 9.84591090967942 10.567220258326191 10.99682348296584
Fe 7.72067590609976 6.121460958433043 9.29481871774575
Fe 5.328243102115842 6.796456442245874 9.821214922447714
Fe 7.140209158561099 7.299160173221614 11.540617684287243
Fe 9.238897859300984 8.238305675417468 12.497304201277979
Fe 9.335816343333937 10.693836495283145 6.926041187128719
Fe 7.48288948508334 12.002225305196403 7.87704229635118
Fe 5.407686730073314 9.023054041711076 5.722840494177115
Fe 4.867041346134573 8.831425161767266 8.315542373918923
Fe 9.763229239680948 7.071853007090625 5.404783327512148
Fe 10.693541309526868 9.356779808263257 8.694412655479825
Fe 10.072447561699244 5.855105247232817 9.215849578247063
Fe 11.74000275894864 11.089167423365575 7.365943941691817
Fe 7.352546345616708 7.449215474213493 5.58458120293006
