37
Energy = -253.49355631 eV
Fe 8.14450532312516 8.818368124535082 4.43367175214193
Fe 7.885763162352849 6.138393609605509 4.585081864455695
Fe 5.947288232772524 7.826055118653668 5.053808656519786
Fe 10.21404750078111 7.41887268705011 5.553212895504368
Fe 6.999732770932621 9.87654382342268 6.266733788999786
Fe 9.54429216775364 9.593471984235126 6.488205592485385
Fe 8.030220375520962 7.549160195344981 6.30019257654824
Fe 4.604698360728536 9.412638460058988 6.526479216587432
Fe 6.388045713923083 5.690551731262171 6.453824017077171
Fe 4.223627284238342 6.948049856650474 6.5274492290393376
Fe 9.035205416710104 5.36784179272311 6.79218319172619
Fe 10.93263516778456 11.277216408085359 7.65441510954336
Fe 11.807017799569957 8.901171374549543 7.435622643963514
Fe 6.0492410108775205 7.9533997384789235 7.5777612639469245
Fe 8.432707697143345 11.281313692617571 8.14416967618671
Fe 11.776359647200465 6.141584984101146 7.853910173164532
Fe 9.912663162532573 7.371812555215139 7.855658487781179
Fe 8.012969587320447 8.841705117790388 8.264255771328232
Fe 9.936694434973656 5.4888270769593195 9.392073872254945
Fe 10.046068237237552 9.552712554463112 8.995546142386054
Fe 11.560955928411191 7.796295039111151 9.752478352152943
Fe 6.067941763914614 10.275729553063005 8.658869888574454
Fe 5.09259478732327 6.194834563821102 8.66539682024817
Fe 12.118738091518523 5.627943073443188 10.200825726056213
Fe 12.124935584554779 10.245793967957413 9.594377636951892
Fe 8.950126541919671 7.576113473950944 10.144944259228954
Fe 4.333104541033746 8.623071955551897 8.89245917602313
Fe 9.89936047374367 11.621910690105448 10.105944795543925
Fe 5.850079393588075 10.1424664790723 10.929926329078436
Fe 6.55594633641195 7.897258952598826 10.026677933448928
Fe 7.665413484633311 6.2875039602433365 8.488156991395417
Fe 7.339786620138762 12.054434527463991 10.138417679884837
Fe 8.020378401288015 9.878746127754543 10.367882015359212
Fe 10.381845736711696 9.388674628199512 11.391196961919857
Fe 10.48013662794205 6.748421433217311 11.618898357283085
Fe 8.745749813034 11.13076288156499 12.120448799548425
Fe 8.353349281733632 8.524574268457888 12.213068817040963
