38
Energy = -261.79859743 eV
Fe 15.070743163916587 13.039861577271829 10.436124892604665
Fe 13.397757039659773 13.527299781812362 8.952627766058793
Fe 11.634366086374342 14.13558802633769 10.31984354172759
Fe 10.004994639719783 14.035463384004107 8.665866549223349
Fe 13.966596418190809 11.286793599872146 9.342650412992766
Fe 11.481653270861438 12.108404338955062 8.73507813653911
Fe 9.046967686804226 11.880737403381895 8.112785192314458
Fe 13.414725579335924 13.961485995652026 11.838848369357908
Fe 10.935347792314635 13.717376541278794 12.527474945191285
Fe 14.477503506441177 11.544333820654966 12.147031259060405
Fe 9.316339305824961 14.634388533689604 10.932254184225801
Fe 10.729324887085358 10.37364107565807 7.261164116294367
Fe 12.012463621767434 9.80358913671006 9.346999848725494
Fe 12.364738360227356 11.819610713992633 11.162237042610233
Fe 10.057986473448482 12.22477600619838 10.604280247705066
Fe 7.942518881200368 13.010953187533662 9.950769417175644
Fe 13.746632805534926 9.557631500107012 11.000057371663985
Fe 12.629741919191483 12.456987484729725 13.603303003575187
Fe 8.556637103054642 9.473378877850829 7.602159939645371
Fe 8.562581315934205 12.97107797430261 12.509102072793766
Fe 12.284434437022998 7.532126195674986 10.252144224071776
Fe 10.519507819413018 11.381383498108292 12.932323113034556
Fe 11.313391271065168 9.415681438781293 11.614025912044623
Fe 12.815836983102525 10.085467791892112 13.265621309742711
Fe 7.121807897136347 10.776192313912485 9.114840116848953
Fe 9.623410777013214 10.05755263581558 9.715253328548565
Fe 13.289817153904657 7.692253165120089 12.341956325947411
Fe 10.685478229901099 8.178728302025348 8.148601230136517
Fe 8.150578611998768 10.939307038194634 11.253608879955864
Fe 9.90943014498711 7.7446579391888255 10.32514098807079
Fe 8.343950417675424 10.819390107761388 13.649754612844063
Fe 9.068183900943758 9.021252736934482 12.233334405254173
Fe 6.478589432093624 8.661063445877334 8.20273035094092
Fe 10.365573541127981 9.341688826115819 14.13076564848757
Fe 7.632364755636434 8.679930417027128 10.198933473891687
Fe 10.841070959153553 7.170564723905618 12.508637198207781
Fe 12.149594185673616 7.983589945540287 14.272988108931843
Fe 8.498765766779007 7.263209790258099 8.390847458856394
