30
Energy = -205.02034671 eV
Fe 9.176316060579516 12.125062628889722 6.829199970562245
Fe 10.1963394047933 9.604628594610759 6.894224465815843
Fe 8.950961954239716 7.734215717638019 8.216520719093696
Fe 8.280692330291952 10.46577356727243 8.211603907711444
Fe 10.868046845593337 13.718635610256287 8.235674947355482
Fe 12.633839629012964 9.920297034653732 8.283096037107153
Fe 11.606870981160437 7.82290579144564 7.862654420011395
Fe 8.678130798149088 12.917387553760353 8.997078115376915
Fe 10.741245076031502 11.46705311558973 8.301783248485807
Fe 12.841135517606517 12.408029256318843 9.246143847087142
Fe 10.289151085131348 9.185770877147705 9.189011211936457
Fe 11.632887839918904 10.748386586344083 10.381164026959038
Fe 7.9566164596357165 9.122584214462126 10.287597445716559
Fe 8.84360700247597 7.0441909388300425 10.583867811683453
Fe 9.36558556317904 11.055472229188371 10.357337679725873
Fe 10.716680318846059 13.073124480069616 10.447755128537704
Fe 13.92774644376972 10.610778744211633 10.59018143508591
Fe 7.071810814998466 11.457488246882036 10.204821656774703
Fe 12.624610067776237 8.563100412048266 10.202085694025982
Fe 12.770672182241213 12.493288616991542 11.679071646899011
Fe 10.297030728556026 9.098780138097451 11.504064212164657
Fe 8.447753069728153 7.978866184704273 12.71095652010856
Fe 12.414396606306992 9.8864301447794 12.43997615775931
Fe 11.03159230461118 6.887016283648529 10.006679596798369
Fe 8.146419912266845 10.361996416236433 12.38562254695405
Fe 10.693537750532165 7.177051188371909 12.449121644480618
Fe 10.653375513258771 11.5561885824669 12.440858327892823
Fe 8.491018200075278 12.750121374678502 11.74167372276014
Fe 10.091146688615444 9.522758183424086 13.771366735642772
Fe 9.026429815889362 11.708264252252965 14.014454084757666
