33
Energy = -223.24461372 eV
Fe 15.404831929095785 10.804626439832377 15.404946735702174
Fe 12.752946272576938 14.004575938064605 15.016540348909784
Fe 13.30470801577069 15.202459253967882 12.79300660001408
Fe 9.105481061251306 12.961743055581072 12.970061623099891
Fe 15.679547705454802 12.044882425164229 13.403570006650694
Fe 13.270600927922416 12.413505919482274 13.309325968115568
Fe 8.22770966465586 11.734559449059118 11.100704514576222
Fe 10.956123630764603 12.288282144463592 14.401273384223321
Fe 10.352712001494325 10.378130090088003 10.504942543254419
Fe 9.888839540706288 13.552136992895377 10.732913135186802
Fe 12.354396334389529 14.269186822980995 10.78302865682724
Fe 11.402226395677552 8.38951458774794 9.643813271976846
Fe 14.186704673176756 10.065323623892104 13.458470114486657
Fe 13.084315394041836 11.405875853351235 15.490873063474535
Fe 12.71312243752194 9.490113850032897 11.546455172205695
Fe 13.752023149069338 12.683647513918409 9.636194402905536
Fe 15.080315276743145 14.255745966254851 13.97836116410456
Fe 14.495798868826713 11.146451649311839 11.293972962074607
Fe 8.157059051076239 9.364101904884304 11.570090677583789
Fe 10.601606082886157 10.376163528937218 8.086060321716175
Fe 12.706694037041993 10.53468756172135 9.404038841061672
Fe 9.068340877688316 12.116048270208829 8.904993276488607
Fe 8.313443455004768 9.851890402775744 9.214905946169186
Fe 9.206934136796466 7.760891072303835 10.308184000110744
Fe 10.552528650181486 8.531213646114177 12.153567692088991
Fe 11.392485308425796 12.5113663737293 9.140385005652425
Fe 11.221172317358578 14.111845555230184 12.936702899278567
Fe 9.60091703437704 8.218810111474198 8.073958772470656
Fe 11.810392394897265 10.162276885948035 13.696205313555257
Fe 11.674397422423645 11.95576054977817 11.632112106207646
Fe 14.808974449112636 12.990791886859393 15.854340536452767
Fe 14.725540008857564 13.65490772754062 11.593787870045698
Fe 9.550464851430677 10.63849684268926 13.088126654701677
