34
Energy = -230.88164516 eV
Fe 11.15666355512497 14.596678172615087 9.676912158564384
Fe 13.545831678323948 14.402466616417039 9.960429019245234
Fe 12.184779880480061 16.054145624097018 11.446474397877237
Fe 17.96936345972217 13.623681307643565 11.989983081203002
Fe 12.006721669849886 12.37775844081217 9.695793059395418
Fe 15.950492565959951 13.841250886982083 10.682941006939386
Fe 14.627592001338297 15.387295561915229 11.790316478842575
Fe 9.523314938605974 12.796631714115557 9.948688851912978
Fe 16.2057665419617 14.215955606388013 13.35309302237338
Fe 9.838196118123784 14.68969888198518 11.596432865247483
Fe 14.078213305049987 12.208354935570597 11.029260888329606
Fe 10.468200843371784 10.601054341965515 9.602813412619088
Fe 12.187632753856297 13.656252431996215 11.982790286713099
Fe 12.574841479192019 10.277124888665655 10.860035221908594
Fe 8.671173304910498 10.587913691606568 11.204722268350084
Fe 13.271193728790331 15.524480690293528 13.644758522254634
Fe 16.33075540404998 11.947825589758091 12.070559271171794
Fe 10.589752744353776 11.834584135227999 11.998797905429289
Fe 10.55686327588055 9.000450603501333 11.321042260595048
Fe 8.185414230452588 12.93488374757635 11.900570287695698
Fe 14.15260114817122 13.266597881025824 13.473101898987768
Fe 10.945130334919602 15.584478628649354 13.487906332151095
Fe 12.64059635162865 11.40044119850393 13.171519632667898
Fe 11.970366689051321 13.621032227867602 14.509283472747905
Fe 14.659179726812257 10.204060774115252 12.377417633441892
Fe 9.65994590456689 13.531421692401183 13.77491620513104
Fe 15.628838641934141 11.562121301937934 14.27732692316936
Fe 8.612650273391559 11.303231983668706 13.579994015687848
Fe 12.603084852806447 8.899977217187915 12.933191766202828
Fe 10.356821001378048 9.677822025770228 13.518749678603617
Fe 10.75827169533104 11.6427107328208 14.93893145980913
Fe 13.410248408907107 11.656389172535766 15.469967305676708
Fe 14.326405157170537 9.58906528194223 14.644024534930406
Fe 12.058191172364344 9.603893289669335 15.229024990826906
