31
Energy = -212.81046102 eV
Fe 9.516512021401622 12.912826973991047 10.37420053363376
Fe 10.73610344757914 12.435081365517087 6.796413070563844
Fe 10.164923444881206 11.858761212522626 12.760623499418323
Fe 13.759118332679408 10.259491944186703 9.660669044176696
Fe 10.767753213343534 9.950836630431825 6.913553652814596
Fe 8.94137016027103 13.215024835433818 8.068153616879721
Fe 9.664994301211893 10.505437696308608 10.752451816775546
Fe 12.549506343410325 11.458147560945392 8.126589101120304
Fe 13.435480901073175 12.740936982224461 9.97058496856016
Fe 7.777947429546886 11.427332556200732 9.296980493303977
Fe 8.583760689407839 10.918639695501287 7.024671033716424
Fe 11.43044717410908 13.501871229279441 9.115904141473965
Fe 11.527488383694898 9.365309694193018 9.151743025779318
Fe 8.951773065807668 9.29840204143213 8.75000268613764
Fe 9.17445035985875 13.85059510857725 12.373203326748333
Fe 10.324173726751038 7.682122695253311 8.019661407017377
Fe 10.256800136660935 11.361693666705463 8.780937144024634
Fe 11.507333640784987 13.553169092030192 11.572101702804556
Fe 11.48013264873111 6.890069985617182 9.965598642297826
Fe 8.585135198332951 7.072277726967228 9.612421415636645
Fe 7.886945433792861 11.85838921213164 11.725356809971625
Fe 12.606590083034133 8.76982316493006 11.119715677091394
Fe 8.612203035882965 9.808662438667987 12.756429655840194
Fe 9.952950716049914 8.323425999187036 10.998553115423771
Fe 11.839298334364685 11.29695724572687 10.831229744555099
Fe 11.130375150950425 9.62526017350987 12.676350778061659
Fe 7.503592294268095 9.404053648118424 10.644336335858524
Fe 9.799907426257644 5.999084479227497 11.482850020622244
Fe 9.691601725865004 7.773198915864911 13.441417157912607
Fe 11.66585590965215 7.0840651994840185 12.472960471298483
Fe 7.883220802677534 7.424688650103735 11.9634802349612
