38
Energy = -264.34547759 eV
Fe 11.422889153015948 10.507001056965104 6.345335607945916
Fe 12.885652305806683 12.282723375450225 7.616375139625647
Fe 9.36201391298242 9.508202538729098 7.498476178892636
Fe 10.996801217814044 12.98776994056722 6.476587333117212
Fe 12.897082619018388 10.019671425213646 8.153658675779067
Fe 9.18267010269739 11.505445871921712 6.219334551535533
Fe 8.91077960068832 7.805002813649826 9.04716492487762
Fe 11.223618960018158 8.080932326119646 7.486293932329527
Fe 7.0930459984992975 9.252485201179313 7.875600139831318
Fe 10.5122554793217 11.391061472670135 8.39512168099105
Fe 13.125288046163204 9.783305052791116 10.75527442432873
Fe 12.298517223860443 11.865279842127805 9.92361621985059
Fe 9.170153640855785 13.529250910453417 7.856251223163382
Fe 13.10199786119749 7.800044504309634 9.179239285848166
Fe 11.315046511978196 13.792664763993745 8.884913129303346
Fe 11.081333049408743 9.233344316203299 9.455871137847815
Fe 10.91514066094377 6.676912883575268 9.6009262667433
Fe 6.586037518380176 7.5239455764234755 9.385264881509084
Fe 7.845059920845568 11.534808129693406 8.238271263276333
Fe 8.632628616334586 10.171720313553104 10.065052482520196
Fe 12.226773876049057 7.658853543949981 11.443752135390255
Fe 8.473735211116066 6.191723011854484 10.691317227346522
Fe 9.90599839438903 8.256378569302427 11.31371140995799
Fe 6.139955451288774 10.023133867621993 9.85664703926688
Fe 12.799829042301978 11.626013770682281 12.34848499793272
Fe 10.642879646453144 10.755085401981361 11.251797250792107
Fe 9.411490003770243 12.662075486769318 10.052273043279063
Fe 7.502798996478338 8.428160746752361 11.330426856035222
Fe 7.046702541947669 12.198551512252902 10.442683855094359
Fe 10.541424616302438 5.92980436795445 11.88406782635997
Fe 11.736351312153252 9.51368725750892 12.918282260150523
Fe 11.101857986023496 13.18449279991886 11.637831737110853
Fe 6.813779557121274 10.525433323944474 12.139108784625199
Fe 10.556025066746974 7.6144357747649 13.600555016615411
Fe 8.434237158958611 6.966638699010874 12.930959681418425
Fe 9.028213808038501 9.6617527608134 12.943904189254168
Fe 8.726125462755167 12.009312400659974 12.230616717363162
Fe 10.687439638332384 11.584572061116516 13.547418586159164
