36
Energy = -249.52276538 eV
Fe 10.766375756607763 11.813179517105475 9.213315825754117
Fe 6.953890356832888 11.956859393848704 7.629408366898128
Fe 13.525881440848474 8.092664156511585 10.402850756543764
Fe 11.054873053135383 9.069988598643311 15.81884024792851
Fe 9.42115346314788 10.80264495462005 15.489814123631854
Fe 7.1917858926728835 9.851391769155763 8.58995130221093
Fe 11.586216976891324 10.021427304763165 10.710311575815433
Fe 11.267716244496679 7.967925470601685 9.676847504802797
Fe 12.046121553484209 8.289658246736627 12.215736652906678
Fe 10.359700021491241 9.747331163440323 13.571602275681895
Fe 7.552175643067708 9.887100122093067 11.04737362027428
Fe 12.221426630519671 14.056817401113333 9.861378987063073
Fe 11.24523828266505 13.993291327619362 7.800359994598624
Fe 13.987934783497588 9.953371221377722 11.716277531233409
Fe 11.972066165368743 13.416643320638709 13.81545141529012
Fe 9.063288760072185 13.14066602566792 7.7130147913494485
Fe 11.22496037826271 9.759170699398128 7.95058255391095
Fe 11.721247674185483 11.325420457983961 15.196583706623333
Fe 13.189454762285202 11.912962886712691 10.420056152406662
Fe 9.583479733543031 8.56563629613538 11.716372478371982
Fe 9.754805981868238 13.785915535022761 9.998511673244701
Fe 12.217832024033495 11.076554777560862 12.874041358159447
Fe 12.804519942240692 9.191723683757933 14.247440975423158
Fe 13.157048755977456 10.349328038796024 6.626091371826422
Fe 10.786039663079183 7.5168056497385605 14.034342310222675
Fe 13.302688844274545 9.946135110172218 9.020662410273165
Fe 8.1657701157654 11.854897632357186 9.633245350130222
Fe 12.946047192195126 12.297403185253538 8.061058098517785
Fe 13.83291986806406 12.687290221523291 12.526723707247314
Fe 9.54098411332734 11.218620965616203 11.536395868106869
Fe 8.162612862990208 10.388399286097926 13.339225916599005
Fe 11.074329910071834 11.862184812979313 6.690873432950074
Fe 11.323576742621192 12.875647855993797 11.625258178599106
Fe 9.388220076311367 9.634074549837672 9.533996748517373
Fe 9.910034298773665 12.273251339592875 13.671037586681882
Fe 9.035005736637508 10.75504072284143 7.362388851511613
