36
Energy = -248.38369114 eV
Fe 12.075632991257226 12.87964168694135 9.010027973329485
Fe 9.375673379513271 9.680476917600663 10.084180637420268
Fe 7.215339526033767 9.629857027807335 11.385822979434883
Fe 13.537558999556419 14.668211991565938 10.679770649374166
Fe 10.858007728789056 9.278166329854171 12.47597375870976
Fe 10.50108065879651 12.722821152844656 12.222617103601253
Fe 12.765143714302454 13.668818489465083 12.970293674919816
Fe 10.843967972444958 10.790784835395076 8.40222117744575
Fe 9.070938621256609 10.838749161294999 11.987444921937518
Fe 12.598078761017916 15.154800199087617 14.8023406421309
Fe 15.175911614214831 10.955629252596717 10.658089263313423
Fe 7.52182553340527 11.241662970374572 10.047022686397929
Fe 14.511272250372526 11.347254035814286 13.152390140834017
Fe 13.057142522325643 12.35441720464164 15.263749408959296
Fe 12.242918688160897 16.012645673095857 12.289556167311025
Fe 8.672263584662074 12.669197033580224 13.509609351577623
Fe 9.736796006608902 12.384966868839964 9.893346949085311
Fe 11.789962516386083 8.928354952849615 9.679079701237287
Fe 10.348741077864005 14.909198334301827 13.106324090352691
Fe 14.409502586963876 15.512372328560716 12.934046142285021
Fe 13.089063377003734 12.240343668455658 11.16632573949885
Fe 11.238737433739304 10.861585287509252 10.81739449547932
Fe 15.221793042395007 9.0880942614598 12.123001826461053
Fe 14.80562062310561 13.57755560391652 14.250747314945224
Fe 15.191962229013988 13.356645419368887 11.807023993379389
Fe 13.175391920736315 9.349720162849408 13.841543430512
Fe 13.18075425149271 9.747192709545635 11.52894400873125
Fe 13.22263123934614 10.758510304692475 9.128946787339997
Fe 10.041731831897545 10.96562872691103 14.236091910508486
Fe 11.730453794617295 14.058134121173792 16.668616263850648
Fe 14.340013271006063 8.751825207131521 9.755543979961146
Fe 10.885030694340296 13.208829872345497 14.65106606507807
Fe 14.014683498266843 14.271831432748845 16.403096422253384
Fe 14.545682794499081 12.915902896721702 9.36003054955829
Fe 11.239400002735007 14.311182268476667 10.777992382879827
Fe 12.111850965711195 11.251551314018537 13.272287113741355
