30
Energy = -206.42735929 eV
Fe 6.666020881126475 8.930366861243163 8.37122706769674
Fe 8.149086724549573 7.474076639594302 7.118627519184781
Fe 8.830206486052065 9.667374378421004 6.875882504468079
Fe 7.136678934304992 6.669790429218961 9.08228256999019
Fe 7.127429041650747 7.965295892619087 11.105464119461695
Fe 7.762142836367052 11.089767789904373 8.346842826149032
Fe 9.859909244830808 12.795020546911921 8.45993749648446
Fe 8.849951051410118 11.354074503522321 10.339560250609162
Fe 8.783744845623444 8.75873535670885 9.507426805871907
Fe 10.568407295638773 8.223348696371612 7.68487555643209
Fe 9.573258145011074 6.254950413887178 8.4822080445303
Fe 10.352081125832479 10.513560522001939 8.502719872634595
Fe 6.713410908557444 10.215386774621058 10.41948143969467
Fe 8.778187061228216 6.203047630952195 10.668731003675527
Fe 9.454508847669677 13.621581569277625 10.700228054321904
Fe 8.389520441256339 9.77467948464032 12.14636375705212
Fe 11.589762803583621 14.028694762816537 9.482153663795483
Fe 10.930657618030935 7.472489454147449 10.026266938357963
Fe 10.609789236933937 9.68594197192945 10.985334013336496
Fe 11.290558448604495 11.86778372603926 10.342952060383581
Fe 12.48798204560889 11.908689219231965 8.414346241807369
Fe 12.35006362957931 9.274722533172298 9.160978758581233
Fe 9.670390711517305 7.8278291414527565 12.071175465605128
Fe 9.927930203333629 11.758963517735832 12.44305901465247
Fe 11.494310683887624 13.539625622006856 12.01168263248486
Fe 12.724141237984425 8.826826095204531 11.337828789303966
Fe 10.82804441372151 9.747791486668794 13.28400444481549
Fe 13.535975666149763 13.051958012270756 10.66867227793804
Fe 13.585024646329682 10.830457279214128 10.262757658243734
Fe 12.481316149396367 11.240848154702096 12.293122585827344
