32
Energy = -217.17370831 eV
Fe 14.488936396721021 10.211680176008086 12.215387568449318
Fe 13.94437056668535 11.69742706510767 10.426124222226974
Fe 15.018963420447818 12.616284636210422 12.656422716036166
Fe 10.19860762889119 9.197215372143624 11.905891534072547
Fe 10.004341879697883 13.182171819080526 9.010987250968013
Fe 14.765911008855102 14.02627903374811 10.664794484742092
Fe 10.796989178014796 15.39620682759127 10.30980750620006
Fe 13.158601481841787 14.052836993015736 14.032122864234031
Fe 11.037959476373182 12.679602069498646 13.806561607970442
Fe 9.577541037064865 11.06026800678802 10.291799156125538
Fe 8.504016799147537 14.956774443906356 9.498873226408776
Fe 14.966371921830278 14.988209901689123 12.745018309814329
Fe 10.766392468046844 10.221940999299946 14.093062012761424
Fe 11.752183978963606 11.646244569147681 9.56242188355724
Fe 12.626989906114218 9.097198437293144 13.255712306775145
Fe 8.90177608076358 13.689699048954207 13.22749896742238
Fe 9.194878978829536 11.38864897297055 12.609981012346728
Fe 10.525010733753538 13.160970078975502 11.350723634929562
Fe 14.805378497194537 8.180784321689291 13.477731349744001
Fe 12.494869823210257 9.390399190061851 10.508822908174793
Fe 13.188757813776755 11.492014150501072 13.924104274590928
Fe 8.148746890094783 13.070651015159738 10.926515241244392
Fe 12.540195144276765 13.866361638214777 9.599962976851083
Fe 14.124038991818637 7.8324446578952145 11.301633866164392
Fe 11.061875248234054 15.033593889714423 12.907056322932375
Fe 13.000081984099959 15.52596647560021 11.484752620896442
Fe 8.905523968282026 15.459479603177243 11.748594925174304
Fe 12.749293606703812 13.194466153035671 11.966766030715606
Fe 10.896283402930361 7.585202061192446 13.510042994591021
Fe 11.696534170679344 7.2601235446166665 11.299860685361349
Fe 13.121879058321403 6.5710084525050085 13.03891076919025
Fe 11.664284467014397 11.101841306298631 11.956162332175582
