33
Energy = -226.13672886 eV
Fe 8.357146321109814 9.149695119511968 6.860509116751819
Fe 6.215758148498613 9.92686726557939 6.7035199689609115
Fe 8.22798478874178 11.441908120708627 6.41671356127067
Fe 10.651748670518453 8.467122148472578 7.4586657239113
Fe 10.630825033585038 10.790066343947005 6.928609393500706
Fe 12.871350775227311 7.810515255739682 7.690885793078034
Fe 12.950120667652 10.186972757994743 7.580316684923222
Fe 9.080284837544495 7.635216587628649 8.768730106360692
Fe 6.876063612591954 8.829953423956221 8.788111478203767
Fe 11.45566591976299 7.269911535171605 9.496235073773846
Fe 7.045628036246304 11.176852037144762 8.467589793715298
Fe 9.260069631087653 10.280570253270955 8.742724390890263
Fe 9.270918201563145 12.548916773091 8.297935019751089
Fe 11.569919692556924 9.669166501724993 9.299807412459414
Fe 11.575615390599229 12.016851308847885 8.844478381133632
Fe 7.720350092644759 7.498511849618812 10.8510500723943
Fe 13.624514892146472 8.74740196721604 9.672972031966156
Fe 12.127065979247952 8.158433971587879 11.514914409981763
Fe 10.163543699603817 11.369811007637482 10.70578435149526
Fe 10.19857882591578 13.952859086183878 9.901819312413958
Fe 9.950487480947652 6.645918758413239 11.348239738654595
Fe 9.756463554471177 8.869650302324118 10.607000062034158
Fe 8.470692270087506 8.737504268554376 12.728814871112887
Fe 8.126984343673731 12.472583988905233 10.434952795963737
Fe 7.823719021195855 10.024492076009942 10.714734357985451
Fe 8.33216647974762 6.465816759736223 12.996064391546716
Fe 11.355412369087 11.943090519418261 12.952465431966983
Fe 12.013916251465835 13.122395704404552 11.019490242041124
Fe 12.518870496835683 10.713750537427822 11.169178056064977
Fe 10.65829776511284 9.745602820779418 12.601895569517675
Fe 10.536790630999395 7.521704418360328 13.401454207717865
Fe 9.675959298311154 13.404336259103657 12.109749795428112
Fe 8.802111235031832 11.267180537840648 12.688458575785967
