31
Energy = -209.84186694 eV
Fe 13.584814342919488 16.189184870987635 15.56108330911669
Fe 14.387090669538978 12.987450689792558 13.119066145384508
Fe 12.502873278555818 12.662377430931551 11.363695140128797
Fe 13.914197582483434 15.308690773481123 13.312149898938161
Fe 9.735421209852975 11.060090427091671 9.90705886352078
Fe 7.713376262654529 10.598069288136365 13.59654719755335
Fe 9.609273022325421 9.31775267031238 13.967214117282456
Fe 14.296689830198533 14.277788434916067 11.030809422164012
Fe 11.913141354977839 14.952063953990885 11.999005132602788
Fe 11.674794937186089 12.176962180852481 8.77930945057649
Fe 11.704058915279102 15.109908313727498 14.405660764306827
Fe 8.996341664365975 9.662612149977367 11.751021489301692
Fe 10.74008725722598 11.36892325845979 12.370269550452562
Fe 14.005862626849392 12.830532377820594 9.024769151109398
Fe 13.644063196341431 13.892636134704382 15.316774874289486
Fe 13.828487565318275 10.421219884917305 8.978921422176628
Fe 13.225855418268845 10.809608955481496 12.832953686073092
Fe 12.06604156873082 10.496983411473746 10.585245998938472
Fe 14.665322312305017 11.644665084619987 10.993295244653059
Fe 14.047740777146053 9.252057688747866 11.184323455359488
Fe 11.55809771490498 8.915929145865078 12.34056908221675
Fe 10.012993872595617 13.84359135870872 12.950150861184792
Fe 10.336126649886744 8.62201431843894 10.044433845846617
Fe 8.54408127183957 12.151802475294353 11.967820171026698
Fe 11.45194572651284 9.810369358618473 8.298633997960438
Fe 12.617172889203605 8.26161749150256 9.62469845616866
Fe 12.007195975594149 12.763916499782784 13.921216250609202
Fe 9.529094996897197 11.869541728745586 14.392483872232956
Fe 11.544745577332549 10.40492360231645 14.537951731507796
Fe 10.344774537654809 13.33729846836136 10.575883519513804
Fe 12.350871306499013 14.4010835398929 9.600963840085521
