31
Energy = -210.21196345 eV
Fe 12.990684623430258 9.295207592937842 14.048144553635801
Fe 10.606984148114643 9.648661839212487 14.030202195029998
Fe 11.94109062244596 11.463683170363321 13.387163088043357
Fe 11.321305842831057 8.015541814535478 12.539720300428733
Fe 12.962188503662613 9.769414043217031 11.876142603810994
Fe 12.671820939934921 11.855494953985229 11.059428435898113
Fe 8.88890633067014 8.942417405866857 12.693225268894924
Fe 9.310770851328954 11.489308263502346 13.139350582497489
Fe 10.68511971060717 10.231623376703068 11.50729680771963
Fe 9.592135362987907 7.733966549998239 10.796192237383222
Fe 10.865015291033922 13.047255919856443 12.089021191435208
Fe 11.778300459376437 8.611574892167003 10.244106505237667
Fe 7.172893163256293 8.323189001388208 11.075320053713519
Fe 7.641135490347061 10.615498531191719 11.673170017768964
Fe 13.734309402091421 10.082569430399683 9.552896518097786
Fe 13.260698206621422 12.36993961711196 8.856464183422329
Fe 11.077275584594886 13.18074004133409 9.593239146387894
Fe 11.266444499414478 10.647648397983495 9.254183617292513
Fe 12.52619557557509 8.642001618157744 7.990026765858034
Fe 8.8923111485467 9.833937716961382 9.914918036723837
Fe 6.5763902885869285 9.334678202450737 9.068311456107903
Fe 10.179649153190404 8.486112487356241 8.406863783262242
Fe 9.260279265464142 12.02410242347982 10.667568520537252
Fe 5.6380242100489175 10.344217659124926 11.0448916681099
Fe 13.043669075971525 10.696958230351632 7.229024452889632
Fe 8.059332799153529 7.53444180857307 8.932205581396987
Fe 11.31920426551688 12.433363715418205 7.348385007581319
Fe 10.74189384604514 10.166801065764059 6.814942743169959
Fe 9.287662540265865 11.758089344768015 8.275559915752067
Fe 7.1896579624760895 11.575667494885463 9.45869404785243
Fe 8.315643553775455 9.78274175937955 7.549350192089857
