35
Energy = -240.92528009 eV
Fe 5.976628286596741 10.237901456065707 13.410422478447671
Fe 5.796466044063831 10.194350098076857 11.005072536058906
Fe 7.047225992843789 11.869018481892201 12.035594321836669
Fe 8.160635043048797 10.80053222957333 14.30148187013598
Fe 7.241129444803954 11.764498558966311 9.511107400389333
Fe 7.885477806769164 9.644397735605068 12.194514002021034
Fe 7.719043419124281 9.264663780187778 9.764861210680381
Fe 10.928758992643905 12.03290816893803 6.8956326475803325
Fe 8.455764003221077 8.38271089158682 7.642009456915883
Fe 8.47951688539022 13.364222386054193 10.801394636208977
Fe 9.374806753857932 12.085333301117702 12.734475272892924
Fe 10.63868749249472 9.395929868100714 7.021490257901969
Fe 8.826107641971031 10.670621163389171 7.988052390682268
Fe 9.360532709229295 10.85742316514381 10.588941553979723
Fe 10.094377317769734 9.758792162755777 13.000271502274135
Fe 9.508940866760593 8.062198780466751 11.346917348476918
Fe 9.47169133200969 12.847633341571717 8.742434729087853
Fe 10.572009293065243 11.467971842678402 14.662278323343807
Fe 10.822609326834106 12.799451341486284 10.789570529935636
Fe 11.295702706856526 11.027041288374068 8.927368462995423
Fe 11.846792635571118 13.434718513259165 8.713830420625417
Fe 10.071544008613778 8.84298176754173 9.192100775407484
Fe 11.647960651561633 9.746275911213152 10.91172539197903
Fe 11.74012132613326 11.564716721561465 12.586361916794901
Fe 12.705954830785897 10.384324924632033 6.559080260401026
Fe 11.854903041475831 8.009613870005706 12.483317010648383
Fe 13.05661010035592 12.06416308118574 10.57346317529233
Fe 12.072449923546724 9.664171400442402 14.204928304953814
Fe 11.517431034703211 7.266662603095441 10.131274879849771
Fe 13.513452135508455 11.750048791238504 8.164868435498931
Fe 12.516060397093932 8.975521906721363 8.647195748092287
Fe 13.566451310620439 10.022452036759027 12.299873704562849
Fe 14.319641689424905 10.217994856498438 9.969873425736395
Fe 13.62769664799196 8.138526461178982 10.748820351881767
Fe 14.513206785833834 9.494660435669816 7.795276598809897
