38
Energy = -262.47795849 eV
Fe 11.205856245489494 15.619756254109388 9.114148421734738
Fe 9.585966438674767 14.210384685874345 11.169927136603302
Fe 8.551968146719545 12.088205823754553 12.036522690096932
Fe 10.936531910861133 12.161854864717963 11.872401448303336
Fe 7.625623291091043 10.175872616126025 13.227622171501837
Fe 11.693817787085646 13.733801797722803 10.306065517607362
Fe 10.033499782406313 10.450059092527823 13.488272828483886
Fe 6.389929312770239 11.383194066557852 11.26574571369874
Fe 12.466370137765082 10.798370798660846 13.2789397242136
Fe 7.682644952095942 13.101774196692629 10.012700337978046
Fe 9.329677370949122 14.288233477279254 8.8508697750978
Fe 13.393524881941687 12.173535532505687 11.47913521599943
Fe 11.276241040465663 13.238264891405311 8.06448562469628
Fe 9.85724778292876 11.964552612730762 9.737138075212238
Fe 9.227376985374574 9.887358574713659 11.30024664722572
Fe 6.807139284985256 9.05131875846619 11.389553327736596
Fe 13.953446494367958 9.934041850065823 14.87170676514314
Fe 11.726156070367596 9.159130463804784 14.923477382312319
Fe 8.568079123194547 7.9604132591948575 12.517727847332837
Fe 7.728287036821707 10.65908396031511 9.609486452940576
Fe 8.352722153456941 12.316179988718872 7.816580185873377
Fe 8.094996859496918 8.20351063149629 9.686796008604189
Fe 11.636184756181326 9.925988371708849 11.182316081130898
Fe 10.98630569381644 8.335739759826408 12.847032647856212
Fe 12.218373250701589 11.43795002622055 9.452293567051905
Fe 13.41794093056344 8.635283590261608 12.979610863091612
Fe 10.304651450601215 9.573494719257088 9.098323127146575
Fe 10.189657519849273 7.597035876838758 10.612134023005918
Fe 14.89637590630731 10.897178030202875 12.914062527972133
Fe 10.28952014513542 11.217255115789357 7.252321183464131
Fe 9.540790907832008 7.502095586420685 7.931573128040181
Fe 8.511321434993894 9.652114484733877 7.553937012855623
Fe 13.99820057897682 9.958455373522895 10.96285581582172
Fe 12.618938331585609 7.746434643306663 10.802917880482136
Fe 12.936350287708283 9.235430849536364 8.85484658604427
Fe 11.690215220296244 7.154647259981941 8.714465052825256
Fe 12.668204272557878 11.207091247096354 7.368382811723716
Fe 11.28895046664148 8.980572827928816 7.09755136637792
