35
Energy = -243.63529728 eV
Fe 10.749246793029888 10.715995542210681 8.993206943001143
Fe 8.258717632146386 10.332670235853126 12.142383530524215
Fe 10.675154924299814 10.993530586172158 12.789012875379917
Fe 12.32135524993739 8.982851833734104 12.379218996246381
Fe 9.826980689800022 7.182082841303695 10.834203908325172
Fe 7.73838933766521 8.583351453223566 10.154784743424045
Fe 10.067723389580477 8.6055149291215 13.334956848470032
Fe 11.418279063443904 12.088526520416998 7.1938455225320315
Fe 9.46589929885867 12.826920272386696 8.585300115721244
Fe 12.085104375644868 12.782273638374914 9.47579847497375
Fe 13.21923573857025 10.736953707047483 8.545662054902875
Fe 11.513442566965908 9.461181871487176 7.171727730658111
Fe 9.236539597339801 10.64303284691413 7.195391127046852
Fe 8.313618955501676 10.829225055267193 9.56696094531304
Fe 10.031860703669102 11.99052530487413 10.866140146481339
Fe 12.273226824034364 10.7524197918176 10.901378253737446
Fe 11.887179543626694 8.542828310003422 9.573322931750416
Fe 9.55653686926741 8.553761642081728 8.596417679985061
Fe 10.099018350640229 9.400621149569426 10.981018555784932
Fe 13.035121774625324 11.44581103652855 13.366610718977324
Fe 12.132447787239819 13.099053469643719 11.938595876351725
Fe 14.090485072015815 9.217441270935934 10.17279631021757
Fe 14.169490329048015 11.932158970977584 10.862352493212247
Fe 8.089897612966054 12.994439935081182 11.065455695014416
Fe 10.408992427712535 14.275765023533559 10.366333065481953
Fe 8.463715392561348 12.263310751341239 13.479359244256727
Fe 9.179965250945704 10.348094865043063 14.628590252262875
Fe 10.868746225229888 12.288292711204841 14.635107439217188
Fe 11.677599245191535 9.892400730292403 14.635846175592782
Fe 10.065700537315983 13.701572051613516 12.775172752282009
Fe 8.159232380742063 7.934516279443935 12.300477548813626
Fe 14.48253893036829 10.079673427612228 12.27599011275456
Fe 11.142603715589702 14.347235496259028 8.069280075725597
Fe 7.428937823269425 9.346804868792146 7.926650518452682
Fe 13.546299464950469 8.508445456042514 7.899934213331745
