34
Energy = -235.19051135 eV
Fe 12.66641105829335 9.562344824016387 9.639854872774514
Fe 11.498600280756744 9.057941269118299 13.435208398410971
Fe 10.40562299035705 9.983068687877479 11.113875372081617
Fe 14.309625527100087 8.118082588725084 10.498709305263294
Fe 9.642602196129806 13.961306537641555 10.552580090792867
Fe 13.763842595857307 12.906317814721055 10.736545666724476
Fe 8.86909201757076 11.919629960253726 12.00110489207504
Fe 12.202878976112837 15.083329074263604 13.716029969903369
Fe 8.807528863260165 9.065876938772492 9.29465886250134
Fe 10.768725093801104 11.332303340305051 13.2218036423488
Fe 14.132692626197642 9.24553263521667 12.7529095888113
Fe 14.240294576760597 14.524737894254521 12.556396937508483
Fe 12.702313244072958 10.648582808540702 11.684317380306288
Fe 7.861455205508553 9.835990036610868 11.248172496143345
Fe 11.589568068833971 12.927886209506077 14.978371165321947
Fe 14.041077487819075 13.212296899303976 14.624756882212463
Fe 12.548317031305515 12.85249513468455 12.760760147499173
Fe 10.715638546193883 10.483067238005463 8.635866709975149
Fe 14.772342320384556 11.77018832621889 12.652579949304341
Fe 12.862168002653556 14.68211278455997 15.905351047105427
Fe 9.121345545814986 9.608695626595582 13.247559098833682
Fe 10.869678462910986 8.01352031932688 9.461634462503085
Fe 12.436433099782311 13.996046227154277 9.095182458892207
Fe 10.642151691593012 15.53096085582555 9.106810752234543
Fe 9.5878266650682 7.8966785180203205 11.577034014494052
Fe 12.876522284080352 11.737547704224976 8.86775819120789
Fe 11.178462158296904 12.268472641588739 10.74322741397948
Fe 13.033203252920394 10.890018282337241 14.242327721007575
Fe 11.953922188490992 14.724931364726984 11.232573500442385
Fe 10.468248412966744 12.929075245672001 8.441184504188287
Fe 14.785987959343732 10.585545443307067 10.588976509208663
Fe 10.273451520855941 13.750946550783324 12.90483428757497
Fe 8.856119759174378 11.544036171148512 9.684295899037222
Fe 12.108683434162725 8.084156252024746 11.493369313752293
