37
Energy = -256.19160623 eV
Fe 7.225693228666751 12.537949836466426 12.898072174590856
Fe 6.553758115464062 10.380819120038542 11.920054648096269
Fe 7.249587418553877 12.311805840549866 10.562555489183538
Fe 9.57708092750956 13.53486067965267 12.452165885921739
Fe 9.427405676290311 12.841403278689095 10.2377607912536
Fe 7.42572383658909 10.273347074455701 14.049827400611276
Fe 8.142125712227148 10.021377912520787 10.23505464801124
Fe 8.802238121068104 12.114081249439538 14.509063914338793
Fe 11.549788271590822 14.440049304369914 11.260101816133044
Fe 8.295874841900767 11.526874843002398 8.421891522069187
Fe 9.079069002865134 11.16484612246163 12.136043258354833
Fe 10.147250244461981 14.772585658364461 9.462840944903206
Fe 8.61613148199324 8.831350050396065 12.377553091785211
Fe 10.189971942761279 12.8543709904321 7.887758202714021
Fe 9.005415287992102 9.0908969622495 8.226547410705221
Fe 11.379125039544352 12.182779281899393 11.520848860263596
Fe 10.43595653994086 10.747292997503294 9.684855238576876
Fe 9.741481743398504 9.716782942570152 14.224272473074645
Fe 11.14766568335434 9.85517139588242 12.000421083072627
Fe 12.000476672176065 13.008348131908496 9.328269322844458
Fe 10.077949952185184 10.65716276842976 6.982360753313346
Fe 10.05173955979257 8.498365370689699 10.394857636418067
Fe 10.966495735163234 7.8162651793086155 12.827700402960442
Fe 12.176292049231854 11.126295332533061 7.92439637415808
Fe 13.622882079317483 12.882833195282226 11.106654486728198
Fe 12.082973119968091 9.468575946891225 14.296447988443326
Fe 12.798799816727918 10.4626410861295 10.268581478602247
Fe 11.00250790158295 11.699422718440921 13.782167592571605
Fe 11.412593284493388 8.965374369771116 8.273320016036449
Fe 13.210653844717063 11.276118267793185 12.875518043119996
Fe 13.378305601754152 8.946298323825232 12.363186660039796
Fe 12.43210143247997 8.175808041820062 10.309895702240423
Fe 14.258451176233928 11.800582051112453 8.942625684759575
Fe 13.857672693369807 9.505395841692481 8.35167166458389
Fe 14.96610655753791 10.829242462319629 11.265587994309254
Fe 14.821036036597038 8.60706370671113 10.466914431114725
Fe 15.9681148697393 10.152057163636783 9.248650413337224
