35
Energy = -241.48783606 eV
Fe 18.087680871499852 12.161364836538164 13.538890529672452
Fe 10.639928439126447 14.705276808653377 10.95298942565477
Fe 8.719572842282039 14.260360633880001 12.228746880788922
Fe 14.738503363465508 11.424664261918537 15.293448592832066
Fe 12.82280920984207 14.932188905433012 14.210151875699285
Fe 10.600834008859149 15.715859186316909 13.279596608566742
Fe 16.952031962413095 10.452243843645087 14.375714949577103
Fe 12.762586679650026 14.087135058886332 9.435544538368589
Fe 12.392369781834784 12.65075948994566 15.285080919987037
Fe 15.791152860591021 12.25566380260051 13.114007525679769
Fe 10.039832600888687 12.259882042191496 15.335233165017186
Fe 12.770257182259577 14.575416225526611 11.877104663476867
Fe 10.455995125462607 13.325218929627738 9.12553911375035
Fe 12.099294751459654 12.226257810042348 10.945034483332856
Fe 10.913736460912052 14.589951442314874 15.558338753701017
Fe 14.675231054498804 13.348366797337885 10.955019765108979
Fe 10.06704816601008 10.8851810694214 9.104819120355724
Fe 9.694995129488147 12.28092836869552 11.176544909996135
Fe 14.189581549673726 11.964751620783897 9.082358026442245
Fe 16.867221321977084 12.683089776677647 15.568220179184976
Fe 13.370463953339126 12.356841716558616 13.119631715737446
Fe 14.557413628973771 10.99376518553748 11.195673209968005
Fe 10.984336011885889 13.41574207412969 13.169815330681953
Fe 12.756452729191734 9.871628232854668 12.228393227578286
Fe 14.89230112879862 14.557580998504756 12.953803165301876
Fe 16.92709883554728 14.294361667170685 14.192587045596378
Fe 14.796428124209148 9.998963358184144 13.39037837822689
Fe 8.896067987389554 14.220335807983252 14.532395480517158
Fe 12.09181692187616 11.993800632948753 8.263229524248157
Fe 10.597086322953077 9.99962073690135 11.249998793439081
Fe 12.536111235357854 10.154975859651909 9.75552833733308
Fe 14.632194167239039 13.722916318949038 15.173990383702463
Fe 8.776615826456505 12.022934212847268 13.372308826020673
Fe 11.008432077784821 11.121911587041879 13.268376364838725
Fe 12.723048994529636 10.31156483716571 14.747910208932737
