31
Energy = -211.48955434 eV
Fe 7.293963163435126 11.149489359375927 6.57638260136287
Fe 6.88462472304937 9.969246004617233 8.603513536147835
Fe 8.431385964274108 9.208255105387439 6.910540843869608
Fe 6.887160952383067 12.335530134301424 8.647797965471744
Fe 9.818245284190803 11.19308960540772 6.097815796615806
Fe 8.390641488951706 13.100867436971448 6.95485655910821
Fe 8.862252818363052 8.861639343882514 9.310253155943983
Fe 7.83046230573505 10.89936374751972 10.531313311138131
Fe 9.112267562706316 11.222674894503756 8.332118897684865
Fe 7.927691481822519 8.460225293490415 11.683872434963568
Fe 10.646313409342428 7.105746603669075 9.036929733780408
Fe 8.647327738289016 6.660157604990507 10.270729927980355
Fe 10.576471313500223 9.243733512575501 7.4511119636482945
Fe 8.996927759136701 13.49491113527601 9.230809300734691
Fe 10.606160070896967 13.116559746585743 7.496484909475318
Fe 10.73975717250843 5.7943835213926835 11.057031888767458
Fe 9.1579618992529 6.455967179175322 12.578837981760906
Fe 10.518297301528506 10.521964876091733 10.235900915811616
Fe 9.408667825793007 8.366578278517043 13.639521934117216
Fe 9.177717577366467 10.428556838779265 12.527645941767032
Fe 11.795388554057237 11.19736068857511 7.9083883100864565
Fe 9.385464055797891 12.501285581393118 11.282217818556859
Fe 10.331822491151618 8.228917595620327 11.295933650083313
Fe 11.287342873531712 12.832437189016767 9.778090002535604
Fe 12.168390548328752 8.971031212109523 9.167437100788375
Fe 12.513496393824262 7.134694357801519 10.627516385323108
Fe 11.577857433594891 7.211567402799527 12.946503756825468
Fe 11.283368755831237 9.621644797298625 13.335404763819334
Fe 12.858266272491722 11.09190178546662 10.08093114508493
Fe 11.479550037687003 11.59769669532516 12.026175861815556
Fe 12.688568686612356 9.28324855228858 11.595488445704794
