34
Energy = -232.30020973 eV
Fe 15.062780297801872 10.837263437886381 16.25659702210754
Fe 11.560510028372551 12.459096380808852 15.522072752955436
Fe 10.299429287063417 13.884432975853645 9.296856924074024
Fe 15.535738358923382 13.614073301820882 15.909394697782226
Fe 12.485792532267503 15.03027168864504 9.688034218942233
Fe 9.668802414442235 14.754236289671722 12.499291898574809
Fe 8.346839586380721 14.706026075242635 10.333586494165866
Fe 11.338162004557818 13.356591176939041 11.376532274607953
Fe 11.321317765861803 10.241931854010923 14.323168796520937
Fe 14.798972337743038 11.513974795201099 9.966090907742045
Fe 12.758656103572074 11.2524745920039 10.954836772020174
Fe 13.961110823489516 12.482617347814953 14.955035417612734
Fe 12.398046337471966 15.470779762138323 12.014056546883527
Fe 10.410285789812852 15.831563228082423 10.70407787665999
Fe 9.096266664087853 12.716032015660586 11.160548172838954
Fe 14.775615608739594 12.17137414888996 12.599872413751147
Fe 12.472816493860748 12.028498462996428 13.152211075682603
Fe 10.00420873835545 12.458388531218196 13.552834590048873
Fe 15.12763654086655 10.061710689288628 11.880740830219972
Fe 12.651874249460594 9.34785717809923 12.427449891708434
Fe 12.911175282850689 14.445323077522119 15.712005469620925
Fe 14.039372221070169 10.229893047130398 14.120377653946115
Fe 12.828708090781387 10.512742293841123 16.223865417336338
Fe 13.967143039398545 14.370867128011254 13.446881456577746
Fe 16.149804252714233 11.79638767664801 14.369126814409286
Fe 10.638916437895087 11.519186438517567 9.698934820894339
Fe 11.429373954146586 9.277066584200014 10.273053929727446
Fe 10.600619216586491 10.780234843064733 12.042495962091449
Fe 13.769182246583743 13.58302798308515 11.144194801340989
Fe 13.859668474722067 8.969767744957673 10.29265699916776
Fe 12.656335591203055 12.812431709776352 9.065813030155695
Fe 11.579580367068925 14.243367228996187 13.81865017902839
Fe 13.738340187305965 12.648203977844533 17.23764082319279
Fe 12.847168803128168 10.402211463355085 8.72415430053619
