37
Energy = -254.43353739 eV
Fe 10.103323896669515 13.585144797024169 9.490432802529893
Fe 7.795943160348855 13.470225469664136 8.464019382482618
Fe 12.281325087662832 12.73862387328736 10.866053112359005
Fe 9.687634563089304 12.615909159134185 7.206721290058592
Fe 14.14369887327298 11.689314316665994 11.891255526679494
Fe 9.987625642793038 11.947889342390274 11.249910751198916
Fe 11.572693416883869 11.749717702283958 8.820366614382506
Fe 13.634375328511975 10.767189302834772 9.841451314776041
Fe 11.816742294130147 11.333256199571656 12.773462772991326
Fe 7.332861985326247 11.610742040656033 7.085634717977945
Fe 11.323753797579142 11.031011512944664 6.5575780899388185
Fe 12.748066111740489 9.717310929146214 7.879675417345276
Fe 9.057573652051598 11.319036260451087 9.125971654089177
Fe 7.950882211988337 13.060397682444115 10.733203204634005
Fe 13.391380667224606 9.274188224483927 11.755591501708638
Fe 11.344568891328697 10.082121681024537 10.549231666588375
Fe 13.707695247292474 10.43631367654377 13.756461186557472
Fe 9.083665074519232 10.20153914327402 6.642006203045388
Fe 10.428290046101887 9.396637088437787 8.345575054515098
Fe 6.46694892907988 11.54116981237142 9.335037083418948
Fe 12.533682807867095 8.14873271521053 9.637615569460232
Fe 6.975492694310798 9.072961374820943 6.519466041249887
Fe 7.761097274953073 10.684228662251765 11.127591695087155
Fe 11.570020857691945 7.564539420631402 7.574599328322768
Fe 9.666468469249018 9.85183648987559 12.394345627223558
Fe 7.572745636323486 9.545893108612647 8.5899560422489
Fe 11.714386865898133 9.042812526121198 13.41420040266485
Fe 9.089422027155866 8.82010979645008 10.295257759706384
Fe 8.885753706009929 7.715655461720859 7.626895790904264
Fe 11.064266613406907 7.807362999364202 11.504279601859261
Fe 10.243067970356337 6.8744693352110895 9.425710440588436
Fe 6.252309987852788 8.928781913548313 10.350466885814974
Fe 7.660145105999018 8.380264572421591 12.15010189386137
Fe 7.603813300240885 7.1198505840392885 9.52977038307772
Fe 9.606026869715867 7.617791979617903 13.339952283744006
Fe 8.86836916456793 6.430853870039502 11.458309977454931
Fe 6.352688540585494 6.596820416372218 11.48353417669265
