38
Energy = -264.86214649 eV
Fe 13.153050378745736 10.601774702838147 8.738744186163952
Fe 13.903605636784095 12.051272562055576 10.49317618853037
Fe 12.94112860262087 9.827870476925556 11.135529545884127
Fe 13.481143067465153 8.340641272632338 9.329997677076948
Fe 13.765072747951011 7.977212291324664 12.339027551586828
Fe 12.486341699060352 12.960491414983315 8.552399679442846
Fe 11.896246701975194 8.993579077372585 7.404015026356409
Fe 10.865755090734497 11.169670850181166 8.041973551061705
Fe 11.978037532815955 7.380374241991104 11.100887933938406
Fe 11.51054504169511 11.539768760714912 10.340426627250968
Fe 11.89935653095025 6.831616497320489 8.725552878041547
Fe 12.476403692330885 11.790359571261188 12.514248616738573
Fe 12.349842839212313 13.81206963196375 10.940742068385825
Fe 9.968446063745105 10.138209485610098 6.213949098796526
Fe 10.12436634198107 13.080406820783947 7.132071468561688
Fe 10.114449250592992 7.536774768889607 7.3845919430781555
Fe 12.108300122092805 9.465174493189124 13.335157816262075
Fe 10.383875460992037 13.539248620921791 9.561420218321755
Fe 11.76527159280285 7.13001756104936 13.500583322122475
Fe 8.28479783664645 11.541782797502224 7.431506728497861
Fe 10.956161948949111 9.210656568516777 9.766178123888684
Fe 8.281005505419888 13.805261138726285 8.463672684146282
Fe 9.13215763158417 9.366359219002911 8.238282190481094
Fe 10.053017904546277 10.438018664048897 12.03282337772391
Fe 10.315140763460956 12.877946032787545 11.98133048310876
Fe 9.120520557887824 11.414523624034123 9.758585508557994
Fe 10.766668998918059 11.50414122071693 14.127327422085447
Fe 9.720721904842316 7.129841173455586 9.777925702904865
Fe 10.07941101113388 8.889868719816254 14.319655666716251
Fe 9.9776937944989 8.025653065232342 12.11414417524875
Fe 8.731620238969386 10.666402151208718 14.781428319721503
Fe 6.710318935723981 12.358906902501507 9.301892619203393
Fe 6.990823814381213 10.076148921368882 8.964541707726465
Fe 8.499697630945063 9.069823631885097 10.531979686069599
Fe 8.174073450835042 13.435516793390565 10.90651008994916
Fe 7.988669455147798 9.426895793283245 12.95076745095871
Fe 8.329877200437672 12.147322800467242 13.091638202356684
Fe 7.3265118102612625 11.05852646918272 11.28544325219062
