35
Energy = -238.62305676 eV
Fe 7.377706955327649 7.807048508588725 9.063764191859127
Fe 13.080220463801423 9.638641073616235 11.049210080666619
Fe 13.409346944617903 11.74668580287879 12.26019872701925
Fe 14.147282736307918 11.171838191570037 14.733690035635313
Fe 11.493169853649208 8.989517839181234 9.372574473843686
Fe 10.695642961686573 9.197449536717583 11.673488840715315
Fe 14.715938162925097 9.686253229992616 12.88463310949498
Fe 11.830949711891893 11.76788275816536 10.033541309257094
Fe 12.586302343418973 12.483490625464757 7.708200359962054
Fe 13.260440336758313 14.736167485685202 13.667921876143199
Fe 15.049414810943112 13.389114383422433 14.41007059118907
Fe 13.406048796744333 10.486368230896264 8.774861639139942
Fe 10.300269793998822 12.734117855092164 15.68811714137967
Fe 15.00856133552741 13.572751414566397 12.004202659981114
Fe 10.90018949484354 10.709793107937234 7.896851340862662
Fe 9.409042256903192 11.559636896700972 9.751756120825757
Fe 10.791794173508013 14.830188900403812 12.982490877224459
Fe 13.078214431776543 13.112610667584978 15.876658672843647
Fe 11.859302083782943 12.715349649324555 13.867411470313314
Fe 10.357112371741245 13.11854482155729 8.205369133471871
Fe 12.510681592637559 13.830650381105201 11.5583543224417
Fe 9.221432621882 12.877080506658011 13.307716102550804
Fe 12.286207927612168 9.92906864850669 13.45752591784941
Fe 16.000324369964087 11.626395283329531 13.04028562536991
Fe 11.919091295441458 10.889423333166143 15.621443462244333
Fe 15.266841036958686 10.9257980204171 10.816348284262011
Fe 11.526704664674767 14.858191844195943 15.311143842896469
Fe 10.134997582123644 13.5974701924115 10.855691603567124
Fe 10.905712041558361 11.598670502201177 12.088780933994805
Fe 9.151592421060673 9.26701658726797 9.7508898132808
Fe 9.997774525856103 10.735733997246609 14.12556769210443
Fe 13.986345764883158 12.719407454596613 9.816689452790785
Fe 8.683430658030348 10.740814046029314 11.85914759485207
Fe 12.087677015612714 14.274614659450272 9.263207266669493
Fe 9.254126323015665 14.723066136863398 14.840311621993447
