35
Energy = -242.97701119 eV
Fe 14.855416596514356 14.599854943687609 8.758769927155676
Fe 15.08410960657673 11.219821302569933 12.070814974221678
Fe 9.094755196650919 13.244276548107074 8.91703055172538
Fe 12.952466503445132 14.20369735278392 10.225390467823512
Fe 11.895101243292771 13.056819100421901 14.176282635894326
Fe 11.871464022462547 9.252727701131333 10.60299966328297
Fe 11.383022107712467 12.88914464174908 9.077245045812555
Fe 12.183348882713766 15.1161900276806 12.427079145028808
Fe 11.298368812198524 15.51549484665996 14.583736474179775
Fe 13.55722720192153 14.526574207572086 14.708892916448264
Fe 11.635063307464938 14.173591104624874 16.476934267474576
Fe 11.33403551446324 12.789124183070324 11.690843883436786
Fe 10.329602833230652 11.016088523537281 9.736237704157972
Fe 9.091018019488942 12.506185684641446 11.241341809085812
Fe 13.695829086130717 12.653517644991652 8.31209593586565
Fe 13.983540770366938 9.277265716932288 11.44184651067842
Fe 14.368220879802545 12.030491571478812 14.326629476089382
Fe 14.361599274068054 9.646370338534513 13.883530976931656
Fe 13.04616268011932 11.600693930192637 10.54929532381246
Fe 10.474883380660694 9.838785962556225 14.437871448128973
Fe 15.182098130330496 13.086929795353512 10.501960503956555
Fe 9.843098347368187 11.951116378111397 13.648472183621793
Fe 13.65632532976849 13.254791733840381 12.406529453431551
Fe 12.44697339950395 10.521688308988198 8.578636585165828
Fe 10.277206742636034 10.28503651146665 12.017731439513138
Fe 14.921332131132761 10.759514955499347 9.485506359994018
Fe 10.434593906344885 14.639387995561941 10.57509238364616
Fe 9.889936392984279 14.324720499385219 12.970301495655963
Fe 16.04843496485344 12.54662081130686 8.395447741781403
Fe 12.577750196882329 10.561413725632061 15.259949649542683
Fe 9.612392170551812 13.741057692604384 15.27467907212429
Fe 12.467367611979917 10.970092170110542 12.857338136215896
Fe 12.237310083422306 8.712859508089569 13.13765550262106
Fe 10.766933644810145 11.868354699392347 16.101194049029466
Fe 13.293338577499611 12.606211029541369 16.337384105762872
