32
Energy = -217.55439569 eV
Fe 13.173137069885454 9.38585883647969 16.33491534767693
Fe 14.916551558939425 12.367457197181093 9.86240383593154
Fe 13.636822592948226 10.363174325229249 9.929314381460625
Fe 10.586401961751202 15.289067445624244 12.77951966472683
Fe 10.077199389096313 10.976255191158584 14.669175699566837
Fe 10.240600944789215 11.787693275452867 9.615852234128642
Fe 14.29211983043214 10.187701622907271 14.243716914221357
Fe 13.205052867020518 13.983232049096916 9.15740412722281
Fe 14.38908671159633 11.364535680523625 11.99303025733526
Fe 13.160672629650056 9.253971114050877 12.181496180422075
Fe 14.277750322617017 13.813496042637759 11.658695414826607
Fe 10.967135430696862 8.943251674905014 15.642006127851493
Fe 12.017899547441338 12.715263342099389 11.20442799884845
Fe 11.46070147901602 11.09062028281585 16.679718545359563
Fe 10.245588652887905 13.087200735810539 13.457185740197321
Fe 11.62121617079898 12.697592963262672 7.544745300137646
Fe 13.677417259279355 11.764278628933525 16.04500764831045
Fe 10.067575528487383 11.186486274289598 12.070314056986948
Fe 10.84890306609089 14.126429540227972 9.228159080043547
Fe 11.536252054518146 13.109048061983158 15.419915453935289
Fe 13.748034302622878 11.848770666775755 7.8866501428038065
Fe 11.827213203952452 10.49379713685654 8.291195478919851
Fe 10.154377474606141 15.949341941606367 10.50989492008456
Fe 9.628454223811847 13.586024733381734 11.221658487930105
Fe 11.391428190136441 9.782315131388081 10.632769534275562
Fe 10.908036174608029 9.20350792782489 13.123678057345485
Fe 12.820252134080608 8.230843407445018 14.292939642744448
Fe 12.291628474062962 11.478658911473278 13.554759107560445
Fe 13.683872693026423 14.042900303391665 15.54251849335796
Fe 12.580216106959346 14.064632817690919 13.36898417280762
Fe 12.27516869951928 15.231878670559736 11.10139136597194
Fe 14.605128959876447 12.670212735304972 13.951959038284116
