30
Energy = -203.95320576 eV
Fe 10.687876287728523 12.541001297149624 7.413400680295611
Fe 12.36540308782205 14.12934655671815 7.962087262648022
Fe 8.27549292718637 10.030205396510732 8.014326232902283
Fe 12.780218370098977 11.522115268929083 7.965236272060877
Fe 9.755270521863984 8.160145466257648 8.156054988048126
Fe 12.258375642605913 9.170434022884328 7.819232049598858
Fe 8.409828240944035 6.235661674736288 8.421499243162325
Fe 9.984899863364284 14.082436327016548 9.20169957297213
Fe 7.357635761263835 8.286457347966984 9.158533306388712
Fe 10.614325392669919 10.514911563243524 8.580391963344118
Fe 8.814733477216077 12.04605636833805 8.650670200682374
Fe 10.835494124553849 6.218374811907643 9.184733523219652
Fe 7.49186674119778 10.797619115448962 10.409123366665813
Fe 11.486337141936177 8.36220246020784 9.865879735928447
Fe 11.797351721137517 12.754718270382838 9.701190597381634
Fe 12.43514038989987 10.535541540901235 10.270738236096669
Fe 9.069278234392886 7.006766704649341 10.474574922710856
Fe 9.339758773113033 9.419405726233597 10.394874098952158
Fe 13.111522539919502 8.461440206637068 11.573750717924169
Fe 8.048623577531988 13.381778342955121 10.32462991539763
Fe 7.304362484181133 8.460986291633123 11.487558336102442
Fe 9.920700958607306 11.848976929188602 10.869938270023095
Fe 11.16103742663924 7.010756160376312 11.769451104192168
Fe 13.056555360454155 10.49784818865295 12.780302388383564
Fe 8.133155196322296 12.429485438025571 12.426749593444386
Fe 11.021479950058197 9.638292438353545 12.158956430041679
Fe 12.036434854620252 12.414901085967196 11.979284224668765
Fe 8.597143002974377 10.211729901849997 12.618855653980674
Fe 9.31836121897089 7.975979111503684 12.79145307483096
Fe 10.316703413737619 11.639792668386722 13.360190720964216
