32
Energy = -221.68843418 eV
Fe 8.865486383449452 14.073421684549919 15.543920753170543
Fe 12.436566884731008 13.566371887191877 10.917692316190957
Fe 13.512367359071572 11.804704735507531 9.808048839042955
Fe 10.906592205158942 14.898004485900653 12.1454404702469
Fe 14.647810823945726 12.752415681660729 11.734314421599478
Fe 13.839940400800668 8.334578921847072 10.890752608320165
Fe 10.988730551012159 14.12143348359427 14.555394779648575
Fe 12.547546632737658 11.108867904210477 12.148999611574455
Fe 10.341699151264935 12.573135978831047 12.477305648043785
Fe 10.131072317386785 13.833483334706935 10.070361649712542
Fe 14.230352904000437 9.811169646882002 8.97235764735963
Fe 8.794160196896632 11.669717726500293 10.348532985377396
Fe 10.496272543289368 10.139593984012011 13.67865617390475
Fe 12.00308812265782 11.910593960103261 14.504471464523759
Fe 11.15916464817895 11.722185884811852 10.16127803933929
Fe 12.111267114942796 10.862055419617727 7.983517125447237
Fe 12.012985873313017 13.25294034535784 8.441188236787037
Fe 14.454599155813062 9.18043140526677 12.958240630991726
Fe 8.422685272120932 10.976593233599196 12.64851498398047
Fe 12.69868902038521 9.617369336783376 14.413363491934295
Fe 8.33172625718948 13.635113563508517 11.658094190043679
Fe 15.085776878063683 10.494708434337047 11.150363857636679
Fe 14.333483461360444 11.438565748711959 13.636579123094878
Fe 10.203049498006285 9.979098353092574 11.415401371719636
Fe 9.973492986886708 9.956969844289183 8.889584612035492
Fe 12.007571840327634 8.572354879077027 12.395989785200392
Fe 7.730612903616575 12.91643501295053 13.817563950994398
Fe 8.969934505230286 15.013707928555938 13.45995967477455
Fe 12.076833120155689 9.553675786658564 10.035942895194058
Fe 12.885033017222623 13.606637729495246 13.15001773885573
Fe 9.904615308946358 12.224496614532805 8.151116426991019
Fe 9.646536204017698 12.025192474465388 14.83301068955898
