38
Energy = -262.53458136 eV
Fe 13.801533940225124 13.159321190158153 12.976449651706996
Fe 7.2854609806404715 11.928636613975161 10.644406420705824
Fe 11.443759224123106 10.01387366506668 10.023049730032506
Fe 13.405413658531076 8.737636207383972 9.501685958707109
Fe 10.82441534321893 10.3973240737276 15.423635141971976
Fe 8.981190530100166 12.874310215308025 9.337337046017588
Fe 11.59704072411167 7.335417654782999 10.481995386787913
Fe 9.706884244730134 11.858666382819255 13.901248582465609
Fe 15.557618044310978 12.10567265293334 11.950779725021858
Fe 8.543246392867564 13.157593219083195 12.2406553761779
Fe 9.762960707071356 8.826833624627612 11.338910133845793
Fe 11.166659708945348 7.597019884718484 12.834017687957395
Fe 8.34901655762062 10.506908025340088 12.368528806695599
Fe 13.000597479381623 8.93980587400704 11.673338236295859
Fe 12.830097806419348 11.52046988380051 11.449853427264092
Fe 13.19342936719093 11.113434531565021 8.879943455571784
Fe 14.126102358393368 10.51394165602414 13.205928014534988
Fe 11.171732439295269 10.27590075977625 12.737978693891476
Fe 14.746518993101832 14.765194506213325 11.762143391460446
Fe 11.323084690398096 13.040450161166262 12.572787657473684
Fe 10.012268249400067 11.621971903148719 11.069534608775706
Fe 12.372025246345846 9.033716346832822 14.30000020754547
Fe 14.756935609440697 10.375946931839604 10.600861990573758
Fe 8.65675202761859 10.224008862608535 9.640213509045658
Fe 11.943189833030972 9.401136698865088 7.539583314449444
Fe 9.5911245757813 9.056570882326731 13.95420536375121
Fe 14.211731664710252 13.006729760423347 10.21180637689006
Fe 12.361704427899245 11.70843836854562 14.300462866161306
Fe 10.168384534559143 8.47047117235214 8.745741946099653
Fe 10.46930258978804 11.212395492883383 8.27863533497184
Fe 11.65964947590582 12.811630741777625 9.711302657808265
Fe 7.768810527233976 14.509192836550968 10.525036794607997
Fe 10.102039529505378 14.42854083638484 10.89263938257961
Fe 12.493925868363808 14.600566034028914 11.195693311332269
Fe 12.076620582474725 7.169792669016593 8.226234901549343
Fe 10.007442528779833 14.683621765928248 13.481004752558913
Fe 10.992118002536156 16.245667668650015 12.002935974658149
Fe 12.382173140634292 14.984127303047057 13.324495917834977
