36
Energy = -247.38337016 eV
Fe 10.929862853678774 11.958461158236284 7.159458303697043
Fe 14.229519608340969 13.509666002734054 8.615859603542031
Fe 12.383345696509515 10.850347792534041 11.193980136911774
Fe 12.767423966540434 13.103486816792625 10.17133645129871
Fe 8.77414835500627 9.63867570700234 12.716849692269763
Fe 10.789081541381117 14.627623929439993 10.443915970834924
Fe 13.203772976085212 8.759517154639259 13.974171005291975
Fe 11.763322161342382 13.781433972315982 8.2476189849212
Fe 8.795813480986995 12.677771955095272 13.536153843175018
Fe 12.917576251903963 14.783335478621265 11.801579994942895
Fe 10.605710812367574 8.118758922052534 14.277510513092851
Fe 10.152472326798792 10.973286859472921 14.401852420060917
Fe 12.087991309506563 15.198782456164635 13.954234432442503
Fe 12.675348475573964 11.178492539796844 13.863212679614566
Fe 13.936627351452428 12.556162080937238 12.128132869643016
Fe 11.123179414578056 13.095985635514062 14.794108512108451
Fe 13.484778187379614 13.40339170114169 14.283485812304924
Fe 8.885030878875206 13.469425467630781 11.050185117636495
Fe 9.216061920884263 13.062893782890974 8.508537623869284
Fe 11.045465978575477 16.338608861073908 12.013140564602336
Fe 12.240578235221365 8.394393467936425 11.212491175086937
Fe 10.024788625937669 7.649106983879215 12.065015251166736
Fe 14.1339297082149 9.333428898152617 10.258783491892064
Fe 10.687570329565359 12.13177388314313 9.873248853697675
Fe 14.489211883213988 10.227373261833678 12.402904011697736
Fe 11.467444278181382 12.8344591402447 12.43574538684426
Fe 9.670151693612986 11.4147093872929 11.857474911028033
Fe 12.359579131095284 10.87074622557928 8.782234783302917
Fe 8.40517274148482 11.184630828671946 9.905715043925225
Fe 9.856022969684544 10.308209641501431 8.274693143783885
Fe 11.214305371173982 9.65409924881104 12.822748967747652
Fe 12.105932263629498 6.9045581305115356 12.973982371542611
Fe 9.990260846987008 14.5952709511575 12.964979322848022
Fe 14.574953948373185 11.683189747475511 10.180886255396596
Fe 14.457845504921293 7.93287697136471 12.220066690109164
Fe 10.360996599424555 9.600342636848458 10.438983486159369
