32
Energy = -217.08935738 eV
Fe 9.12572616979709 11.28896230710393 14.649478714158137
Fe 11.290860870897907 12.388196611521694 14.604520460873703
Fe 8.129385865460248 11.232352809728923 12.431280438514394
Fe 14.964779598767905 14.074528758170292 11.962473306880632
Fe 10.343707903257963 14.680353641737497 11.338648711373805
Fe 13.59412648223627 9.810600040331208 11.446610412428909
Fe 11.06424990196816 11.072643004592955 8.612991459142012
Fe 11.692012718880253 8.873118575363698 12.776540399968237
Fe 9.785558555890516 7.904821736813471 13.9442563446824
Fe 12.812766589484852 15.025386836495274 11.646399611924503
Fe 9.39026055914943 9.148680124015911 11.904057177882196
Fe 10.785976729922732 11.425458551860048 12.319219919783764
Fe 15.480350271676128 10.536759226842877 10.188802582181125
Fe 8.548649969973967 13.137747385642326 11.016170768162723
Fe 13.293449434351576 10.363635354720401 9.057879986993079
Fe 11.371591086470495 9.676656556764218 10.50449969854578
Fe 14.842055522562587 12.100453547107247 8.540861289349648
Fe 11.886401430518683 14.823155950034797 9.485887021697671
Fe 9.043687722231805 9.131577152229156 15.762949324736647
Fe 11.349498703457739 14.50395346567931 13.461411203920731
Fe 15.072828243848285 11.670017387506958 12.336224512248469
Fe 11.132327102206547 9.962416354897943 14.823901157265077
Fe 9.255020707660242 10.97790469680035 10.227930725260315
Fe 12.561443130804356 12.848159407287993 8.348017684927605
Fe 12.896255427447505 12.248436797598549 10.917064022387313
Fe 16.14029740718806 12.783429012231212 10.420715912783502
Fe 13.350808617626521 13.215509474906177 13.43428206933384
Fe 7.838871060761618 9.187005290276243 13.763441812357787
Fe 10.204978328830267 13.137453316783224 9.318828317932656
Fe 14.248988355568867 14.199736845108424 9.689698123708798
Fe 9.292147287013243 13.323089779299304 13.270376930316402
Fe 12.956746147317048 10.865290996563923 13.455937619209791
