32
Energy = -217.48485881 eV
Fe 12.15805153602997 12.867122096947165 10.526335851835142
Fe 12.670721930601033 10.670004395703302 11.471570329615727
Fe 8.931069680512886 12.448564627292887 7.589678659760432
Fe 12.279284187193062 10.645439784037432 13.925837621711397
Fe 12.592484377745743 12.89422222120804 8.241119656796329
Fe 12.245198749487614 12.76345061645588 12.983607820852749
Fe 12.689906246239213 10.680109677689712 9.004662160585223
Fe 10.902935014958848 13.75056763421498 6.466979077689882
Fe 10.521975763548161 11.393147435069322 9.55309262361903
Fe 13.040484457634697 6.730602125174467 11.266166568405053
Fe 10.406686568816758 11.477385558470003 11.97087184030271
Fe 11.000971984341996 11.435871188216506 7.1978669823222665
Fe 10.493848988633989 13.682372672850201 8.738770598360752
Fe 11.074563188872322 9.107795618674162 8.240365409084857
Fe 8.276049642946152 12.302944632031862 9.897503600595924
Fe 13.176650296207711 8.580394819171902 10.007793124332515
Fe 11.333472409667486 7.014357463347803 9.477161919879839
Fe 12.984011964941653 8.624956659209957 12.587686959314931
Fe 9.85387059274701 13.66781087487314 10.982897880318294
Fe 9.344635836772389 6.283055031364661 10.695818062717102
Fe 10.95297395277365 9.112184714552486 10.766263561634423
Fe 11.737359109176584 14.663626793642024 11.58202935746832
Fe 8.86466305103647 10.256629856042283 8.344764649931632
Fe 10.19286095341309 13.778760443594296 13.312537777397347
Fe 10.953710617925353 7.27707598190042 11.938796613195793
Fe 9.08712483899194 8.149840297345982 9.512878023281084
Fe 8.643079408123329 10.1411971170187 10.946507010876372
Fe 8.590439832711132 8.052172209987425 12.022058197406405
Fe 8.271311891789859 12.389574967874715 12.47726927010748
Fe 10.144317059129394 11.669207825442834 14.363395622252753
Fe 8.417015368977287 10.248809337406865 13.406615564317129
Fe 10.520477152801663 9.342314129074962 13.108662567302853
