31
Energy = -212.57254604 eV
Fe 15.242501430409398 8.411472772284302 13.716806798540233
Fe 10.571477579240616 10.647766942897222 13.157735061564772
Fe 11.305801672782625 15.86352449018127 10.287738718096756
Fe 15.40153884969236 10.489475949878367 12.73366878587718
Fe 9.972937876687705 9.969649244403646 10.927930784249346
Fe 13.882039725549772 8.412442684689223 11.808893622223643
Fe 9.262482428859826 12.2416001746623 10.915962856832246
Fe 14.081298329332586 12.246758459423717 13.983604675622683
Fe 9.718030529325157 12.937346483857567 13.1972152506873
Fe 11.81872757991502 12.315553535405819 14.169045778170235
Fe 11.546341013880731 8.525699602651033 12.486601126304736
Fe 12.83783678153293 16.335176996787194 13.858995396236809
Fe 14.338071204896945 14.531316878252097 12.823463296751997
Fe 14.530999014325062 10.337937553390029 10.618083482505845
Fe 13.29674736515631 14.276370807976917 10.320786470071356
Fe 14.286556478421888 10.116657810980687 14.987873984279755
Fe 12.921593777967376 11.968120857456332 9.487357219093939
Fe 13.86305720858228 12.400093456476789 11.756014478133242
Fe 12.000003085802524 14.291455169231327 12.348086475948563
Fe 11.052876218644242 13.620995461607881 9.793969176080132
Fe 11.470550098612849 12.071434210454967 11.51966621907256
Fe 10.71045020213067 11.247961631906591 9.089975388901903
Fe 10.743526239846126 14.852727288964443 14.265654639922179
Fe 13.286325128836586 16.31709339787607 11.559672176086668
Fe 10.890148879955639 16.55237750761332 12.58980323522616
Fe 12.944101260403922 10.500492912525074 12.825595216207313
Fe 11.95280903451888 9.993522761060197 15.014266005276765
Fe 13.018010452772227 8.068487621998386 14.207042596703717
Fe 12.222510634106035 9.832483469926526 10.535830274693703
Fe 9.679352223270982 14.67840167426281 11.704161953459273
Fe 13.049599813311097 14.299316638801498 14.786093003109336
