36
Energy = -248.80476139 eV
Fe 6.817574090506183 9.382267235739125 11.707096640723023
Fe 6.552852421292308 8.295924686932127 9.353169043990121
Fe 8.82003409846522 8.040527828622984 12.85035532338371
Fe 7.387086473643424 7.113664658850081 11.167785100857515
Fe 7.218240909910837 12.051827014633098 11.927387798673077
Fe 8.818452184089194 10.347590292103293 12.572627400764015
Fe 6.634528950314589 10.667057031679573 9.67190335852087
Fe 9.811694177310166 12.443537245481178 12.554841388587185
Fe 8.810251252036135 9.103434608586744 10.462258161026082
Fe 9.744723867933825 6.654206553877016 10.927589633100805
Fe 10.819448237598461 8.485322088640602 11.796842090117993
Fe 8.52402403309169 7.171814179673558 8.820314862083091
Fe 8.73295744970106 11.60556942746612 10.268122864808541
Fe 8.1213586393732 11.94468772111472 7.864510954618253
Fe 12.368064046404175 7.188036091889081 10.909313745977332
Fe 10.702771944474245 8.13355041037611 9.187838815344481
Fe 8.352060550969632 9.560979022202849 8.17715369002412
Fe 6.848256224939565 13.097199525266443 9.791832632396149
Fe 12.426064364119352 9.545297416191202 10.043347488095812
Fe 13.023653530880955 9.444790471926165 12.34344351116769
Fe 10.152661572916989 8.605706070506264 6.993298123645244
Fe 8.9460031902741 13.874436534787309 8.867404592207459
Fe 10.764182053068373 10.013545343093439 13.540789803763136
Fe 8.627109835585845 13.950926692243831 11.280698343370117
Fe 13.269817273130476 8.021132580094687 8.560065244846234
Fe 9.873123476404686 10.903404611003717 6.52217341536799
Fe 14.479982276337859 8.476408894183844 10.65082403386385
Fe 10.398129504480602 10.645757979765555 8.849324828192017
Fe 10.811374923589595 10.786462755331092 11.265242466042372
Fe 12.102910101962555 9.929515238518977 7.489408157221815
Fe 10.714296089581417 12.713672598247983 7.8580721884321845
Fe 14.573269905327033 10.821767074469255 10.86349539098701
Fe 14.358651343414412 10.101989905946521 8.617116604011752
Fe 10.791798726123014 13.077536391851572 10.34061623667747
Fe 12.647962755754888 11.761842283170488 9.369590916493372
Fe 12.693681753399794 11.815469377157735 11.837017379830783
