36
Energy = -248.63219959 eV
Fe 9.175302035735818 9.692072874557406 7.957993190506267
Fe 10.668302431280408 8.15176785316523 12.750265367756269
Fe 14.41503764507839 12.785004094514939 9.774853838399519
Fe 14.301895464508288 12.84548636098264 12.194998109435241
Fe 7.673421537541385 11.931389524043942 12.196379766088652
Fe 11.557190127203523 10.35249818209051 7.448375570767702
Fe 10.84724824776238 13.581766301338078 9.882377209473374
Fe 7.967052283541614 8.194042024816596 11.48267664783147
Fe 9.363407359767496 9.005406525470656 14.460595441398889
Fe 12.417082900000299 9.062590673181013 9.933417964882521
Fe 13.217004759640302 11.024022302157888 13.362255349368896
Fe 14.25012203650884 10.55066741869864 11.186150665312327
Fe 8.368340443810366 7.912771220419349 9.18874932920868
Fe 7.302491573857481 11.291668658036821 8.066565028779213
Fe 7.331440975767142 13.546621571122358 8.304185200076589
Fe 11.926431856907325 12.895900026324844 12.933122117612887
Fe 11.592808037129458 10.1750746731261 11.904237899847372
Fe 8.522875696211727 12.82922614162059 10.058612149045336
Fe 10.86181240358945 8.090675208716656 8.364229868122589
Fe 8.462811348433876 10.41820129175864 10.102150743799472
Fe 12.087297678809062 9.13289200433081 14.314725169176373
Fe 10.620952755636347 10.925827253768405 13.974637390797263
Fe 10.843332744092754 10.923826153987411 9.55738664268524
Fe 13.230796162843372 8.55861725525686 12.13541838996337
Fe 12.281654848978144 12.689634801029696 8.311339965206166
Fe 10.155621794719389 8.774056281132241 10.563309407303741
Fe 9.622007158623475 12.285397305209354 8.104708747769685
Fe 6.307141968990855 11.900698261481852 10.098938488818783
Fe 6.493432968511821 9.362054725608088 9.498995155822215
Fe 14.645335150862909 8.770886057111342 9.640556697075851
Fe 8.993968810299222 10.002189766034286 12.44385350890441
Fe 6.48304156127392 10.035769050261836 11.749155742855189
Fe 10.066072429621169 11.989203334640813 11.688796564072149
Fe 12.490334380987628 12.136767309566727 10.830893761133094
Fe 13.61941482386689 10.786811110923233 8.786474960929505
Fe 13.115417619603582 8.60458713488652 7.6809321131391055
