31
Energy = -213.17799167 eV
Fe 12.560089476990422 8.858051719385626 7.721074846552222
Fe 11.01188339894586 6.452112608732566 8.677805502216637
Fe 10.26207069817962 8.565465324986532 7.366608759840042
Fe 8.868747124951875 6.541271477750136 7.682901454348632
Fe 11.006159915432606 10.825631556911956 6.72435259881817
Fe 11.461823593314792 10.521454796430069 8.952576041243299
Fe 8.900947180795352 10.142256857445329 5.965824739389787
Fe 11.774711049288813 8.31980898817787 9.875090261021459
Fe 10.752700699123562 6.454703806722141 11.137378714706308
Fe 7.67535544208258 8.635349386376403 7.43682121678395
Fe 7.0922187279868645 11.20306440419516 7.055559538494894
Fe 8.78903274646605 5.812491052020906 9.92240050852318
Fe 9.367038938201349 8.15775086381661 9.540659700323712
Fe 11.510163518682099 12.741319458552393 8.279407659631582
Fe 9.208465103369564 12.321096769795684 7.370848462926652
Fe 7.14383639018238 7.488053496028276 9.538874163370613
Fe 10.804932475449716 8.639406195924742 12.533807023092567
Fe 12.750026089059155 7.601491759380209 11.87592305109773
Fe 8.957674666885683 10.34407957848628 8.537167499228255
Fe 7.710546463113195 9.669556046519588 10.691615136058987
Fe 11.882535465954422 12.11879735205171 10.673402491591856
Fe 12.545895911008172 9.98346280467365 11.391240867608099
Fe 9.688843951019889 12.36565822721663 9.897755740007682
Fe 6.280424335798883 9.889166175921492 8.874392569342659
Fe 7.3470911476737975 11.938258276672288 9.393373442519028
Fe 8.678501298778484 7.679018141176901 11.72121111550364
Fe 10.046925777088713 10.097142154930399 10.861696837452964
Fe 8.668299165037247 9.949737045139628 12.873099839207388
Fe 10.652484912428124 11.441881582640729 12.56889879394124
Fe 8.318932827774884 11.902985758924896 11.711753338415567
Fe 6.092152734096615 10.832438004727935 11.359496156609715
