34
Energy = -233.5972054 eV
Fe 7.586857084770018 10.821594668015319 10.010567042662808
Fe 11.323967081993501 9.728477031622973 10.441696577417112
Fe 8.523834847477005 13.115760726026204 12.925961005857909
Fe 13.175233409124594 14.673626578961157 13.317396227082424
Fe 13.508004498039398 13.353338334891777 9.707738608649997
Fe 9.56684738378188 10.37874761517503 8.97628502710535
Fe 13.55680845661811 8.730946978858285 13.636054583711942
Fe 13.289317798013995 8.661610992165 11.256301446979126
Fe 12.333238870747488 12.568902666741106 14.232758388005784
Fe 14.857891543568982 10.235568072892328 12.152851577624567
Fe 10.299661505294237 11.822512928907967 13.550837884091413
Fe 13.96867731060095 12.532289049251721 12.45899132767245
Fe 9.057384522326599 12.749703480642475 9.039595044660768
Fe 11.782897496339153 12.989896253838571 11.673289955667888
Fe 12.099808082484603 15.248686320845515 11.23084662898929
Fe 7.665111169869715 11.037077946007237 12.343363789689478
Fe 11.740604098089811 10.021378228696475 14.635470938351435
Fe 11.357970324721183 8.45824130348949 12.595779116268682
Fe 15.66954023937351 12.572099282365592 10.968094418910571
Fe 10.719070871316614 14.31377174763816 13.353941454881983
Fe 9.2838754301955 9.048912082010437 11.147705992498603
Fe 12.274647454243564 10.669369317813997 12.501510155083842
Fe 9.763758459247462 14.003867862670171 11.035110395931092
Fe 14.532002004630293 14.752859557078898 11.198845759241467
Fe 14.129583693032167 10.905716804059747 14.425619144962605
Fe 13.397394011298088 11.130219810130908 10.425705027327762
Fe 16.128887945238358 11.909485467851924 13.334653198942908
Fe 7.483928898351387 13.03059771780426 10.77331452814461
Fe 14.52823275607962 13.236679320181826 14.88625555592414
Fe 11.347744152700955 14.27771749010179 9.233076706439237
Fe 9.511060697082785 9.823277253416151 13.333049885454782
Fe 15.681717459295742 14.232010279565268 13.144941113859312
Fe 11.278785400402043 12.03258498544364 9.504630520615247
Fe 9.67392501050653 11.509023808203839 11.24073728013492
