32
Energy = -216.30019728 eV
Fe 12.118941891066127 9.318416867998568 6.966637304258442
Fe 13.545138902325661 8.65302380240566 9.63863829745259
Fe 9.755604146729338 9.711949477236328 6.746744186769242
Fe 11.010339346964791 9.12365419769185 8.930888774226442
Fe 13.139142344977886 10.634784976241681 8.59490052861396
Fe 8.747514376533701 11.872055350221077 7.199705112627583
Fe 13.345645971866952 9.407493844774027 12.990905032796643
Fe 8.791499778010278 10.212891437389631 8.858134660572379
Fe 12.078766013187293 9.662505784564953 11.012371987543712
Fe 10.974124872867533 11.46637112870773 7.824083039563383
Fe 9.629324377936262 9.032258039329635 11.111658250500335
Fe 14.255779348700141 10.67755366037257 10.924679376118634
Fe 11.088721067052202 9.005530317686988 13.189364691160888
Fe 12.669407561463371 12.340936200648596 10.140644432346017
Fe 8.269776432252431 10.99806387224605 11.102990794689948
Fe 9.231820859436542 7.7324507744514 13.423698691310715
Fe 10.549642111198096 11.279479483665783 10.263677755099748
Fe 8.897879606834996 12.73083282742756 9.426606479685583
Fe 9.658833983715407 9.849684867223667 14.973989228500058
Fe 12.3587657039714 11.44243945303634 12.481488024297677
Fe 13.696235325638114 13.309355874943034 12.201823044878802
Fe 8.123114244113907 9.552725784787047 13.116046926284763
Fe 11.058631346217672 13.707866712327668 9.122423517603746
Fe 9.981713506651355 11.1721726559935 12.766656218996449
Fe 11.447051680502566 8.81977913501083 15.869350087669112
Fe 11.91971584557983 10.702200860930477 14.662522944549895
Fe 12.784557119797364 14.712562190605922 10.551242544521468
Fe 10.878410091143673 13.254434874593743 11.691745137591107
Fe 13.664693464403916 14.104579698567406 14.519701720522498
Fe 11.594552294697484 13.066373810569822 13.976729704188248
Fe 12.134336588018495 15.03926928588866 12.8063640868594
Fe 10.469057698047411 15.275040654363156 10.782325320101544
