38
Energy = -265.28434688 eV
Fe 10.625990628980201 6.678935771349199 5.6119393936533735
Fe 7.073843246319949 10.268174625066171 5.408307109524107
Fe 8.581866277378456 6.396196807535363 6.678497491570107
Fe 7.655697858508883 7.3843959500817435 4.770133638287551
Fe 9.294091993901208 8.852049735975534 6.133676828460118
Fe 5.108011451475275 8.18777291559606 5.4224338594227115
Fe 10.592573723066643 5.123143089224202 7.565222629885196
Fe 5.3521526565707145 10.255268789158865 7.141137364317835
Fe 6.0870754345139675 5.989533333943981 6.199975991017512
Fe 9.506449791919364 11.413701634334563 6.482924501631663
Fe 11.81629065326823 9.085011245458595 6.652013058304542
Fe 12.665208795137886 6.6591617826770575 7.278258900403758
Fe 10.57541854131743 7.533464670267176 7.738918899003515
Fe 7.88032230742602 10.331855369741895 7.617049280815568
Fe 6.8958966809626325 8.304815652203185 6.726109931137834
Fe 6.934281857464504 12.309678707031845 7.16189616455188
Fe 7.620583487807406 4.54018674981184 7.829353968462078
Fe 4.632070065489809 7.640845760269924 7.693249866958476
Fe 10.308260660663551 10.011452230390683 8.237731198618013
Fe 8.391936656334408 9.937638447253322 9.947758288685597
Fe 6.869030420501687 6.663257892676119 8.536057890825152
Fe 5.1374114245359355 5.3022157775243794 8.340851184819424
Fe 8.925668525208378 12.153489134193414 8.857375138111925
Fe 6.190872138691392 9.038756701507229 9.066262597212676
Fe 6.415828924652901 11.487064006454233 9.354668488913907
Fe 12.298718170236643 8.617618012050148 9.001166833975839
Fe 8.550427671966556 8.214975227026622 8.401263160077635
Fe 11.575732435946462 6.257657018810581 9.5571082117881
Fe 8.128974786398368 11.766624555470754 11.170223483228643
Fe 9.14540084710893 6.000606864335495 9.237246283888945
Fe 5.2661741496291965 7.160424337507399 10.189945712911971
Fe 10.225101075759817 8.205330348160112 10.194124911830553
Fe 7.1406157123493665 5.22271837636784 10.358275400392095
Fe 10.546067343440638 10.772060299817069 10.46160913637821
Fe 7.659031819761616 7.6333284549941816 10.72562458550153
Fe 6.464132174187549 9.712801021682695 11.330294263400567
Fe 9.492993957234237 6.381456192387353 11.533650712377124
Fe 9.020799228309631 9.157336086087957 12.038667214078709
