32
Energy = -218.8912931 eV
Fe 12.322184198624953 14.393977620339943 13.487503899737929
Fe 12.000406140703758 12.09369517775237 13.639033503376753
Fe 10.091131653759845 13.388329333974982 14.212635620642802
Fe 14.242899173113669 12.618132400296176 13.605175907780422
Fe 10.032777207721628 11.191219185546087 14.973389629810486
Fe 13.888020671075372 10.286759715626667 13.569497771625178
Fe 10.911157726138686 13.399199527164438 11.892195634867624
Fe 11.53803117360285 9.818190819156058 13.663776681320718
Fe 9.770589420200379 11.352052860741638 12.396021231127179
Fe 15.082338636703934 11.609108331131846 11.601872428526502
Fe 12.76882550445272 8.352520592602811 12.31792032467868
Fe 8.549565717378957 13.717012461647716 12.488605631614787
Fe 14.7255634708356 9.293544854131707 11.625625831351105
Fe 8.016844142807313 11.96169850766357 13.958669571159522
Fe 13.36013651261691 13.48049331855132 11.623313028013836
Fe 9.09996730729647 9.393625973017278 13.556465656613208
Fe 7.104014663083214 10.224079842299915 12.771504521589728
Fe 7.546959498129148 11.933136339771837 11.288719614737246
Fe 9.365772505608604 13.072886825123193 10.170593667612145
Fe 12.607383923924836 11.039559879804537 11.427139863600578
Fe 11.845546169039185 13.025299325546378 9.81854209486976
Fe 14.520423863610242 10.231442608546228 9.53393238870375
Fe 14.217865775610933 12.582991096135842 9.540292018346948
Fe 12.516987470028633 8.984513371187237 10.054113839470705
Fe 10.591635384798257 9.046093162133456 11.625847441720842
Fe 8.422423055996259 9.636098285693418 10.923714348439287
Fe 8.5027065997533 11.143050973321987 9.084293463046107
Fe 14.394622842454144 11.486238159030574 7.503781637077721
Fe 10.555601890676673 10.815489105396011 10.075420810939363
Fe 10.431050154639701 12.256268646953 8.073787989779671
Fe 12.710978856363575 13.166002833372431 7.73641409621822
Fe 12.417307744545488 10.95036202593746 8.625305864699685
