31
Energy = -212.04557423 eV
Fe 12.742993956776012 9.642204853923955 12.525146214323934
Fe 11.867886546753677 11.71949289276414 13.073352334519475
Fe 9.571599380749689 11.448001696355037 13.7002396585287
Fe 10.49241656757154 9.462967108619722 12.951533094359535
Fe 11.671827078721535 7.600705585530481 11.636599971738384
Fe 9.3303880777038 8.249997466275165 11.034206557351043
Fe 10.29999851092975 6.22881435590737 10.111270467113846
Fe 8.206603766302296 10.000216343230234 12.144424064850698
Fe 13.644567179045254 8.825332974308484 10.486293999906488
Fe 8.011986129725027 6.658619779718334 9.871195671221333
Fe 12.930223071942734 11.21772784760349 10.74286840036825
Fe 10.064653276287995 11.86901818282504 11.365024354663968
Fe 7.916342853329424 12.42187385260954 12.233949820715571
Fe 12.087464761045549 7.440481034496273 9.23311816094431
Fe 11.196096573704509 9.605384809205065 10.442758368857998
Fe 11.948040247454287 13.257094973216118 11.189929908681913
Fe 9.772458746072079 8.126063050865216 8.559523911627407
Fe 7.885222500713762 12.973230694347196 9.966838278910291
Fe 12.46522953583142 9.634520964715701 8.4003813636332
Fe 11.520992941298672 8.09331951001245 6.955279501435509
Fe 9.052505113169989 10.572019734955143 9.5576443032462
Fe 7.35019724888 8.95757395060261 9.688052914372879
Fe 7.651687402037273 7.422809593908253 7.718953722604289
Fe 10.066496831283075 13.548978612446527 9.586808519361496
Fe 11.273047308611359 11.688740008935495 9.028426273221582
Fe 6.590144421445155 11.000505853585324 10.788972151677061
Fe 10.430450066181688 10.203441418646422 7.152281435527039
Fe 9.286261731002332 8.256337896334156 6.033540116886956
Fe 8.132070699136147 9.752666631970383 7.449029128698484
Fe 6.910780829073088 11.419385835626024 8.497438034570083
Fe 9.1168855493409 12.19999050971647 7.760782045755177
