38
Energy = -260.04294545 eV
Fe 9.088173054185088 6.654987166819074 6.365836769965428
Fe 10.745211459412925 8.121191766150737 6.87768361591512
Fe 8.499309312990178 9.063415480500236 6.377853339112101
Fe 10.557162076618384 10.504385662706708 6.952540715290022
Fe 12.57290760990819 9.485655270338532 7.545739987383328
Fe 7.580991821009456 7.531432915031803 7.873843394799754
Fe 9.763673471725676 6.555260287137478 8.529692962990477
Fe 8.146423088240725 11.063416304009246 7.6486870065796895
Fe 14.355531362985008 10.801988652663708 8.286427718604436
Fe 12.311839128883983 12.011952359751591 8.038739736253046
Fe 11.466189660264586 8.085924517400604 9.23167590308537
Fe 9.37008980685437 8.99654552185296 8.56931883628726
Fe 7.022961090701182 9.548207335828902 9.004598424091801
Fe 10.02566504184637 12.382744559945273 8.388219495028514
Fe 7.802340131285939 13.235170503564971 8.232049893533695
Fe 13.611160284338633 11.679112429095337 10.322300643021773
Fe 13.529688628629831 9.308342612877388 9.815887012103204
Fe 8.185434776166545 7.612617959886118 10.224126239748303
Fe 10.271312457332948 6.684135693720497 11.102036513761487
Fe 8.915469774204231 10.857882876170963 9.935459629793565
Fe 12.352592384661733 7.792380839327564 11.416421609775767
Fe 11.252738915330173 10.462387259219962 9.451595294249541
Fe 8.981771583374009 13.150818049298234 10.271383028063097
Fe 7.425313952878944 9.57222444632414 11.386576481492407
Fe 11.479621635451261 12.701302378015804 10.368080973359111
Fe 10.012065537039534 9.055969748465728 11.01386141528308
Fe 6.77996710506189 11.814066239019535 9.73342134506055
Fe 12.21544486430754 10.11381137517456 11.731281096254273
Fe 7.911019090841668 11.876784221521158 12.06829938913887
Fe 8.612404572213968 7.499101442592624 12.581128998933517
Fe 12.523133743814135 12.425215514284927 12.45713429701982
Fe 10.210178141881693 11.41973703549867 11.880508080530227
Fe 10.882625450768321 8.154853126824358 13.190374430376671
Fe 9.016925417204792 9.790671318898589 13.17230573019016
Fe 11.240954284129264 10.536075990222642 13.903805877233681
Fe 9.985555153248471 13.657696305996177 12.404056872721295
Fe 9.011704105485197 11.977551502619646 14.165892847901754
Fe 11.11790237351015 12.82404281832291 14.232228917483493
