32
Energy = -216.9594111 eV
Fe 11.207960973284289 12.325581847564576 12.174676589973865
Fe 12.449534886189806 11.135948110921333 13.78749629720797
Fe 9.659234807907428 13.02923165994136 10.193009003239782
Fe 10.198015442387819 10.24967238074708 13.676777271549739
Fe 9.300945081308013 11.08803736592651 11.654871243871405
Fe 8.070557489329628 9.278717833699428 12.745505226782397
Fe 12.106986449862575 12.662267449338476 10.0161382119454
Fe 12.28639455694616 8.81955961775143 13.825384689687198
Fe 6.974972806364775 11.004403576961415 11.481900883480337
Fe 5.9444382776527664 10.250689526596359 9.409590854484062
Fe 8.240701741144822 11.01772591631612 9.463165242566598
Fe 9.018963982707957 12.908551804039789 7.9263424110757805
Fe 10.208315603565607 7.887916586139799 13.209276836840965
Fe 13.52813017471428 11.421252645127472 11.579821804313776
Fe 10.906082008919237 14.12003987775089 8.582066195499264
Fe 11.761008775247719 9.963210592777344 11.740835907656892
Fe 7.485614993035159 8.792893228989607 10.432531740569136
Fe 10.680369645648724 10.759881833482972 9.57157780865062
Fe 13.879987938769617 9.04449474324528 11.030856899052344
Fe 12.14804345918179 7.528598470198464 11.785805403764474
Fe 13.059906618536532 10.513371602161516 9.31068984632903
Fe 9.798970444150708 8.805082944794602 11.16455957824946
Fe 11.381885752628873 12.000055604212346 7.730755565047966
Fe 6.999040587569968 11.474226325173564 7.53721184256547
Fe 11.455845953198569 9.489278603953837 7.482421221770313
Fe 7.3219392318173995 9.166430215666125 7.786976201531028
Fe 11.845007548770965 8.473436206253055 9.665280344586906
Fe 9.401029321654663 8.698432991809142 8.816241030472193
Fe 9.306667697708724 10.640908476380464 7.232137803756087
Fe 10.163193240521457 6.80631396110906 10.102520075413825
Fe 10.999245676319525 7.188050476336975 7.826152844393697
Fe 9.418499100569221 8.43218153371926 6.4715266211038305
