32
Energy = -221.90811176 eV
Fe 11.651110056216273 12.584935689254301 9.676220344501724
Fe 10.345747338600116 11.664025632263819 11.354720834727269
Fe 9.051211269701508 13.325941225529347 10.400371050745772
Fe 12.796962489228122 10.925885912171111 11.168703822650594
Fe 9.990928216184136 13.608113942142706 8.248716586378
Fe 11.128327635381565 10.029847607741006 12.843471710575367
Fe 8.631614360036162 11.257749668000795 12.89422964218775
Fe 7.752806277835808 11.271370119869562 10.64904081166553
Fe 11.528920170221355 12.133760743048025 7.290261981158501
Fe 12.88073793664481 10.737326424954773 8.650384250392912
Fe 9.611842588941684 11.180126568950403 9.075198646081319
Fe 7.753911211252589 12.680755475120085 8.443935222292458
Fe 12.422158843011546 8.452306058995118 11.302829527092756
Fe 11.268432094908919 9.779315186370548 9.911703559333542
Fe 8.943302815803621 9.027554791443727 13.695356816256835
Fe 9.188613992121489 11.66833862384604 6.765922555459443
Fe 10.727216492618052 7.684777272326426 12.842351671110691
Fe 9.34725012048344 9.403279270219498 11.27009365999693
Fe 10.904283087579508 9.885603880425062 7.414738364736954
Fe 6.992751021448388 9.535967544824734 12.378960072841789
Fe 11.8834149108072 7.872100557753658 8.64255625934746
Fe 7.5839579498037555 10.271754763075469 8.227848108388
Fe 10.353789574871527 7.273639370913427 10.587847764827405
Fe 9.381302793415218 8.528337335892257 8.781974504942243
Fe 8.277026167130174 7.403981597503103 12.048386921823058
Fe 10.61442581536748 7.658867747149952 6.6606020822581815
Fe 8.68030330429181 9.094835735731861 6.489386127209286
Fe 7.341844348320345 8.801179711922995 10.147330923025931
Fe 10.339893090348196 6.030929125114509 8.578028369399759
Fe 6.901160096736403 8.003766419644831 7.930308020127959
Fe 8.175718036158326 6.5779614729462255 9.540874071455727
Fe 8.586787891721015 6.64786101719837 7.11711635517717
