39
Energy = -269.95513814 eV
Fe 11.312229826624593 15.325980190462143 10.348704045277405
Fe 15.763952497599005 9.578933411748377 11.466052429196193
Fe 7.509127158575692 9.602091364706387 12.648890501141825
Fe 12.284594423552758 9.537882978965024 9.348002924115544
Fe 9.291043725601586 14.481861754999464 11.494635554499686
Fe 7.526783480642786 9.597657340496239 10.280885905777255
Fe 9.79738241825914 13.462767126418596 13.517027386137798
Fe 15.731734761743446 11.493680756774785 10.131927343718532
Fe 10.982850171913404 11.492139621086604 9.532962948192614
Fe 13.553255058499104 11.489776026399003 14.22394385470382
Fe 11.247264027627208 12.924525455897394 11.457976790125622
Fe 14.582222078796915 13.48887469942962 13.467225358901652
Fe 9.801918598308639 9.503074440949117 13.515536146142763
Fe 13.442518879971528 11.495658174385019 11.605719694265447
Fe 9.1915257475239 11.485622485750154 11.488912098302118
Fe 11.325302601088634 15.280254728393924 12.616921107507919
Fe 9.29914475562121 8.478610091190799 11.480713805285447
Fe 12.281910342990777 13.452087111103383 13.697302703274143
Fe 15.741588880093115 11.485638861134005 12.824467860129056
Fe 12.277239050485154 13.448154987690057 9.35209808546088
Fe 11.331905537123596 7.642689726682799 10.322415764001308
Fe 6.723724799158146 11.478809123520454 11.471211202186627
Fe 13.541618268895558 11.49641743494216 8.836435770667308
Fe 8.448635775785643 11.487726272840094 9.213135108145547
Fe 13.314478620001982 8.812711732830522 11.48543289113584
Fe 15.760957096891714 13.39011258266173 11.478246993814203
Fe 13.311292068551367 14.172748636977834 11.497913563933471
Fe 12.280032611550043 9.517613378309388 13.69441527703199
Fe 9.792080245458287 9.42688807860808 9.433964720260597
Fe 7.510321473744634 13.355448695301984 12.655380616994114
Fe 14.566966126932911 9.486229981715727 9.47838139455464
Fe 11.052849874004478 11.485203963597193 13.387088282349787
Fe 14.579536171992597 9.488056893126812 13.462527281774966
Fe 11.347029657183166 7.69804357661869 12.596070749325676
Fe 14.562645378287916 13.501058291527361 9.500179721607008
Fe 9.782698105039248 13.546574651939954 9.444912861935189
Fe 7.5278878637032145 13.370107100190175 10.28437817170093
Fe 11.253617377797905 10.052669617194079 11.456615514554471
Fe 8.371715001150527 11.47827441444761 13.795040881684999
