31
Energy = -213.90996304 eV
Fe 11.882971198272266 8.566071812883544 6.800471761353135
Fe 9.601962587055237 9.377148403154258 6.48865093398097
Fe 11.58495576157763 10.884458474134004 6.0603338148381996
Fe 10.575736538837832 7.412427857754921 8.351227721118203
Fe 13.122532411190553 10.42954769010693 7.762241433527609
Fe 9.899447206225458 12.121404718972643 6.951453972918018
Fe 12.704386331705827 8.50342896092827 9.21448885550225
Fe 10.705167620955994 10.011646902535881 8.378847660449615
Fe 8.283295349869707 10.858796500257828 7.9733023925736655
Fe 8.50666555457377 8.465336344815311 8.646887152527292
Fe 11.904642317994751 12.406226268810297 8.104226983632474
Fe 10.773844899984933 8.661511773322305 10.414669806268272
Fe 9.990053977130621 12.053432351057348 9.516037219013528
Fe 12.22686402426869 10.870471777301406 10.032729559360359
Fe 12.827367783664025 9.215953584664483 11.63890883703928
Fe 6.563332013442393 10.037919221844428 9.37027895040473
Fe 8.84014546150789 10.088710724708234 10.308658413782076
Fe 13.037590515516973 11.651249113284436 12.152414841660288
Fe 11.320116579897567 12.976575972171926 11.297330098631514
Fe 7.506145583839191 12.237482492602828 9.782337877555223
Fe 9.113742763987023 7.222655348486468 10.614482311816115
Fe 10.641616508504677 10.578495344006482 11.913196443362041
Fe 6.98955621621513 8.262521266642983 10.888443408577816
Fe 8.954130868035959 12.45271028540066 11.694829942234344
Fe 7.043798590869115 10.7353537721824 11.67862062917154
Fe 12.306204708331302 10.104151214654125 13.76857807476479
Fe 10.978038044595849 8.09510968035881 12.695766309677406
Fe 10.845808314232977 12.101080081976239 13.57881106518684
Fe 8.772351400389383 8.940959238399968 12.37664055948675
Fe 8.576307383185366 11.170583700631612 13.565739111696665
Fe 10.121213248992147 9.609122575950376 14.315491148570947
