35
Energy = -240.28537407 eV
Fe 15.441462889525729 11.812664557229166 8.718579565265454
Fe 11.90113415808188 10.505021154785082 10.297742020661873
Fe 6.564714066349764 10.012495686517632 12.78999961956488
Fe 10.950090742272874 8.302890919530077 9.724029418016029
Fe 15.06116475515498 9.874260027128061 11.60087327751461
Fe 10.940593898241193 13.62878123189177 14.177098554756036
Fe 12.386281233180018 15.318206865311959 13.042240014348762
Fe 12.855872936161603 13.053896033748268 12.717396687044275
Fe 9.119246808936806 9.989213611640361 13.126853319406523
Fe 10.755137586840458 11.604495077914567 12.411542745314907
Fe 6.216597051979163 12.426127299987822 12.730181595076429
Fe 11.966030502978837 12.809998739079603 10.385528884610974
Fe 13.61192622061036 14.661566329177198 11.088169477854873
Fe 9.458663698954348 9.923151279835718 10.569741079830495
Fe 11.80488185332379 15.074032055194195 9.686455341663969
Fe 13.741565673604754 13.739758413774885 8.874425819069586
Fe 9.967514274044722 11.493808710213706 14.817947456903648
Fe 12.954305061098243 11.657666181605437 8.249302506953178
Fe 8.834177797996343 12.948482556244365 13.042853846107956
Fe 13.147010582771669 8.420325610270721 10.66697736976803
Fe 7.490504029671319 11.40418350185072 14.343522274794275
Fe 12.430693222823503 11.788263280804529 14.674926507433751
Fe 14.215884151381056 12.088119921711758 10.683073532071537
Fe 13.188919142576466 8.350508620773251 13.137735861786284
Fe 10.54480630095809 10.772914601698096 8.505391982022541
Fe 14.141421932567038 10.165153345624246 14.217356602626209
Fe 11.158218117048373 9.10118012520556 12.055367029955724
Fe 11.586186142178795 9.68216968292974 14.324800647266436
Fe 9.716500523673671 12.4379393298888 10.249711374086669
Fe 14.184507403110672 10.022547610827488 9.410155852510632
Fe 13.0641415987566 10.70055482033728 12.330740880449525
Fe 12.412036465088367 9.189437752398057 8.16699801792758
Fe 7.939890427591093 11.399906309490023 11.576553344525015
Fe 10.726280156870063 14.251417701291452 11.829659553284579
Fe 11.168969005098136 13.239200949136318 8.212731340640504
