31
Energy = -212.02395562 eV
Fe 14.571948146854051 11.526267638117053 17.736481032574872
Fe 12.306091443383565 11.290594487786693 17.17069480231239
Fe 13.703659481559972 14.398578506089274 9.644042852536773
Fe 9.259307753524553 11.973784186760435 11.697946057703106
Fe 13.670146361335412 13.118980748665194 16.14454354689534
Fe 15.291114779695755 11.237239342647433 15.481120455305975
Fe 10.615699239334068 10.926304604379279 13.588964976716673
Fe 14.755661781044578 10.82813212731843 12.962050428806126
Fe 9.502295420959264 14.271743745001812 10.963464580655229
Fe 11.88818618812328 13.492686510484129 8.252104049715951
Fe 13.903022739416691 12.155574850684086 9.08976083731734
Fe 11.777287347638064 13.06898374478614 10.715475910711076
Fe 11.559570379189195 15.421853999495864 9.945965964664818
Fe 11.20088757493837 15.288033585897441 12.343702026125351
Fe 10.313689892729583 13.34187553271473 13.235348058307693
Fe 13.79897884567171 9.498267870757797 16.934673872341804
Fe 9.8265655836803 14.547669308768503 8.615185932612594
Fe 13.47493709202243 14.63868878303146 12.050562161965301
Fe 9.843762410777511 12.328457208997555 9.36712385139008
Fe 12.567659128831997 9.628232289929304 12.932464311567118
Fe 11.8372914123217 9.529452600138296 15.455538691356688
Fe 14.66272484124143 12.697228170207625 11.314304920211994
Fe 14.246897485754237 9.175760100894804 14.665361577828115
Fe 12.439618029690275 14.139196566697441 14.185217451259016
Fe 11.0463709198543 10.519651432720623 11.177512664699528
Fe 13.461445556406089 10.558974445074277 10.814726095269696
Fe 14.635536705638222 13.145251464763717 13.789865113235427
Fe 11.839515694210904 11.108164136182266 8.95387614584798
Fe 12.588332013440462 12.16008114329079 12.63455683490424
Fe 11.114566024724063 12.520400403098515 15.392504213248916
Fe 13.06196240520142 11.339080961438826 14.752326771933244
