38
Energy = -260.70464487 eV
Fe 15.023461969621883 9.915744549133624 9.196313509845453
Fe 10.890367807288422 7.06394393762774 12.276658730021696
Fe 11.725466037299478 8.18201710590517 10.331404091088585
Fe 15.433719430449079 12.263404045346574 9.068682893030973
Fe 12.819951311111891 8.107134206316656 12.94543002458033
Fe 13.020998456174008 9.019060063447165 8.49827134259286
Fe 13.813122445083225 9.01963492402747 11.000332304400025
Fe 13.36723019267027 11.521254538654773 8.31004266030195
Fe 14.539754872371303 11.450612641976317 11.048167370351086
Fe 9.521477229214721 7.113691798596267 10.295736477364379
Fe 10.701786291910096 8.16760272070603 8.160970885812294
Fe 8.865220055908921 8.279676242513117 12.332722562591622
Fe 11.512564844212205 9.40774798127807 14.411215464355587
Fe 11.100079818003525 10.50040388149711 8.160074125984668
Fe 10.892641036511641 9.604770955348222 12.123766080945767
Fe 13.550101162467348 13.385132489929553 9.943458275041314
Fe 12.19859187807399 10.740391848833681 10.29852192992933
Fe 13.205186366024716 10.46630110766402 12.93042460485951
Fe 8.464235280241663 7.582154818692833 8.259648512003944
Fe 9.634448733559365 9.531856492111649 9.971751599431178
Fe 12.470126399743867 12.584420714668935 11.938187634919318
Fe 11.343599470434125 12.786489968672013 9.239491946610318
Fe 6.647083932620818 8.964848064488358 8.213184143418566
Fe 9.195045668338595 10.0266101336132 13.961313815499746
Fe 7.364476801065151 8.358029263957578 10.426998819554827
Fe 8.7331760165138 9.916270833255345 7.619781461249639
Fe 10.192279618537258 12.18122786998207 11.386483056850526
Fe 10.943900592690824 11.607845245849866 13.613886347944527
Fe 11.393940609765556 14.496284869887912 10.909158898902923
Fe 8.312691157084787 10.558948910499762 11.749450964620339
Fe 9.16435528631004 11.765884598251542 9.229650835545709
Fe 10.916864164886901 14.050516588117205 13.271716236938321
Fe 8.696533149369015 12.401048549978688 13.329090682446754
Fe 7.162796462680567 10.634400240380986 9.645327923051534
Fe 9.32054950370208 14.1984882751399 9.773611054970832
Fe 7.711944972681276 12.744157345282291 10.905999126372235
Fe 10.432765266664237 16.1638241513223 12.115663412391534
Fe 8.989398410233727 14.402418411307087 12.07060125211501
