38
Energy = -262.24390912 eV
Fe 9.612850999969378 11.910108445204514 13.282310559500594
Fe 12.147306661563169 11.200300996344406 13.739000828905361
Fe 9.490817099876384 13.37257841815109 11.069545102119925
Fe 10.257718856114067 10.040280155539472 14.65804324201505
Fe 11.374142075687052 12.129563949668285 11.71002340961084
Fe 7.5318211084606785 13.771221934637637 9.813036843534451
Fe 9.528382796374482 14.124475367971064 8.179626834468095
Fe 7.461996903578652 12.138106144001892 11.691367949475703
Fe 8.33854779983794 9.889619081000744 13.263931210522589
Fe 13.382680102121947 12.318684988368815 10.593391656058708
Fe 13.043354702663802 10.081401173024899 11.53041014077463
Fe 11.370567473367453 13.451405741581617 9.624437972437297
Fe 12.310445536535996 8.835048843805193 13.739958469456472
Fe 9.159862582436197 10.797957259082736 11.045154485431253
Fe 10.814968150763253 9.782912548007795 12.176908864031294
Fe 10.133368255845784 7.88462321249541 13.589749837156003
Fe 9.103170624306559 11.945024726865746 9.128247694496674
Fe 7.6336249492333454 13.05210886062766 7.558514245904797
Fe 11.375283592445024 10.848612646973999 9.664895074905944
Fe 12.899465772051144 12.41961827022532 8.123028637561678
Fe 11.740497044807155 7.6830030826600915 11.59624056199342
Fe 6.854372971045816 11.447121045622355 9.36900551260975
Fe 8.883206314241486 8.271145515263782 11.614174903372138
Fe 14.041310635524473 10.577730533806182 9.21260951403776
Fe 7.090391246732954 9.860406822153575 11.121392293533589
Fe 10.675076990753412 12.128275174431419 7.555858352975868
Fe 8.38207475936721 10.830862500883269 7.17562694265261
Fe 12.527515837363072 10.236847135575143 7.371054677923611
Fe 10.341210674264772 8.409583155830868 9.76453652043908
Fe 12.633095097294492 8.720930333502867 9.390002427200978
Fe 8.221489495301903 9.487862362439905 9.166408282306607
Fe 9.948245100702165 6.232216425897518 11.007171152296218
Fe 10.27984328653481 9.80656578073478 7.831978660022968
Fe 8.019191150597125 7.211662303685689 9.644305088935917
Fe 11.978194645154884 6.393963601497823 9.537738587603606
Fe 11.417074478860407 7.765303664105538 7.529829843641763
Fe 8.883581163776029 8.033474716809796 7.414250804731758
Fe 9.854626489403675 6.1642536287103304 8.527844913889687
