30
Energy = -207.33470677 eV
Fe 7.582967355832425 6.753023924541812 9.14958880443181
Fe 9.846671827048056 6.434072067335704 8.295740179003928
Fe 8.32051625928632 7.865929740540597 6.900711320112128
Fe 6.494316948126148 8.93036071885281 8.727916582721072
Fe 9.289912099860368 6.894841551043142 10.78033156299442
Fe 7.285061936856211 8.54011000498346 10.879454892254138
Fe 11.157557666495274 8.253754046154294 7.469203106743072
Fe 9.032111111667403 8.609019992030477 8.909544454064822
Fe 7.557846919757157 10.312606664909776 7.249758706969253
Fe 11.279532415339732 7.91607236273063 9.745413205044438
Fe 11.456354139828834 7.941599778426274 12.135416143205783
Fe 9.72271283805667 9.788090133126506 6.53943783521962
Fe 9.565024579862191 9.22442130187643 11.196123103197761
Fe 6.118545220455926 10.836528480362423 10.282169694984022
Fe 13.513347028408075 8.418184895824837 10.593473098802432
Fe 8.288641971433247 10.714828010965473 9.647604291662738
Fe 11.717309614903943 10.019775320762722 10.81311591240946
Fe 7.678745803651172 12.748388030750094 10.970083320677102
Fe 10.816457270686536 10.160309305365768 13.09749294794396
Fe 13.162169461217589 9.636480937645784 12.674563176674283
Fe 7.743840547114438 10.65934932342567 12.091177844986827
Fe 7.1450073185343586 12.419025663419129 8.607060920257123
Fe 10.54369837918934 10.481016925217865 8.803632083986447
Fe 9.297213554937107 12.019479691753347 7.489484818118927
Fe 12.881327128217679 9.77308119651252 8.74756945930591
Fe 13.90813277449303 10.90311481689242 10.711429876329904
Fe 9.969024948396239 11.626204062174148 11.341028498133115
Fe 9.562130127236435 12.983963651635598 9.536922971148067
Fe 12.249899903591585 11.969004049709751 12.165008644872389
Fe 11.997089522973752 12.167288491411634 9.786546495217879
