30
Energy = -207.0542925 eV
Fe 12.878848232197429 8.476935236692778 8.336260085658738
Fe 11.245879942332142 9.89996106957308 7.095297680646606
Fe 9.487263192258073 11.24742071022351 6.117301074060309
Fe 12.061805707328485 10.81481599035214 9.109241140875724
Fe 10.741407012880726 7.582358883306452 7.538531330212658
Fe 11.072122996535507 12.37254477689747 7.56717310740779
Fe 12.975368945186412 9.211045648138601 10.595843766301392
Fe 8.886440504391352 8.957571514306933 6.627738789092023
Fe 8.352354392960198 6.696961013385712 7.253418562092268
Fe 11.984836988478772 7.044287913656802 10.152801429395623
Fe 8.636735238557904 12.725190725180457 7.781234632850296
Fe 10.776083112871035 8.848250253212022 9.599155307398716
Fe 7.398595038197393 10.608116471420042 7.4784215315999125
Fe 9.84509589405933 6.21128552405087 9.146175738000698
Fe 9.487502754078376 10.680730608046572 8.626137610160763
Fe 9.336141484403031 7.376311807142157 11.10774909073362
Fe 10.390605659808 12.556118409225613 9.852091552038909
Fe 6.541496523448667 8.235396757976586 8.008273340767925
Fe 8.559843589764393 8.472864791267499 8.956422578115221
Fe 7.43821333729712 6.481563048165229 9.541444987655774
Fe 11.369125453331826 10.909299818190531 11.465113977814271
Fe 9.165465678914 9.92548242493205 10.949414636691744
Fe 11.073736888439488 8.740031323109994 12.097081272408388
Fe 8.047665472814819 12.11010487089196 10.051035117719069
Fe 6.860108754470743 10.112414356606152 9.732268207357126
Fe 8.579453504676422 8.658400361509276 13.020688246154887
Fe 7.106647669256967 8.264027752243875 11.076426572941708
Fe 9.24052036511397 12.273309863736394 12.086583748536793
Fe 9.868200292402443 10.498874103873485 13.338871243704922
Fe 7.4216560554598585 10.649112928286781 12.183389128887026
