39
Energy = -272.52629711 eV
Fe 13.168744623967662 9.111175361618795 9.776644651851536
Fe 13.07502518065209 11.485351923837452 9.127825117237723
Fe 12.452772273575764 7.39167882610607 11.415846569446906
Fe 12.347672800047972 10.678337933916577 11.317287783182081
Fe 11.985799359811043 9.152163357088906 7.7411682662948
Fe 11.993546679340218 7.138144049665747 8.92525864072259
Fe 11.499796864799782 9.236671290433026 12.95619607048661
Fe 12.079664051016307 11.44773395079229 6.947487231413136
Fe 11.280745965623375 12.717966108048914 10.833493491367268
Fe 11.489109527815287 13.237065650689972 8.532347309252014
Fe 10.848592813539753 10.750922927549185 9.050963740056313
Fe 10.171491426577076 6.500976016531995 10.397639107318184
Fe 10.858082431472893 8.757415058482273 10.647191210054796
Fe 10.41524558470851 7.003971991763579 12.676282506946823
Fe 10.539375642999326 7.534652682248587 6.463019067784578
Fe 9.611296815113601 10.777548703377182 11.217097072677515
Fe 10.148565698204257 10.05887200458761 6.604266027622106
Fe 9.695643760760658 12.30447147972647 7.2462973474645365
Fe 10.154307614572073 5.797918013145131 8.09688775866127
Fe 10.723227954416807 11.62224170975043 13.0688278393656
Fe 8.362158730436342 8.76436825800867 10.395146724019039
Fe 9.263911426984755 12.698872151180339 9.542608461518912
Fe 9.662080700496862 8.225276598976011 8.45154153317636
Fe 8.015334658169797 11.175338267799518 6.063088801655502
Fe 8.19102214278893 8.797711550507874 6.384894941646919
Fe 9.20889916627881 9.102563269449783 12.91393468654259
Fe 8.03013142336577 6.343772924964429 9.47628397715472
Fe 8.43862990945049 10.402208200479341 8.534214534273648
Fe 8.218989058667034 6.4891736456810625 7.072851261326803
Fe 8.168963368238732 7.047752432179713 11.914646845923432
Fe 9.014028707020575 13.097806477872489 11.878751341544595
Fe 8.276649110708217 11.318733772679053 13.22519034495659
Fe 7.389078339338757 11.667763245543414 10.731967001721912
Fe 7.02294594522361 8.214242107048154 8.349039345816571
Fe 7.146722871946932 12.274608297307847 8.267980266925852
Fe 6.9769327907688155 9.662097988901241 12.065323697284281
Fe 6.251607933570776 10.267060359779633 7.308078621835593
Fe 6.1832886975582575 7.786638311219526 10.564595321771781
Fe 6.068417567680026 10.058293979084272 9.696052698023472
