34
Energy = -233.89477862 eV
Fe 13.626681975803251 8.886393912787613 12.115339642001006
Fe 13.018845824045439 9.099455922362104 9.885390457205864
Fe 11.623384194481682 7.615832514306043 11.542390204713467
Fe 11.54379783753755 7.388283292089327 9.042932187579783
Fe 11.20754717922504 7.438277305780049 6.680476039015466
Fe 12.698248547506655 9.020065900993686 7.3755734748085215
Fe 13.06567394185416 10.764711246775626 13.378603600056016
Fe 13.36411639579672 11.214528989446698 10.982720239044534
Fe 12.846379200043954 11.205106558727213 8.509151976815971
Fe 9.645064568209248 8.338838216283534 10.389747427026506
Fe 10.86850855405359 9.81656460184294 8.913962734066653
Fe 11.836732223457892 8.581886607066517 13.686606636438496
Fe 10.425530527850134 9.598045210608312 6.468523379893575
Fe 9.314891774491425 7.960658424752887 7.979610638941928
Fe 10.80775017438804 10.586927519961352 14.143925897959566
Fe 11.307722090957391 10.079731373009453 11.595462017872425
Fe 12.325173731386318 10.951479053575333 6.109404149442236
Fe 10.685763537929041 11.75542687651249 7.6810471707229055
Fe 7.471773119302597 8.602250164244646 9.495827094645357
Fe 11.227381603732097 11.948585142443823 9.947808513785418
Fe 11.57287697827439 12.341248102009585 12.447607672972683
Fe 7.7091637293150725 7.629782964012046 11.694064029641241
Fe 9.540565391391791 8.998627345829187 12.754578942884782
Fe 9.09759181928572 10.736332290932125 10.522704767404791
Fe 9.233065869263582 11.637819279733685 12.721279647989437
Fe 8.52970671901695 10.330657975865956 8.123324588070895
Fe 5.750886478393884 8.870409445581982 11.025251919596258
Fe 8.866559895205487 12.603305490365399 8.979604509498637
Fe 7.412517573816024 10.055975164227428 12.003677610553215
Fe 9.675623900745066 13.312493593352368 11.106475504646557
Fe 6.65545868471095 10.853300637875707 9.693095752690532
Fe 7.332114755998155 12.52130260442365 11.253779211793049
Fe 6.64786328766156 12.970325577980573 8.728110694316241
Fe 7.820510434727214 14.450286311167186 10.103488094418248
