33
Energy = -226.15217147 eV
Fe 10.37423080099219 8.01647078697927 6.852085376787434
Fe 12.190023024417089 7.936003588120907 8.590334614229995
Fe 11.439251161249706 10.087543476484832 7.1083318640690925
Fe 12.355384026738582 10.48909081531431 9.158751177137306
Fe 14.049795099603728 8.91846975429678 10.136550095690817
Fe 11.890007214209605 12.35215495297498 7.567348511896394
Fe 9.054599874624069 10.128733682973097 7.182275719529771
Fe 10.011848768288223 6.40274970713379 8.530448497114644
Fe 8.221538392218179 8.038136269521953 7.932888251822753
Fe 10.831093443600334 7.061385827366578 10.554479248770805
Fe 13.162487807806084 7.271958551883993 11.615311169294978
Fe 10.255860390490549 9.008421629703443 9.160438848934835
Fe 11.972798145934588 8.95020987105107 10.922254344242804
Fe 13.010751565493871 10.977971160472993 11.540248859805478
Fe 10.064756497321214 11.659722570251303 8.778721143996277
Fe 12.038188082832315 12.699170825991073 9.892234416991627
Fe 8.424425774269935 7.496598118841427 10.21561309274865
Fe 8.28934227563373 10.11081918059749 9.603436528834518
Fe 7.901081354484243 12.178457711444176 7.600640479990513
Fe 11.94964785203731 13.180386387852446 12.174297587898959
Fe 6.671577089514167 10.064784281748079 7.780275804910561
Fe 9.484443259087403 9.013104533243293 11.666952450880885
Fe 10.622450195008136 11.019134212375983 11.214660370819976
Fe 7.9306494362344555 12.530996518494621 9.799490189229925
Fe 11.550716475409823 9.131031170872216 13.08674916279495
Fe 6.350868445530883 8.442374521000756 9.462073046534298
Fe 11.8661574357934 11.353565258948633 13.624114861751629
Fe 7.082676271728199 9.300564460885353 11.593002332642563
Fe 9.877987404058812 13.285371826287863 10.822621289263381
Fe 6.160118937113191 10.909805562903413 10.014837765041218
Fe 9.563055403522275 10.448824193512822 13.602647561481849
Fe 8.270035933356635 11.393675579771331 11.741970383122514
Fe 9.864018802375545 12.707176270301474 13.150662814847728
