31
Energy = -208.81911452 eV
Fe 8.335829312975244 11.439623351293438 11.810192258881647
Fe 12.446650505924264 10.888731885112868 14.403925724242493
Fe 9.485166756975705 15.745346477975438 11.165960052712228
Fe 12.09407246748421 13.630859330600025 10.24600360757321
Fe 8.687889739685222 13.891158179690537 12.325954216784597
Fe 14.187038158195582 9.433605925751205 12.108740065173976
Fe 13.35314922963909 13.430878406968498 14.450884505734715
Fe 10.634576485108777 10.334989942431614 12.718642264564314
Fe 16.70700324903856 12.085336002165468 12.2624206897764
Fe 8.62805730008588 11.255878528090657 9.447279771891512
Fe 8.444506475602955 13.662188560233645 9.995317507961916
Fe 17.0289980380226 12.295574263429442 14.531179606721796
Fe 10.268232113321726 15.080002706876163 9.131539291358383
Fe 11.018350444233894 14.581383124407008 12.734684749473642
Fe 13.545603646563604 14.26110187880434 12.120217572018703
Fe 14.35774531423909 11.838210026636661 12.799688147588743
Fe 9.985777411921989 12.383034954362488 13.646496721974314
Fe 12.790747574616097 11.155532106876915 10.99560140651771
Fe 12.262114571441831 8.652953639343188 13.27976253799597
Fe 14.782107818088214 11.482324443334962 15.267615568597169
Fe 16.160440662585625 10.224347914840541 13.636517845780567
Fe 14.22433584810019 9.271249154959344 14.499774060450225
Fe 12.076458987403859 12.508202061292618 12.757017106168995
Fe 10.441963462780986 12.193568392472272 11.078056003303411
Fe 9.481689669658834 9.505776935647363 10.848442154443175
Fe 10.994386658587556 10.52181971233187 9.33586468504296
Fe 11.812891694496233 15.863805241741838 10.803860252126302
Fe 10.264076181791724 12.744572235989404 8.649468851406615
Fe 11.866759937615939 8.992013168491527 10.974526903242644
Fe 15.480093204950444 13.72066537576289 15.662849964195068
Fe 15.63180164617301 13.94056761292739 13.401544255190158
