35
Energy = -237.89919193 eV
Fe 8.65129639495989 10.645628869681335 11.759351342498139
Fe 7.603057544899437 12.596909584523592 12.751411830299732
Fe 13.728976245724335 12.41473737296908 10.132997520054829
Fe 13.225893050058513 13.915420079551318 12.146384196495875
Fe 14.20827599870195 11.782397620373253 12.328470371302972
Fe 13.141303730656647 9.837471854698356 12.90777382655075
Fe 10.05549850656272 11.413981766187865 9.938094202472257
Fe 14.902992577457612 15.662200775462138 12.010815015171461
Fe 10.72962815744258 10.128049712481532 13.010009800646312
Fe 15.677490565814772 13.544178116711597 11.465106083068203
Fe 7.809346428007609 12.256662889167 10.349506471348993
Fe 11.994033888369128 8.38742481280829 11.599740008027355
Fe 12.237615758663038 10.36998841625474 10.470789794034767
Fe 12.406463946748099 14.136277812162065 15.050915050344635
Fe 9.883171038346017 12.554094593581569 13.522700304490044
Fe 16.54850084031588 14.623471063091703 13.38071866137861
Fe 10.565221683945785 11.464420980646127 15.370979596704558
Fe 10.048078097548142 9.145161450987853 10.625906561435283
Fe 14.514897924435532 11.03892506510253 14.67470672779431
Fe 10.215439298510214 15.64529587565228 11.081545604116117
Fe 16.442386024571938 12.117227731480877 13.47979631449333
Fe 9.496119410854234 13.411401541092701 11.403541882732668
Fe 11.57858422444882 12.13803906336828 11.773442102990693
Fe 8.610911033148351 10.698000182408997 14.085337719075929
Fe 14.548218187717051 9.920382448541213 10.83295279572638
Fe 11.537014678355298 13.962494463196764 10.169455468374032
Fe 14.618326577700048 13.56673166653294 14.040618312989288
Fe 11.163491023719986 14.530201628013922 12.987440827003335
Fe 12.374783657280876 12.128867690839112 14.046328137971894
Fe 12.503256047379244 16.076355626396616 11.45938377419256
Fe 13.800826652294694 14.750402123798159 9.940954648291022
Fe 15.606701175760088 9.791112121357594 13.014799654048002
Fe 13.28043148891483 15.846212684848753 13.752172694673765
Fe 16.46312819592193 11.306215388253129 11.27369096320367
Fe 12.182453356476712 9.875227727559382 14.960246767993604
