37
Energy = -257.72303503 eV
Fe 13.612313847857248 10.970257256852552 10.483454554863092
Fe 12.284456355658914 8.991811909271911 11.627311646273196
Fe 13.139962317179581 8.35571685691374 9.581479280366173
Fe 11.65031616101949 11.334580555373451 12.097897311744914
Fe 11.035531739774132 9.458788592754441 13.676162906327207
Fe 12.260714571040156 6.613456770487541 11.045984318212092
Fe 13.664122493396068 10.255350142047226 8.269489019401767
Fe 10.44411653133923 7.385506489908477 12.30322240314331
Fe 12.79820060274832 12.388612939844748 8.394353077290877
Fe 11.737919089444013 12.98659664196838 10.381093895439868
Fe 11.70301542149308 6.448109983375907 8.748114613950484
Fe 11.49934758432814 10.418072016109443 9.61616488003844
Fe 10.237752164900941 13.39365495836013 12.290294917706076
Fe 9.977855211595548 9.624761440888987 11.541980331837633
Fe 9.38518058820114 11.34132397785552 13.18362235933918
Fe 9.857479436174767 6.043714631274296 10.281712063809655
Fe 10.464719128930806 8.180211277175811 9.737726531104881
Fe 8.718316761221049 8.899635850648346 13.535627537599078
Fe 9.909424248228685 10.002445651405852 8.115075813437764
Fe 11.77719013633941 8.794864616449448 7.617397537764868
Fe 11.561686972005143 11.144924214114075 6.899498341362988
Fe 9.361625509604934 13.98885834914596 10.125282450999121
Fe 8.243352078116752 7.90127921698549 11.33072568833231
Fe 9.748299519908812 7.418179807480077 7.563679907054431
Fe 10.289668986993092 12.475511831837748 8.417294234252825
Fe 7.843398355605719 12.745071890857009 11.757351139122537
Fe 8.21581481872711 9.75022156110779 9.573786569123731
Fe 9.613561448159631 11.673882562547334 10.581070667932464
Fe 7.659665369104934 10.272299986599142 11.811952429690068
Fe 7.994257941834091 7.156167344891646 9.095678243232102
Fe 9.66622351250633 9.248755889884222 6.049548133104867
Fe 8.307423656402419 11.225386925755902 7.133784692801492
Fe 7.803224589145344 12.244829529399212 9.25572953273255
Fe 6.233730512444978 8.792380760733712 9.892606344956112
Fe 6.0440991407535645 11.19678259683102 10.44002248406482
Fe 7.663957180301952 8.802913827424737 7.396729873148673
Fe 6.2318121343898865 10.533667777789168 8.161604454347277
