39
Energy = -269.07807709 eV
Fe 10.991392842306595 7.733060535264866 13.188439020828792
Fe 9.92247583107958 7.589046104278564 10.77228932132978
Fe 12.267880246091911 7.250267338886442 11.320645098985503
Fe 7.637189216574717 8.38026548311311 10.183477788839781
Fe 9.810030979287843 9.198814259358384 8.951890787268919
Fe 12.060397665817794 8.473780195718012 9.196173955718505
Fe 13.818657153135685 9.032128832824068 10.842659377860011
Fe 12.82343168960868 9.239667556121303 13.034033903647687
Fe 7.898859162316511 10.589635966595022 8.68814081905013
Fe 12.565025671950778 11.028484990868742 9.905821708671848
Fe 8.794734193646695 8.342326987184567 12.733117640479318
Fe 6.2330741250631325 10.365672552474154 10.276079594368726
Fe 8.704480537636973 10.224471847506605 11.200649454254036
Fe 11.880031215596402 10.345028649161346 7.6866463501214675
Fe 11.188785971895143 9.477826492219767 11.212252394510879
Fe 14.105749374936941 9.78051264086321 8.552021779605605
Fe 6.673253218898532 9.21294858375279 12.309584941127497
Fe 15.530868008742722 10.638343960244358 10.530952211468803
Fe 9.675726535367142 10.923595162361478 7.200471887490383
Fe 6.684663557037302 11.61480410961738 12.279993625365558
Fe 10.1413103894934 11.471721709290254 9.754841017280269
Fe 10.488163403028413 10.127431808439633 13.432182837173272
Fe 15.578087556586752 11.502351278704648 8.384390717414046
Fe 8.201370884681104 10.586192846414853 13.73958618728439
Fe 13.70725141416033 11.210182444513768 11.942491241205856
Fe 13.456033406991686 12.259235052853402 8.009325251260908
Fe 11.31754171687334 11.835519268051401 11.94085519981241
Fe 8.741082234999483 12.926859263807513 8.209072103740485
Fe 11.11872833700363 12.762518202468671 8.078866034677379
Fe 7.653997534021599 12.420350108952235 10.250905724103939
Fe 10.14727283591631 12.328835543603175 14.313199879985563
Fe 14.483583139885532 12.733873715923664 10.185247711044811
Fe 9.785595048664078 13.793257703201862 10.204460094626281
Fe 9.034053693512826 12.404184897572557 12.240489179177718
Fe 12.580585088576061 11.464069543510675 14.082696191713943
Fe 12.146194965203847 13.334060783426345 10.215163814104617
Fe 10.813504512770727 14.17135213976815 12.350379333661142
Fe 13.336586442965636 13.497161350919937 12.329910668208223
Fe 12.02040798228053 13.66910997711948 14.239556696184755
