38
Energy = -261.76520342 eV
Fe 9.357157043631618 8.790175308654899 14.41415859230366
Fe 10.615898239935897 10.749541455742875 13.615990814309551
Fe 11.398378297242827 8.580051961911881 13.210751029065651
Fe 10.400122413926814 12.864259255233428 12.65898586416797
Fe 8.038170774632905 10.795508382961279 13.626075571831162
Fe 9.413260326782313 7.016794345262259 12.715868717242465
Fe 7.365978613646712 8.344321563246675 13.322471048304324
Fe 12.456435294216279 11.880445902553562 12.03211677558882
Fe 11.310281366789804 10.020871802421608 11.26113665096273
Fe 9.182934188070446 9.316630972934627 12.08975717925501
Fe 8.601607695290491 11.594746589507906 11.348318063670897
Fe 11.640166727663168 13.911793804021892 10.7335053994932
Fe 12.10392319650945 7.333032233863791 11.248516810968372
Fe 13.635067910000815 9.317451309962896 10.936721133417342
Fe 6.753226831325321 12.648623987257642 11.748696170291865
Fe 10.481634061045087 12.071483710702035 10.174759993065402
Fe 9.192907915307385 14.147202123015685 11.310243636800909
Fe 6.754174890031648 10.049320113699562 11.703598508603887
Fe 7.657692313453592 7.7204776447119166 11.026960954553056
Fe 7.6730367725436475 13.4653813557268 9.705067721043878
Fe 9.92543596791192 7.644344954542911 10.320486150382084
Fe 12.850784999542318 11.349444464506272 9.625190691133596
Fe 13.767824974993081 7.373278554181963 9.341809319048632
Fe 11.897860212874898 8.830812786521145 9.341690991303166
Fe 6.844765715763784 11.327872014871241 9.604499076565588
Fe 8.675367283037756 9.595713560519647 9.556977875200776
Fe 14.101063603247527 9.529226158861594 8.510134085754254
Fe 9.851918809437105 14.20480552750705 9.036652543688943
Fe 11.599170761508455 6.461195980184886 8.972343822649608
Fe 10.621865137393783 10.339775817269114 8.26452732815329
Fe 8.87687328891302 12.023235409384707 8.201495773194283
Fe 11.437440162716516 12.658618195660909 8.059642051256992
Fe 9.885132584828387 7.8309924475318455 7.833166973663688
Fe 12.516638818664772 8.033823716010277 7.198987624434045
Fe 12.59694882780895 10.570827681700267 6.91884685359713
Fe 8.63924714110694 9.847174031672079 7.021356123965947
Fe 10.325934827297486 11.473974399856791 6.194715464953189
Fe 10.76680707724088 9.16857884112295 6.058466270960932
