33
Energy = -226.33274285 eV
Fe 16.013193038696844 11.578639034553502 12.048178771021114
Fe 15.274101639315555 9.965532289997176 13.577913639020185
Fe 14.752042758014696 11.643748346406323 10.144756315054867
Fe 14.381085841260234 9.58774329733992 11.37927233678152
Fe 14.644002736838223 13.519271975361693 12.071221999878423
Fe 15.371107675403639 12.270516956694964 14.213630457817398
Fe 12.906694282276279 13.099183244319088 10.448169001404418
Fe 13.408633548950565 11.111937811864406 14.868221698959125
Fe 12.593426678534057 10.793526989747114 10.114353280056797
Fe 11.338047495966554 12.299391397387161 8.862687321636159
Fe 13.306227090787527 11.529952412852847 12.480850113214629
Fe 13.180651288048203 8.99011768464068 13.4399784858472
Fe 11.593227435090823 9.937494350210281 8.16914955840548
Fe 13.54551280784052 13.647052426917195 14.17875084448837
Fe 11.833487340864776 9.18291091740308 11.540427322157631
Fe 12.016772400970758 13.92921122584614 12.3430037170502
Fe 10.79071051568401 11.8661835244134 11.567189658700759
Fe 11.348394039733858 10.44159971832492 13.712866977144072
Fe 10.125181925589429 10.11943256177884 9.955625364539971
Fe 11.454023186633494 12.550268423321784 14.160781296410253
Fe 11.464470883828147 15.156168186903326 14.13202545530627
Fe 9.601850976837675 11.203704935386503 7.688488357354219
Fe 9.274125750719211 8.80016809912751 8.139323831963898
Fe 9.654625780795179 9.502253402431391 12.368034760745422
Fe 8.295595876294366 8.823506753975746 10.520607821144713
Fe 10.684894216907635 14.175345431404349 10.328298700979158
Fe 10.039259596820012 15.418804393302 12.229982025274836
Fe 9.213564902520208 11.594037092239386 13.498143964973325
Fe 9.487305778299415 13.942505831535914 14.044275084258658
Fe 9.06576158817714 12.547927032598132 9.669668870900503
Fe 8.14087710181264 11.129850599064072 11.403722822364545
Fe 7.772472392922921 10.600988546635392 9.069852456294884
Fe 8.66721198836127 13.55416871016747 11.873799337532255
