36
Energy = -250.03611665 eV
Fe 8.244900590425878 9.912052619943543 13.619403870202973
Fe 7.391437710467693 11.461495582565476 11.921831462251282
Fe 10.966534381250414 10.531590867923589 9.870003896149306
Fe 6.8469750624073225 8.31451496946907 8.84376025744758
Fe 9.448633375622986 13.530810460485338 9.145761335247698
Fe 10.741463664430942 9.266198794274201 7.814495544902276
Fe 9.518607372946919 9.538711605890448 11.525483073252667
Fe 8.519569657693701 9.549767110354217 6.73113192630305
Fe 7.7344983876512385 11.725606847622311 7.998359539539575
Fe 12.372575806303777 6.656561271530076 10.222975561128976
Fe 13.163120868723023 11.14857024362303 10.126161884555412
Fe 12.503138924535826 10.82706026271961 7.621836715015502
Fe 12.15346899728343 8.848665307465824 11.408805514819969
Fe 6.509175215236903 10.646228385284363 9.637256611700968
Fe 12.857323171836248 8.857879975954372 9.028081002405697
Fe 8.962046502490853 11.620979407651118 10.227090116419424
Fe 12.494358595189004 8.585413197934782 6.457240406401225
Fe 11.906656750124517 12.73974577680277 8.864431627310841
Fe 8.404660969011626 7.3679580629787935 10.470487571236143
Fe 7.148421239928181 13.057456576963064 9.982872360869166
Fe 10.595239010338268 8.12902297428743 9.814029640109565
Fe 10.638277304821981 10.285984973909805 5.7400281621982785
Fe 7.113454700775987 9.12584994748572 11.358478605316089
Fe 10.055434476221194 11.546854455924327 7.7846608693469035
Fe 9.056652828420514 7.340515728385689 7.994937586025491
Fe 10.093303535573115 5.785850580311867 9.684388839564908
Fe 10.598946619298298 9.097343897716849 13.453904145209675
Fe 10.183179446434542 7.8426709789942946 5.896331300898854
Fe 11.494609222655686 6.896289218202852 7.876364810794592
Fe 10.440840977616721 7.068887899146672 11.952620944844163
Fe 11.917638373734416 10.981580217909757 12.228694420673452
Fe 9.700879240031998 11.632339723726723 12.706756172960716
Fe 8.411995382349264 7.698181040008045 12.909461614464808
Fe 8.775989746443495 13.616928913723966 11.667102084667382
Fe 8.69898990654303 9.57108304814637 9.0890588215192
Fe 11.028137034522935 12.887038596906685 10.993091981184909
