30
Energy = -206.39890433 eV
Fe 11.674974824054043 11.749498075802787 7.461366436506372
Fe 10.272730213666149 9.887896224893982 8.51159007629935
Fe 9.61903122698233 12.5806096140738 8.365120151677468
Fe 13.70117376267753 12.23871171019401 9.268172652010659
Fe 11.979637703131074 13.860684830205741 8.797854880191215
Fe 12.773656196531773 10.095610446076055 8.838681023129679
Fe 11.816380088314778 7.984028798529415 9.416250975452712
Fe 11.34964887085089 11.746617229414381 9.746069628879313
Fe 9.054521974943532 11.104542582898492 10.233808591616778
Fe 11.827273039966842 15.328633681797491 10.784881499126366
Fe 9.108825227209662 8.575930208812105 10.47528509746616
Fe 13.913424214639331 8.992903387713373 10.487135238308031
Fe 11.092044160314643 9.596200510266705 10.903583045053585
Fe 7.971322627049985 13.09545343454167 10.210399483824533
Fe 10.199183187549853 13.807308144118737 10.486951483022247
Fe 10.696649540363849 6.9484158025368545 11.14897582886603
Fe 12.696837735265374 13.279770101725607 11.187535667703013
Fe 11.22640607676511 14.077005880774067 12.935052992296281
Fe 12.531695697005505 8.182500017163946 12.160504584228303
Fe 7.929521953423609 12.05366661558261 12.384241586909623
Fe 9.095972554262529 10.040851172283297 12.439441203090313
Fe 8.940690667688438 14.044970017678665 12.426761139807867
Fe 12.998284394090115 10.91506921972106 11.359315704703757
Fe 10.616276276925623 11.936850016102676 11.90895115277048
Fe 11.390058676848462 10.275045283637285 13.350340149844051
Fe 10.281405859627732 8.10144320248115 13.066487141225963
Fe 13.85281014682664 9.960829022836336 13.238892760140004
Fe 9.818236429731089 12.19563849069808 13.968705223149353
Fe 12.664711861538729 12.220138554480387 13.44820557739306
Fe 12.361939822043208 8.578502733247818 14.444764035595352
