36
Energy = -246.259388 eV
Fe 8.10623784990225 11.525131348754133 14.765190617783157
Fe 10.660473396907417 13.73329798051957 12.70571292974211
Fe 6.220480969687029 9.221409182307918 10.73407043309655
Fe 8.261226625636466 7.7298945890270545 10.262625915501808
Fe 8.232666256726532 10.290629179956804 11.071421344059434
Fe 9.711167449389224 11.94298105305779 6.727760528324384
Fe 11.701298107521344 11.325194746502588 9.791528586852888
Fe 9.740129711910065 9.67172079403772 7.371001250260362
Fe 10.1232615619899 9.317136283732497 9.844541227876233
Fe 10.463546205255309 11.648680557050112 13.994930931667819
Fe 12.12158840096994 12.166930636252909 12.174426876260593
Fe 11.491367304980106 9.322458379785695 13.544137296020553
Fe 13.86059382494813 9.286255518060125 13.195712188982993
Fe 14.397730458564864 11.651817796723623 12.713537920364667
Fe 13.938635158413572 12.071368198019103 10.480845148515769
Fe 9.941332890508864 7.584191434636995 8.293951485059535
Fe 7.406529272472765 8.279853488677531 12.461119162880598
Fe 9.18269105583461 11.420177774929046 8.913286374426999
Fe 8.604515942769666 12.239870952023761 12.675798696457074
Fe 13.793647029125431 10.359441216237231 8.892705555520891
Fe 9.895582600386815 8.225555235904876 11.931630289746803
Fe 8.956164536917493 9.780363312378979 13.56975059362294
Fe 9.996073486114557 12.727594142347284 10.786519822976862
Fe 10.892305027456635 13.131627872964604 8.398092849556868
Fe 14.825488971374941 9.851287986152592 11.104221942780509
Fe 6.746162307129639 10.603150798656909 12.898567328262606
Fe 11.537043682810053 8.540950555950593 6.606974884893728
Fe 12.151893214204817 13.764241532369109 10.376586247721558
Fe 11.788251554137151 10.896187407546368 7.419555318706724
Fe 12.140055198914562 8.709309613428259 8.832375001880987
Fe 12.836893578960217 11.07203253620162 14.33245309614363
Fe 10.424209029983162 10.659109949582 11.815783242184354
Fe 12.500289230735996 9.545087253784676 11.188191198515579
Fe 7.749855515011253 9.46776832156156 8.787712401497325
Fe 12.47457276825133 14.950010360443827 8.457322548411975
Fe 13.25971393312332 12.77638925257545 8.239824370763689
