31
Energy = -214.22671393 eV
Fe 11.978930600506438 8.540761010219413 11.388563125081744
Fe 12.246374914517986 6.941349893195618 9.613222499132688
Fe 10.286338320630922 6.350945136088721 10.993667259472577
Fe 9.984224588315294 8.304900763174128 12.468015507727744
Fe 12.569153843678388 10.77346744226396 10.8377917491912
Fe 10.796803256509149 10.622488645564353 12.588518656386134
Fe 12.169185329257626 9.31528390286435 9.019739337601845
Fe 10.366262978776565 5.995739736753961 8.43259636146762
Fe 10.050158477264654 8.100108080943153 9.618994602620461
Fe 11.355753667907386 7.935799501565874 7.303658603477673
Fe 7.894010372970203 7.610908851097688 11.304036134632423
Fe 10.129593308762102 10.33125440152451 10.4436069742945
Fe 11.15498639340986 12.686280946094017 11.001774948183256
Fe 8.225742919714463 9.86016734504981 11.914725446837497
Fe 8.114423587237576 6.540388664290893 9.248421524563376
Fe 8.971091800897062 12.1002911370312 11.760012815485206
Fe 6.0140145244942875 9.562453914017253 10.975921088178094
Fe 11.970498417329885 10.293034113813656 6.786583784403778
Fe 9.82250473288366 9.970789930648776 8.117567700707944
Fe 7.934693957199805 9.229650293002985 9.401955602629968
Fe 5.953555915755675 7.570986324699553 9.823189650668636
Fe 11.503069809986805 11.689218882399434 8.717203401050758
Fe 8.974379435029496 7.754939104210138 7.343134863980501
Fe 7.235145215355511 11.476387569217739 10.233778311647738
Fe 6.551528014680835 7.752879694403159 7.621188296540794
Fe 9.311786321459191 12.451487157912535 9.325183769223363
Fe 9.975025684784773 9.569156642326261 5.75590533988404
Fe 5.824791429065854 9.850440140428143 8.55169006213584
Fe 9.803048179315011 11.78004083511367 6.774445674308459
Fe 7.574011349505347 11.586905098531746 7.90358339889222
Fe 7.724032283824487 9.664623676643224 6.702333678314765
