36
Energy = -247.95699972 eV
Fe 14.977883007123614 11.699263413692849 10.668491255026108
Fe 11.338403776900048 11.465317691129368 13.083428935698315
Fe 10.824545836361814 10.156958332704088 14.869301808571196
Fe 9.191546086690632 12.997580239370741 8.885080335335717
Fe 13.358272900636715 10.365104478975654 12.066934098697784
Fe 13.828103491376208 12.72043446674065 12.747830706247846
Fe 7.809162075237689 12.557273603934199 11.094338458973017
Fe 12.46414797491487 12.150473892957026 10.912309244253873
Fe 9.038770134563253 8.671775458604465 10.869155456718833
Fe 11.201513084905123 8.911493324207626 9.067646249664403
Fe 7.148632124740198 11.484991400585564 8.869217320955164
Fe 10.186350789573083 12.316384969150276 11.036050111624899
Fe 12.166679613124924 8.872473577612976 13.45602917723211
Fe 13.26627013333502 11.047026107327756 14.37156494638578
Fe 15.511182431887406 10.924640593959491 12.873890552916324
Fe 11.665933009327658 14.242827917918982 11.702070065317523
Fe 10.519002328445621 15.531634575142588 13.101259182290322
Fe 13.553888040017364 12.498855530594277 8.750245684526003
Fe 11.504971648106693 13.79888475965482 9.395283623409535
Fe 9.154093778519131 10.632251194565617 9.712291948044363
Fe 13.938170939622108 13.968545938781821 10.617017436993937
Fe 15.074076341378065 9.143203444701458 10.882429130945429
Fe 9.833837463172753 8.851189594298186 13.157263580398528
Fe 9.770948813410998 13.271502550355349 13.21482033199343
Fe 12.148361932587992 13.82758381206669 13.97017726976957
Fe 7.128804383298245 10.21860700369658 10.946873145766773
Fe 14.551025308002314 8.763430471356996 13.218439500165731
Fe 11.07634629698388 9.916839296295846 11.18204813083046
Fe 7.083460016611154 13.77203079538241 9.302482502237304
Fe 12.73217692744984 8.1144654595902 11.171005477338166
Fe 13.618983791757936 8.02560310051865 9.081820014710008
Fe 9.40294131581036 14.563468463984282 10.878458359623773
Fe 10.946227625702745 12.550351327537554 15.208717812322767
Fe 11.239765254135321 11.419378870193496 8.8874224808452
Fe 8.896147317216064 10.828870097735054 12.472295215863397
Fe 13.23511404233649 10.227101261221494 9.60362620211726
