44
Energy = -307.60888515 eV
Fe 7.502935467130808 10.431302552296057 6.815083585789511
Fe 7.49984295623167 11.482725518886399 11.13335470952085
Fe 9.429323948936863 9.19878382377475 7.666781824597923
Fe 7.6280397542065606 9.608552869951577 9.26630804709651
Fe 7.615593610873185 13.196266676011922 12.874836446820144
Fe 9.140963802944382 10.223140056372829 5.458246751413257
Fe 7.653472183140169 12.022795144386638 8.843131726624705
Fe 8.960149339452185 11.011326371057757 13.236946150219358
Fe 9.729327895123262 8.22990851901761 9.83855915350236
Fe 9.706733802142034 10.845393501140366 9.356659716142282
Fe 7.750131778582905 13.81361588081474 10.609902981832333
Fe 8.500984330265883 9.435249874957398 11.47509582377637
Fe 11.642969832047058 9.423693646720123 9.076502004368303
Fe 9.755154408755015 13.274387517274606 13.611867132535943
Fe 10.161560116020585 11.362968260611206 15.316240723087299
Fe 11.243491115166181 10.495977868557942 6.959580335047081
Fe 9.373743519150171 11.917667618340621 7.185804733149906
Fe 10.078154358900953 7.7047026126797915 12.335541238378234
Fe 9.787274823684344 12.341135899921895 11.228933345182405
Fe 9.721889354939037 14.692977975531276 11.57794131439939
Fe 10.878406987693099 9.811719365074206 11.435642512421264
Fe 10.606867388997069 9.225203449090252 14.154941329583279
Fe 9.53290377106666 13.565923454690916 9.109321191647087
Fe 11.505193466174182 12.293784613249793 8.422329816500977
Fe 11.342788808610507 11.397576334984684 13.113195665394729
Fe 11.940277212215287 7.52594807532544 10.89704579504852
Fe 11.78946681090896 6.828318357838119 13.597069049922895
Fe 11.683586586455517 13.140826444457929 14.96269425594084
Fe 12.195060480692533 11.668680071718777 10.544918742817726
Fe 11.82096910237088 13.586217750383097 12.482829244240687
Fe 12.619402051969171 8.858051589433199 12.887975731226865
Fe 12.542567082368269 10.709404214570023 14.975913061159288
Fe 11.69769591201069 14.092094100877022 10.15336125312871
Fe 13.443216378659374 10.838316228776803 8.399173036224022
Fe 13.565039725826189 10.89856711191553 12.345139750613708
Fe 13.757660191700644 13.191485671855354 9.121491957893596
Fe 13.508532720506667 9.31661538807066 10.539765336236123
Fe 12.789311739731295 8.377624804258009 15.149973062237605
Fe 13.739917116588515 12.62806319972443 13.910067740826806
Fe 14.629527653886646 10.04479070669019 14.169620265841777
Fe 16.027904753528947 13.348944224196705 10.326058584442556
Fe 13.943263666946189 13.403093349128934 11.495208705911418
Fe 15.580807314850029 11.996069589335027 12.494628892861206
Fe 14.796341992119256 11.35855502962022 10.262762587964632
