48
Energy = -336.42271265 eV
Fe 15.510101651523083 12.776550277324294 12.459676595061065
Fe 15.064573503681489 12.759611917902133 9.968051738113832
Fe 14.971255853182832 10.128213523044689 9.178504875026297
Fe 14.91179808167761 10.701241089229557 11.417343821487666
Fe 13.485655280312049 13.890728557830265 13.442348695079389
Fe 14.276869518695754 14.56459387375002 11.30903324814089
Fe 13.764629411389313 11.40094430831129 13.674578014166487
Fe 14.557379636083573 8.396159035083919 11.025442024206848
Fe 13.709077940167326 7.945889267979212 8.957954414925748
Fe 13.235802385173049 12.299824091467812 11.494142692837897
Fe 13.23244097312726 11.999505141312254 8.786090773261751
Fe 13.2295529035134 9.803516299126914 7.613334038468601
Fe 13.044829814961126 9.391140322946162 12.562311506640544
Fe 11.717336924199174 12.420597182233257 14.077799217930185
Fe 12.729578067810495 14.14432407050786 9.588783611946543
Fe 12.673826546506355 10.134193577599103 10.252373896687233
Fe 11.82112109257957 14.236204951699872 11.790399356919403
Fe 10.60101882556541 8.730140585241859 12.568597297188939
Fe 12.143377060393641 7.836439824157839 10.920516556920191
Fe 11.38175655022662 11.02255400713173 12.287329765625987
Fe 11.540488283624411 10.006555608214247 14.444341354082965
Fe 11.435025051968523 8.38124188885607 8.68181737351121
Fe 11.215279581689181 12.236763963974674 10.295621299298354
Fe 11.1402713805198 10.708020737789363 8.386527170074615
Fe 12.25538337968369 11.803410495646176 6.585583821243284
Fe 8.886914345567085 8.70774198254749 14.146580817515181
Fe 10.227946090396927 9.86973024114115 10.493614920154174
Fe 9.892807519197184 7.391915510014911 10.153112360585405
Fe 9.956370799417213 13.191687372970103 12.748971669105755
Fe 11.09385413727992 9.302350715190522 6.512795750249211
Fe 8.777842269645436 7.150324990685225 12.159274620831157
Fe 9.191326166855303 11.866766818004837 8.914995771151096
Fe 9.441674276786799 10.912620571123226 13.663509849213174
Fe 9.705737720095147 13.970097749213766 10.232208409271081
Fe 8.970934541356593 11.73450893025445 11.354785639921305
Fe 8.34753678759053 9.534663812228647 11.986904489937887
Fe 11.018316912379994 13.216868138606644 8.032468246255858
Fe 9.129070499202186 9.201283740003856 8.372273495555504
Fe 9.74808101425482 11.366614528851368 6.702162849275901
Fe 7.797192622756397 13.977608030084308 11.78802282542615
Fe 6.701770411304465 7.960959650197564 12.774149916094142
Fe 7.624126680763023 7.960729094535197 10.228046500010498
Fe 6.868142011371225 10.225360087038041 13.593583470406703
Fe 7.616981330932934 10.39130304672986 9.874865621125167
Fe 7.7087629897543675 12.525477272464274 13.572353165770144
Fe 7.339254581690124 12.92488762234178 9.788050269824911
Fe 6.555334044924191 11.687468851678313 11.764557214576353
Fe 5.895953598915578 9.428216000036418 11.209710327042977
