47
Energy = -328.05106144 eV
Fe 10.48333632553264 9.075020869837562 4.934918216303718
Fe 8.15078364932144 8.770170088298563 5.6087136386759076
Fe 9.11938313655001 10.997298871338625 5.978956502614581
Fe 11.573701281024938 10.667374289395273 6.391281069389667
Fe 12.089870236197667 8.134307236952472 6.810416974107629
Fe 9.82422054226681 7.088519077601805 6.076851784683584
Fe 9.892354826650314 11.315450098413752 8.182709350570873
Fe 7.735968451667879 10.003927438402659 7.723601033854455
Fe 8.197492099190217 7.596344930619981 7.885236155552622
Fe 12.458609562653502 11.97063673644486 8.347159471004408
Fe 9.93601858309606 8.99553156670795 7.273086038765633
Fe 13.646732495141869 9.973288920744906 7.507834225167347
Fe 5.99219714558691 11.089190041806402 9.040536370895074
Fe 11.647478203482054 9.6471602301429 8.618579967468907
Fe 10.575693158963709 13.484643221209355 8.378768483351466
Fe 14.015556495239117 12.56857399257627 10.061727199916964
Fe 10.72917914278725 7.232225102041879 8.91105669439971
Fe 13.18105140892869 7.9644410731316935 9.171646444214039
Fe 6.802963480840667 8.781328353945755 9.581312115719273
Fe 7.9433367005052 12.569677660704237 8.129475079159485
Fe 8.442268282778581 6.76655116615663 9.998782422869093
Fe 9.391012840672207 9.066162774039773 9.60977937918844
Fe 12.835985424866571 14.33214213076753 8.758397797741814
Fe 10.924851072572055 11.279508203913991 10.380750618705662
Fe 11.872215698512775 13.53754782750734 10.528015855027567
Fe 13.532006303404481 10.351948554416493 9.932006388142375
Fe 6.9479689727103215 12.9426124069754 10.404008696683531
Fe 12.2807919020825 6.754955382924385 10.963074571203048
Fe 9.313211857611105 13.09667762268303 10.361669779696546
Fe 9.993095415996313 7.513882893101428 11.478480848274568
Fe 8.174178893524674 11.003816685514881 9.976240659082473
Fe 7.688225270690683 8.339061591430033 11.679358998880573
Fe 11.559971378207683 9.02992700695423 10.862881636891046
Fe 6.484283043088411 10.535748108340195 11.469530388859633
Fe 13.563605674595113 8.88468787032449 11.914278042945087
Fe 12.835604880708875 11.41765807650085 11.90796293437387
Fe 10.549461889950368 12.396760699391393 12.45847356203594
Fe 9.333860026586706 10.078671696988456 11.88383730954777
Fe 11.770257040612131 7.718832419491699 13.107154631887596
Fe 8.11116644837727 12.07683440989676 12.461727339283364
Fe 7.361892966421028 9.882200012532465 13.61345362520968
Fe 9.360891303108623 8.374848358001149 13.629759535166457
Fe 11.423168981190168 10.074303049718774 13.011378341086061
Fe 9.645455009138502 10.970890533186685 14.216142318592906
Fe 11.06776830864513 9.06407018089625 15.045192404230368
Fe 7.629585771199903 11.809045133343455 14.838022487512923
Fe 8.618409102292935 9.482666089857176 15.602893296236868
