43
Energy = -296.80060157 eV
Fe 8.631272494051885 10.607521532511099 6.572301465407593
Fe 8.220336929121517 9.057860549719067 4.683691203073182
Fe 10.249423958317234 7.739748234400206 4.620576692986728
Fe 10.658655733317257 10.012654621929213 5.482741506685347
Fe 5.565441242796151 8.238628128455167 5.250808305222963
Fe 6.169015992083141 10.5826993665595 5.825238159267552
Fe 8.050112826867487 6.544335298439291 5.700607512602587
Fe 10.330075062943264 12.098190996564952 7.1303685804344
Fe 8.576132004961217 9.14569428509007 8.550857275668212
Fe 9.56610981438318 8.24458983383184 6.605245006805051
Fe 11.819624843055923 8.02758372748656 6.982554995812295
Fe 7.160814943282464 8.57771057491206 6.722486950900884
Fe 7.403896006066442 12.439760947283117 7.245825587898784
Fe 10.040991215609724 5.91830283580733 6.961926094376778
Fe 4.766421673120171 8.956972153796901 7.452712446949346
Fe 5.91744282476058 6.581031359137627 7.308676017535907
Fe 4.758261296890783 11.368158412101224 7.67372490879697
Fe 10.75220637715588 9.986817334543957 7.949637141581115
Fe 7.6675230457397765 4.782603361417338 7.474550639022805
Fe 6.693449264012331 10.494601779910672 8.274899266173838
Fe 8.24093159940442 6.818859369842858 8.092600350866855
Fe 10.368051432444691 7.611943651979353 8.819288766731564
Fe 6.471286467738986 8.14225880428964 9.022841206534217
Fe 9.535082993714859 5.4320455398196055 9.603399286262368
Fe 12.084736223363436 6.181323644916857 9.281958601843066
Fe 6.890742673811696 5.834039031796284 9.738797838028244
Fe 4.5021186171656336 7.542968062161816 9.73597523883619
Fe 12.263705003415023 8.814385995565164 9.613366474769224
Fe 8.899616784370522 11.534867871494422 9.050555437728555
Fe 8.360272457739011 7.594394971168644 10.437155334584801
Fe 4.984996750328135 9.900704293299428 9.926495120803452
Fe 6.6892661351366245 12.072917127367809 9.902216955660924
Fe 9.981286672034754 9.576489253773827 10.395158904457801
Fe 11.307547329463198 11.368782638879999 9.671779924784268
Fe 11.291811401708038 5.096951712059693 11.196214839632606
Fe 7.415293204771212 9.944484731387474 10.63395053838094
Fe 10.683435350807011 7.289184276769066 11.203212103760233
Fe 6.248897110068625 7.88894527021727 11.413488671525737
Fe 12.99741007012031 7.234933002502416 11.196823284081535
Fe 8.813932622796383 5.848190364293373 11.7825822654336
Fe 11.71492420497548 9.422915327450216 11.829007321538375
Fe 9.074593832323194 11.441994752680428 11.409536165966326
Fe 8.924707381683854 8.742808840305608 12.316019478506115
