44
Energy = -307.55563682 eV
Fe 5.860994381890225 10.657935394553784 10.986728174571574
Fe 6.573038109202458 9.19029216215575 9.355584764330255
Fe 6.576488717160211 12.918890748450798 11.228582661274334
Fe 7.595244295996061 11.201954075756635 12.923740748527317
Fe 8.764502020865509 13.173008339300088 12.030858710877432
Fe 7.697510025596337 9.08469707567201 11.585677518171943
Fe 9.436846908914907 11.786411584690805 14.185390162436256
Fe 9.088713769667487 9.308921974208188 13.593886166947804
Fe 8.910945608262598 7.158067626390896 12.771532402878497
Fe 11.448479445342214 10.157946897472307 13.8257490039197
Fe 6.450280999864799 11.743793418389755 8.864301559758353
Fe 11.132598106811303 8.03170259959586 12.964405103660733
Fe 8.169813402133482 7.182449221130679 10.25247875272871
Fe 13.492106628440315 8.977953100352895 12.90062275284888
Fe 8.191218397473964 11.188622947131972 10.427674591488161
Fe 8.023716673998004 13.56980513240759 9.500119890114957
Fe 10.202343190719459 12.99318810863018 10.233832395963145
Fe 11.00167332201124 14.37467050518839 11.931167313083288
Fe 9.783943169593218 10.811509687988858 12.026692245526583
Fe 7.630284719707929 10.182232977803672 7.366078577505611
Fe 11.183151329762051 12.360802060542218 12.713848012403082
Fe 10.084871711098872 8.670107836499032 11.072898206148016
Fe 13.258737202057057 11.617469082577044 13.26278360496888
Fe 8.989491057519336 11.775823758538987 8.189410633835749
Fe 8.917681648099673 9.166415924908739 9.109462905980767
Fe 10.1758809469676 6.157523278653742 11.060132344317196
Fe 11.799741444305273 14.433746160940663 9.499964521682282
Fe 10.557850448430631 10.816361365555219 9.783514500442605
Fe 12.12836151384538 10.110947298021342 11.460807920911723
Fe 12.598491231080232 12.478952506659367 10.87834702888848
Fe 10.14909293803887 13.741313888180196 8.04599862813634
Fe 14.576226973356253 10.87292993278827 11.494203003624666
Fe 10.27210339947458 9.774274897577692 7.326821732147805
Fe 10.4609978743739 7.228521018243383 8.909212058543378
Fe 11.884408663920679 9.065223366782817 9.177870526733145
Fe 11.839419685780657 12.235486157429033 8.415166976389855
Fe 13.539701963473169 10.787625883758892 9.366977765168688
Fe 10.674076601426158 12.042449006668418 6.531131206495034
Fe 12.183018447345157 7.444899008148737 11.02327729295096
Fe 11.886195413724158 7.966877506738724 6.962109118806645
Fe 14.136135587231948 8.66907401113507 10.465649749807119
Fe 12.547440845545184 10.328097122286964 7.119603114866258
Fe 12.958927565568699 6.901259754393468 8.80761075461374
Fe 14.136563990923493 8.820560380110338 8.040034297931955
