47
Energy = -329.26681523 eV
Fe 6.9960286429735286 12.497414937576243 7.9156966542583795
Fe 8.649844719794048 11.402397003443387 6.177466961817222
Fe 8.51179643988774 8.882493732994527 6.718783490913125
Fe 11.144781605598181 12.108342443002762 6.27529729582473
Fe 10.989839803857945 9.815252813998594 5.461887419634108
Fe 6.240380899298655 9.879034340091145 7.38986340256789
Fe 11.154516058399157 7.991116567394314 7.218090984311401
Fe 8.952056180215086 13.814584064708496 6.3240819302421
Fe 8.812653549657783 6.702719532214335 7.359665424157161
Fe 10.905775398122245 14.214561768474436 7.693659877201792
Fe 8.13898610434871 10.538803076966895 8.430589253587767
Fe 12.043267925379627 11.891765272858727 8.529482267935027
Fe 7.394860803008051 8.264825359747913 9.10459839285362
Fe 6.731605688581416 5.760410330777178 8.618721608592354
Fe 10.317613937304813 10.247462070298475 7.512488879039956
Fe 8.871369011680924 4.481515443993555 8.321004688929284
Fe 6.4293045549724575 7.492863200806071 7.0261172374125085
Fe 10.952492041737584 6.0480180613039 8.56606544184553
Fe 12.761989310416574 10.051940532229095 7.15104194733688
Fe 9.543924574778897 12.486160054803785 8.045417364337336
Fe 7.838547194714317 4.264854632687676 10.44969055803363
Fe 8.466502763280292 14.318421826057254 8.824879509262725
Fe 5.202808491252365 7.924219499812801 9.249840517982394
Fe 10.082545175984698 11.068234218416537 9.80499594342729
Fe 6.694618505095549 6.4601268876657425 10.868716698141672
Fe 9.693547049005558 8.536548150245016 9.165809827571746
Fe 8.873896896252315 6.354308182337244 9.765077521642791
Fe 11.820537400306405 9.482376386831918 9.29818771459566
Fe 12.86576205330837 7.523852983232569 9.21164361796747
Fe 10.331085107524293 4.586531777496686 10.41842491077228
Fe 10.470049928733083 13.32957445956167 10.127390086690077
Fe 13.900049132599865 10.037365404010332 9.732239661156719
Fe 6.051892257091748 10.602585284800142 9.708038176329087
Fe 8.22371542292499 9.99380981604645 10.798790667010078
Fe 7.975051403768269 12.421122132120146 10.165298402877692
Fe 11.039152111802888 7.068406592209676 10.827506545672781
Fe 12.077712635030194 11.261185133951246 11.09955947965051
Fe 10.572204074294449 9.357032907100258 11.417023075165009
Fe 8.582490253948226 7.829268540730254 11.546341026611627
Fe 6.260210494037873 8.840135660898072 11.398910002552197
Fe 9.055842169421563 5.60551373631171 12.090693076718415
Fe 9.608973408230783 11.730433676293199 12.054095356398213
Fe 12.834248194646475 8.777757271760649 11.467106345924593
Fe 6.979485447702593 11.335061317637145 12.096010817416271
Fe 8.67805183841024 9.677421596663914 13.179161703107104
Fe 10.38296225445393 7.8228079971075974 13.12287463688468
Fe 11.017650997145598 10.34204323131003 13.394353508621275
