46
Energy = -322.08754231 eV
Fe 9.836998099053666 7.21765408014353 13.637450490254952
Fe 8.792795084208178 6.186477260431571 11.910926829109085
Fe 11.000711089667515 7.305599933901283 11.392025390042903
Fe 7.4430823092403005 7.923420321129015 12.965983502371166
Fe 11.4256185293701 8.984926666692417 13.142809809829236
Fe 9.81435757501863 6.26278821235353 9.495845687771512
Fe 9.170807694739045 9.48661800701539 14.33370542860412
Fe 7.967516699233835 7.6833785670370744 10.29893916086015
Fe 13.197984245584122 8.636214781950724 11.413796517548535
Fe 9.28782496281115 8.835346922807176 11.976281232542744
Fe 11.05220434171314 10.884498324104184 14.724501894629746
Fe 12.536236713961667 10.797873276526108 12.722615718610758
Fe 12.123730933266192 7.572912343786498 9.379137051622823
Fe 8.240021585288744 7.517374692830794 7.864654113715656
Fe 6.545225094733052 9.352120696760842 11.121976149135394
Fe 11.43045597323913 9.968341813766084 10.638114856914532
Fe 7.585864223163552 10.471886922931613 12.898022813101102
Fe 13.74162592838666 9.464510302314794 9.179923214190291
Fe 9.87569158246996 8.688071666527756 9.40071994736886
Fe 9.08650483017997 12.195728669703689 14.385983603032534
Fe 10.571942205075826 7.397463781680359 7.436505816910424
Fe 10.072560813112577 11.217934843985436 12.526673542008044
Fe 13.894452582201987 11.080791453837085 10.826890849131663
Fe 13.723238958665942 12.903512111425217 12.396821329536584
Fe 11.715000496314408 9.509386217655289 7.911291688398703
Fe 6.7986781523690425 11.64949695335372 10.377616726849686
Fe 11.701149850838876 12.92472141512887 13.659074060424727
Fe 7.604201430828421 9.660646581328928 8.764266247179979
Fe 8.790361340807356 10.660720405847643 10.633888018752197
Fe 12.465466082494277 11.655140440635062 8.97816392079623
Fe 9.370720818485774 9.619647278529369 7.109461450435527
Fe 14.934423215538027 11.726007220449253 8.672292971581005
Fe 7.813221783716076 12.695357263698568 12.381585890549047
Fe 14.072614916602873 13.440294256031402 10.102252305005777
Fe 9.917412746930014 13.84136485010275 12.557338496237522
Fe 13.566532349067225 10.667562344138815 6.963856606192871
Fe 11.568595140450531 12.572867565629554 10.974421333977583
Fe 12.331157914697231 14.672219872509281 11.75836921124887
Fe 8.240773590620956 12.03665305459401 8.259292237634483
Fe 10.123905122652497 11.071096463012625 8.779562634607336
Fe 11.441357148085384 11.733172564448704 6.770588938651839
Fe 9.074840509470139 12.96042847012536 10.375953003081078
Fe 13.367322786188138 13.146209827348908 7.481475071835053
Fe 12.348991583867964 14.561908981625862 9.18475376237491
Fe 10.355411694135631 14.910435832941843 10.440873938846252
Fe 10.565710013136664 13.312232773163222 8.45841147239401
