44
Energy = -307.80976445 eV
Fe 9.709821227569359 7.647668490131744 4.783984770491929
Fe 8.362682450737243 11.29673664096877 5.521041760522945
Fe 10.18385626750731 5.734823597738391 5.9939549623113475
Fe 7.857551822645821 6.091093780327971 4.950811816510721
Fe 7.586390513868763 8.921786089027405 4.7220865749360295
Fe 11.706204693048477 8.321400647599729 6.118301524033836
Fe 9.522956264939952 9.387108797200865 6.2677306669171085
Fe 5.667584477030779 10.807028221427498 5.65578725842771
Fe 9.027634630246093 11.328184523416873 7.78874841014905
Fe 12.330742049566672 6.269288698306749 7.268965419529421
Fe 7.965927275957284 7.505462101582267 6.687868614388852
Fe 5.591277433223018 8.262617478424264 6.136526610704577
Fe 6.655161514529532 12.140279040940605 7.411943230722242
Fe 11.12487372952452 10.982247209105585 6.498257841331526
Fe 6.225809898443554 5.3732179587614555 9.015419200423791
Fe 6.0351858926587125 6.007018668853775 6.70966261337019
Fe 8.223107725217579 5.18768472445855 7.326319012144109
Fe 7.196847290432838 9.797503713191636 6.88345197534827
Fe 12.749699328803688 8.402912992383802 8.242530745230782
Fe 4.916425462260555 10.131707002188936 7.896820586203802
Fe 10.418344396015316 5.142350310987627 8.585532940529243
Fe 10.224813401943226 7.324714280431419 7.743296575473118
Fe 6.173074372088005 8.034973956432303 8.511055070318262
Fe 10.88122691157457 9.674486838397593 8.318237245255117
Fe 8.668747830352354 8.936194287751505 8.494747673412522
Fe 8.359364560808995 4.037447358183816 9.377564107337966
Fe 7.062534070636449 10.458488544114832 9.131363697081438
Fe 10.935614712836252 11.824288501163396 9.097246687797135
Fe 5.4123501280343325 11.859733963180421 9.631268175522894
Fe 8.16720547907716 6.618231253064851 9.283703920538136
Fe 11.867918197008807 6.7905490444104775 9.713977742807767
Fe 8.082109528908083 12.509287667701251 9.675224432964919
Fe 7.319975764569965 5.038429959257042 11.196297953307711
Fe 9.792937205237523 5.566925558247562 10.856722664732139
Fe 5.2108935197433714 9.472731124924556 10.418554398471986
Fe 5.9256568510210625 7.010182235535645 10.848945522958898
Fe 9.37640228749629 10.501813469480457 10.261726960842157
Fe 7.602412320532123 8.6833876465314 10.548924491085417
Fe 9.968348564674331 7.965749429021903 10.32524653477465
Fe 11.743089104025351 9.50445817567801 10.435312989249052
Fe 7.152376503789085 10.914838320790812 11.511287267320553
Fe 8.253604458152425 7.024660884017431 12.029975035674523
Fe 6.393334123742009 8.836198176547082 12.525252840154332
Fe 9.068943750808481 9.375126629398677 12.299339469977678
