42
Energy = -294.71212776 eV
Fe 10.205774022578751 9.61943124890041 4.9842844162128275
Fe 8.015162979354724 10.435891231045407 5.548714047566657
Fe 6.731850381540428 6.2876650835813415 4.92076336695386
Fe 8.403332997999009 8.052895541339607 5.529625118179272
Fe 5.854038114614341 8.474138428859352 5.616872537208715
Fe 10.120663817879752 11.550030685170066 6.388588136336047
Fe 10.684037551099593 7.4352827900628675 6.107900958129233
Fe 11.995169456365037 9.316319266105086 6.507733075332152
Fe 8.821463207355015 5.5778459017264295 6.1281631202732
Fe 9.71381513965176 9.603435601694873 7.506665708496408
Fe 5.436932974754374 10.46683539365772 7.187333247665526
Fe 4.781133781933619 6.182684134075442 6.558038908821782
Fe 7.29200492917645 9.187476114911506 7.407925502507431
Fe 6.67584411113983 4.495669654596686 6.905217204754759
Fe 7.749891142589074 11.470901258660595 7.6434793710527575
Fe 6.961278072025454 6.835875616117647 7.09207149344837
Fe 9.115222880428117 7.3269553590116265 7.908145481415236
Fe 4.960745027611198 8.180074530639025 7.9507089675863565
Fe 10.67789778685822 5.5468126663523885 7.7156910712308076
Fe 11.400827655735993 7.946098392881144 8.639150137811034
Fe 11.816975191342285 10.899473784383947 8.215934541743014
Fe 5.618455193953963 5.7123077184388205 8.833026658914449
Fe 9.672132707574859 11.894719408696908 8.950922279905733
Fe 8.213096819684543 5.240501470067729 8.650845442241952
Fe 8.175510469583505 9.963063474654037 9.682496032869532
Fe 10.154136158486319 5.825263661681548 10.014398258632196
Fe 9.210166770112208 7.868525180346808 10.175795188606982
Fe 7.308746371766274 12.112242185812809 9.942650003512771
Fe 10.53783346801311 9.765717232932854 9.899113962403833
Fe 5.842244950089283 9.981923824238134 9.563071681012456
Fe 12.845070502315169 9.620616748315499 10.041769071799694
Fe 11.673572692105873 11.975293607697742 10.392271492696304
Fe 7.014029181227539 7.6505564114481475 9.275460680042096
Fe 4.981636387850041 7.727629265399316 10.342204589911237
Fe 11.315766800658762 7.824656624127852 11.230859202829027
Fe 7.425516835581886 5.9853684174501005 10.853254138470279
Fe 9.4438118441634 11.567420521165946 11.314317547845237
Fe 9.160139260598969 6.822602173307206 12.18876751701808
Fe 7.16276591921925 10.760927730189932 11.824360428961993
Fe 9.308449440298096 9.377238754964832 12.089378676774954
Fe 11.647263746093627 10.242382096086237 11.975374595674248
Fe 7.0995299232952185 8.413187473910021 11.520592801856614
