41
Energy = -285.32243621 eV
Fe 8.985493813858328 10.510884582773524 6.385378565012645
Fe 6.740131283398626 11.60089530476341 8.632761505932153
Fe 10.717102060431385 12.188732349895123 6.425957483137477
Fe 9.733039613291904 8.38826122517018 7.000050204352184
Fe 11.46064328309787 9.967294154295306 6.229813803326637
Fe 8.890897075223432 12.344768977088531 7.900627940994662
Fe 8.228545280172774 9.78875488842253 8.547016100852897
Fe 7.345831720823982 13.823145830161767 9.180721458291206
Fe 9.562967879564907 14.380792311441398 9.204689372481127
Fe 6.821846927632622 10.094032088200388 10.591976439436104
Fe 10.580254234445274 10.42158741957644 8.520977830925878
Fe 6.394564178004625 12.448818505319574 10.930997854041083
Fe 12.783961450284753 11.962936646750718 7.3468929875619535
Fe 9.788908157091125 7.930239991938916 9.304989012992591
Fe 7.8569098985316685 7.693972524582991 10.581182281531765
Fe 11.846363712853114 8.23158474885183 8.098459692425918
Fe 9.176480334093428 9.785455357604944 10.702908489576071
Fe 11.179394018330248 12.6897775051239 8.961713802799375
Fe 8.214392669288358 13.918954765588058 11.459800551887536
Fe 13.436248434476125 9.76011551344981 7.446701332265326
Fe 8.962299481678421 12.027544039242548 10.216945266183506
Fe 12.947406099279968 10.852086372639105 9.44217504519457
Fe 10.263594560762817 8.043179560560782 11.812166265076337
Fe 7.787851432710641 11.267986580214215 12.362511665182943
Fe 9.655332454146105 5.90720604087104 10.752495415542397
Fe 11.671524824276624 9.10222073666986 10.393032795659737
Fe 10.736197532507509 13.820769821269248 11.166383770732999
Fe 8.49949121900976 6.494200965918021 12.714643411070567
Fe 12.867065034242353 12.75481718444106 10.848145351182247
Fe 11.05988502797399 11.264136339495241 10.973325672872074
Fe 11.84535977015267 6.66985311060576 10.16085204208047
Fe 7.939072255026378 8.775941875091773 12.732114407060346
Fe 13.728830093185193 8.62785257661799 9.684437205468306
Fe 9.933808718132855 10.237838755680102 12.929264155867447
Fe 11.229253309361235 6.269474697179083 12.608024667768708
Fe 9.88379735754107 7.912346761185604 14.03604085426156
Fe 13.389793232861916 10.246250901336152 11.713435248656944
Fe 9.692929779401648 12.53799207747909 12.67121312869906
Fe 13.013854795701418 7.626934210920475 11.934402682457325
Fe 12.07429018063402 11.810319835296276 12.934434757825393
Fe 11.979204979083319 9.216494799746044 13.207216165354861
