41
Energy = -286.51273917 eV
Fe 7.5231869013459045 8.412745288893468 13.204026055708402
Fe 10.00940516416188 7.830751453563297 14.106816272063723
Fe 11.350466587778723 7.324807270230689 12.0293590938418
Fe 12.175895608323396 8.711473495066146 13.809424606849918
Fe 9.046993735426621 6.876280638890183 12.111704174952969
Fe 8.688063716353689 9.903719621692103 14.225989615891027
Fe 10.965709956625629 10.478882088016547 14.639458027597966
Fe 9.810518436014856 9.329773456021792 12.223194578702126
Fe 13.9864976478924 10.366899180987826 13.23601487004715
Fe 7.606319135548874 8.647050741614242 10.74965012923323
Fe 11.535405806619893 13.237743045317329 12.922309289134672
Fe 12.099665213633742 7.33650126741621 9.728166137306834
Fe 11.854545550399184 10.897656467667586 12.550038603787936
Fe 7.721810888403352 10.757020752211416 12.172880531142308
Fe 9.814344558651268 7.772032793240768 10.100460112687799
Fe 13.26408937596032 8.740101691780692 11.568441755332195
Fe 13.911387423542132 10.902069526418423 10.810389504270054
Fe 9.799282715394371 11.654454268078124 11.299814889695396
Fe 13.37741074407951 9.115439578774778 8.944700403442413
Fe 8.51451527350059 8.616156100446963 7.995015289017377
Fe 13.722366021172837 12.704492520869929 12.259943069709536
Fe 13.165284723552553 11.491919718229788 8.553220046999755
Fe 9.07760394271112 10.075444880045879 9.72846981866687
Fe 10.843981981072217 8.835684098051154 8.21552601839101
Fe 12.357682311005355 9.9396315608324 6.837382897013752
Fe 9.464510840534357 12.087940771924604 13.518886067111653
Fe 6.643484249179136 9.677745113899368 8.821482524919238
Fe 11.533255070023488 9.778590358305625 10.348859675261986
Fe 11.640687772272335 13.755367074772858 8.680563682186987
Fe 14.069597482858576 13.258846811652225 9.782298563592871
Fe 12.546694100451232 14.544091881797616 11.008409725289885
Fe 7.217548576852103 11.624557430857221 10.088462982989308
Fe 10.057259767166375 10.443353163358701 6.429486194472127
Fe 7.990879392944114 13.187442233663077 11.753928564252528
Fe 11.978043265725686 12.303423157191915 6.633752622724334
Fe 8.207566653534936 11.174248208257048 7.757562495789676
Fe 9.228920373746718 12.908021556433853 9.364066971512901
Fe 11.884632253064574 12.331797610059565 10.481754749964752
Fe 10.174244384997577 14.14818283704151 11.213567528762777
Fe 10.766961102536019 11.283399429146957 8.505554488533502
Fe 9.765128243928618 12.926107806265907 6.980814320135831
