43
Energy = -303.27343918 eV
Fe 5.589151681597926 5.599408421534194 7.465170125469795
Fe 8.094876537249093 9.012237941744466 5.9887713642478255
Fe 5.557351084045581 8.270285992169903 6.386585327620599
Fe 10.355471307738586 7.974419301068573 4.935867048130445
Fe 9.63712650037484 6.835508126628603 6.867049132975221
Fe 12.448004273588818 9.314197431027297 5.789092206571865
Fe 6.585978074357638 11.059626419125415 6.367750414669586
Fe 7.823007901047651 6.709418032229801 5.368847563581397
Fe 9.195794829481871 11.42944407654033 5.695477412219085
Fe 12.062205337266294 7.210095962165695 6.795398808115636
Fe 7.769716812900012 12.997553404804995 7.12483764853647
Fe 7.228623552094484 7.09999127564658 7.544651354245391
Fe 8.618977037080448 10.922135110152142 7.803919586687639
Fe 8.241603827756219 4.897223908803243 7.736931435024708
Fe 6.618417247323497 9.453439523769124 8.077687619737034
Fe 10.340897960788771 9.315373413810324 6.781887746469576
Fe 11.383603365982898 11.330498484777662 7.024996453666722
Fe 8.79954230174552 8.680682535213393 8.436902871526796
Fe 4.460316810596042 10.070300532708293 8.042006107782145
Fe 12.595124457221694 9.41860709794811 8.157234686599915
Fe 10.956111473001062 5.382433985476844 8.474289771353657
Fe 10.938045047343609 7.894554443986867 8.795116433292117
Fe 12.822995907953507 6.742535697181849 9.229407807341314
Fe 10.524086891557785 10.46119123476367 9.27035257537601
Fe 6.285198002241397 11.765453202159584 8.8462395064656
Fe 9.997025952555468 12.87831081881226 8.0817726670093
Fe 8.40054632286989 12.503928334051714 9.774251526520356
Fe 8.961506170640627 6.506856101144564 9.275671151084822
Fe 5.015571498014311 7.594282778467391 8.769428256694642
Fe 7.9420703350950745 10.243215364218582 10.023078675700633
Fe 9.200373238068547 4.505624327116859 10.214275080676861
Fe 6.668993131742822 5.554493439626818 9.602753028488921
Fe 11.810417389657754 8.60633937734562 10.84557488387671
Fe 7.1107149972717485 7.922598190699383 9.939128340338774
Fe 9.494700264049206 8.470005098329745 10.711460189850577
Fe 10.831407270751527 6.349649702948546 10.910878368612648
Fe 5.464680004458969 9.67410004437058 10.309574445872553
Fe 6.700943020265786 11.390418269004627 11.473605159658621
Fe 9.255864473806557 10.466565790515826 11.883265957287252
Fe 8.19257162867544 6.418296458818351 11.622379688956734
Fe 5.675378945686256 7.1084999365139225 11.404987309065998
Fe 7.40488005489015 8.938891105468473 12.130417090334689
Fe 9.715481552984107 7.796663780930352 12.796381646083569
