40
Energy = -278.44631165 eV
Fe 13.711204275112419 9.981733274969598 7.805309498564224
Fe 13.032632617705564 7.674887931058098 8.666604668088
Fe 13.760101264828068 12.035448867600158 9.412011028571142
Fe 13.619364045686808 9.639455038533018 10.167546496766773
Fe 13.597417531895841 7.259681504273992 10.93000430114923
Fe 11.704917134104923 6.059375914222938 9.806594146719027
Fe 12.416956400598867 11.890506200405886 7.485560546552229
Fe 12.876792395094336 9.173608142851842 12.222419785509128
Fe 11.530158938323112 9.575938105883276 8.108387975685561
Fe 13.340501037092599 11.50795014609737 11.774670608937555
Fe 10.52355329923924 7.576155586203388 8.272136197819098
Fe 11.420052981438035 8.421633982257305 10.380069268359918
Fe 11.656080889176225 10.921907164421832 9.991177890348826
Fe 13.16132101786914 13.860853864639875 10.83544754481994
Fe 11.890626947775791 10.956243163294522 13.841941717747972
Fe 11.540191535903798 6.832304882681744 12.150957121457575
Fe 9.456315086035207 6.870567834900973 10.381164362012864
Fe 11.483740145155217 13.185815450925944 9.298394168145926
Fe 9.619760905581906 9.672152563852404 14.211060876534388
Fe 10.805687232730683 10.34547229399018 11.984159429326487
Fe 11.480153952211557 8.489128963580793 13.972094066337164
Fe 11.413138694803546 12.791610072070576 11.946111266355603
Fe 10.197127366133191 11.507563857767106 8.21697234654168
Fe 9.66375237806352 11.945366053245909 13.379749104524993
Fe 9.402257119939575 9.673924056076595 9.817778293395909
Fe 9.05169244126234 9.601952061653371 7.347256670315911
Fe 9.673086036653213 8.308508447120039 12.218099705614556
Fe 8.259069144971766 7.594007085396653 8.444051026311644
Fe 9.080000404912546 13.699775691946119 8.707843834345246
Fe 9.321664608560855 12.183363737082898 10.601334028202292
Fe 10.635246795687777 14.743344342602844 10.721107735643281
Fe 8.459656837159082 10.25613664521281 12.152582628335853
Fe 7.829295700203493 11.584418901583632 8.377130990931745
Fe 7.5559532857035165 8.321566333784384 10.817997689590808
Fe 9.370667088838095 14.160762825318775 12.667048950230102
Fe 7.058827305926908 10.899657737015085 10.54623459475942
Fe 6.92246757498712 9.385790296187851 8.79107146942668
Fe 8.282485058491522 14.748829632064913 10.667563301462941
Fe 7.56045751781712 12.71403749848787 12.18101370630623
Fe 6.837611662851206 13.150550505263329 9.90332761477848
