44
Energy = -306.99773559 eV
Fe 8.896541131234804 12.083970528473737 12.420933150403021
Fe 10.871665903926 14.928100317868124 10.080433346854887
Fe 6.085037239272625 9.891771028079004 10.754357632835363
Fe 8.354869562391848 13.695367960100041 10.410623780890544
Fe 9.732647039360298 14.026159997425836 8.365193552824643
Fe 7.610009799919695 10.053888140394363 12.58361366703229
Fe 10.337409003334711 13.927810817467279 12.104336609661003
Fe 12.514314446489118 13.207284057639912 10.797950633209172
Fe 6.59344649829995 12.167285247465845 11.764465885666189
Fe 10.763977769336206 12.62979971624506 14.210403476102494
Fe 8.046899188923636 11.23975470730348 10.36691099348696
Fe 7.181235776981315 9.853128000112333 8.5783166252275
Fe 10.54763302465226 11.805458717004178 7.624706983092666
Fe 12.080452922224882 13.524089711110692 8.46312044317123
Fe 9.574278573656224 10.421510790967794 13.978940360030233
Fe 9.670279256320802 10.141501629063418 8.913900053606607
Fe 10.220603850183982 12.37639620837558 10.136520640245747
Fe 13.034431803405257 12.336825517158179 15.16584618471003
Fe 8.101513403801594 8.698833469793009 10.478826638624884
Fe 8.969566963146095 8.065187346661439 12.659725399691585
Fe 8.350428418880503 12.08267460380372 8.215751359304068
Fe 11.416690887735708 11.642745960815517 12.178462429306489
Fe 12.54461209989333 13.838593124007987 13.094566942792603
Fe 8.801772078320855 8.104903118846218 8.328864472326595
Fe 10.002770228951752 9.908979123504404 11.40919073909127
Fe 9.011051214376574 10.20312575502579 6.785788434346713
Fe 11.990072082447908 10.874388168760188 9.663598343860391
Fe 12.923550231207141 11.634551094877292 7.250965043252102
Fe 14.199826305284361 12.602229345119207 9.028468878960904
Fe 12.095169258218705 10.558049408219443 14.266202411057002
Fe 9.413593597469132 6.846320926864357 10.481737975383535
Fe 10.882236297844875 8.577603301065684 13.86586054609404
Fe 14.707785592353552 13.335260012166785 11.438530389090452
Fe 11.845307920041828 9.491423399319574 7.7965424803733026
Fe 13.773245353479572 11.806813222561539 12.895941768410406
Fe 11.312467771869292 7.487773788934165 11.884512314305574
Fe 14.11227977663712 11.008894902864201 10.683518953746034
Fe 13.219777270975541 8.483409196097549 13.923463458472005
Fe 10.942403743048997 8.43053381864872 9.783459632623934
Fe 14.209691969072429 10.090128138047634 8.453578906782559
Fe 12.532617173060782 9.48668979140077 11.92792947268747
Fe 13.251996702412539 8.540028295477759 9.942584819976513
Fe 14.876896059950253 9.603227964475776 12.40171351679875
Fe 14.495290580550714 10.385875401333323 14.537986424538143
