40
Energy = -278.02368912 eV
Fe 8.282985572362625 9.70532486744712 4.967938786456039
Fe 10.30265802873977 10.866613556098303 4.866648806719861
Fe 8.091454085587337 12.017058176320985 5.207021151882325
Fe 6.320180387740652 8.430138146580163 6.223231930929142
Fe 8.524220019535042 7.098050569886143 5.946014602748303
Fe 6.667887199942769 10.925746362784775 6.7239556720463725
Fe 10.44714076460387 8.8634460217283 6.170738741822971
Fe 9.561596389375286 11.254577686293993 6.968257534304034
Fe 10.8525881180805 6.458324955046549 6.442247066928517
Fe 10.247818292291871 11.989343655040896 9.208255658979384
Fe 8.220562986554146 9.11192077298456 7.197052077132012
Fe 7.847604395402216 12.788539196986358 7.582161634795665
Fe 7.110430272341574 6.954109286593594 8.128338950994648
Fe 11.851313058449744 10.57749183691404 7.5176067649086065
Fe 8.875164681031098 5.276869734946797 7.796169784933545
Fe 6.038187046998886 9.25137720624603 8.643489411240548
Fe 9.668269932816234 7.317900919815207 8.11618169422383
Fe 11.030808071708877 5.917919938006563 9.277726449090675
Fe 11.98746868739469 8.097736812169924 8.174023276721565
Fe 10.109577238138188 9.60378853424507 8.524732733267193
Fe 7.969169134148454 10.898184322247056 8.847359395620549
Fe 11.90942518251981 10.167823974661268 10.131912563072781
Fe 5.944067238842926 11.610473719943373 9.339363804105103
Fe 8.201208259435196 8.555498167385531 9.518527322617789
Fe 10.581572081635523 7.954609087637594 10.377247625136528
Fe 12.84551532542596 7.977316996278403 10.421684307782966
Fe 8.666403330677392 6.224791348747128 10.218702832965585
Fe 13.68556257260649 9.572948828351622 8.742450711701059
Fe 9.521020837973953 10.2282122044693 10.680759480637061
Fe 10.638855573101916 11.642894901690909 11.9761726127257
Fe 8.260608699439597 12.209935927141938 10.78198870596419
Fe 6.447859916105125 7.6027239569990765 10.74339300819375
Fe 6.939780780408632 10.10797444302176 11.050932611911854
Fe 10.130560618574393 6.691386306213157 12.345385943114994
Fe 10.959223278579854 9.22555778278394 12.42725900066175
Fe 8.598066893888898 8.357680488582616 11.781895750751952
Fe 7.67826600983061 6.422905636221203 12.549257529860562
Fe 8.634252741239429 10.551541123537094 12.934975381594526
Fe 6.764723625347182 8.688557305315822 13.090857604751776
Fe 9.174499549708475 8.391262121222185 13.946637955290822
