48
Energy = -337.76058896 eV
Fe 10.513547280825621 6.699115793155237 10.280014725300553
Fe 12.076766922425502 7.995099899251258 9.120975423052524
Fe 13.640090738987949 9.03835843223338 7.740838777957073
Fe 9.686772535112315 8.432525294376562 8.690926815593418
Fe 9.264015901490993 9.131629810738225 6.427437052475569
Fe 11.41199695184641 9.556624541994024 7.201002355449371
Fe 8.229564805286357 7.713191865799023 10.435996502012712
Fe 7.533929607109583 9.527014216675642 7.890266387475588
Fe 13.54124755663888 11.311651654205575 8.042401262119482
Fe 13.982078200553149 9.378482822912309 10.092962822111986
Fe 9.803122936966195 7.174225331332982 12.3291920278103
Fe 12.074012666803421 8.26285553971508 11.582451800924826
Fe 11.293654419963678 11.87603018974465 7.27122317155787
Fe 10.086415108827964 9.376347560297544 10.89155309205721
Fe 8.96478845921181 11.429397567146315 6.48922091637565
Fe 11.882386088345351 10.293125406301712 9.42500141078183
Fe 9.58079296047758 10.791964522184204 8.611270616790478
Fe 10.40317709170624 9.223068893993759 13.244673324220749
Fe 14.247360469385951 8.670510163538395 12.469568694623295
Fe 15.344230090412209 10.674215064960258 11.604848494188492
Fe 8.010841790968056 8.77326304804262 12.53933363553071
Fe 13.730386804426049 11.884762544492768 10.310997478588492
Fe 7.870402949607395 10.13729904709765 10.186236469017702
Fe 9.454861176260431 7.852092533116828 14.70442794705844
Fe 14.622775168309506 10.59403207774782 13.891532101186225
Fe 12.520283701263265 9.433422687393946 14.114182059311142
Fe 12.658607460485518 10.643667461046409 11.990506334961392
Fe 10.391182316751026 11.89149218820997 10.643366203141033
Fe 8.65846327067676 10.134519542238415 14.58253796648473
Fe 11.925755567793521 13.027335527609289 9.210988454742369
Fe 7.310504574408287 11.887106518807654 8.189464002138715
Fe 9.498540640927587 13.169790832810307 8.341496921087705
Fe 10.694677266245806 11.479655634961032 13.09301900724561
Fe 8.503936211406801 11.073998060282182 12.296617785025218
Fe 8.134535829301669 12.595116207791367 10.25967830729708
Fe 14.415464116334437 12.639935033506395 12.566337180732528
Fe 10.806048222797587 10.920950230125277 15.3437495736879
Fe 12.00754378234074 13.306867099311964 11.84272740279931
Fe 12.764080129091822 12.000522302040673 14.200348826664843
Fe 9.959731455692488 14.341608778003039 10.324283415030585
Fe 8.879969142285782 12.381912257169931 14.48791705815539
Fe 13.973320454456854 14.186012535665741 10.681123710953328
Fe 9.322938117823236 13.379847617851421 12.367596037427184
Fe 11.961736878143407 15.306120864997274 9.91986160332002
Fe 10.97386650925501 13.581941912986482 14.2822336865642
Fe 13.138382220855602 14.41550499900414 13.630170207733956
Fe 10.890825761765607 15.3381685607028 12.399033369592999
Fe 12.99796829691592 15.980747613116382 11.894616307943771
