48
Energy = -337.29819861 eV
Fe 10.566748473216373 5.92064126018767 10.992351100449659
Fe 13.132465678089376 7.766137445634942 9.942051895759963
Fe 11.271323934421165 6.9636535721714585 8.935451264748979
Fe 12.917647313111667 6.7767923684539 12.145130968130628
Fe 12.272519012732694 8.897475479040185 7.702648313412852
Fe 10.70464782334182 6.590577008257744 13.345803261212533
Fe 8.663365267161124 7.097570292553646 12.038024658486638
Fe 9.160654728664825 7.805926479040527 9.773757194681398
Fe 11.097649646745168 8.064578040987344 11.453333872732331
Fe 13.29147438945412 9.33343822110602 11.633868392776696
Fe 13.77451103794589 9.931719054671312 9.314347176939547
Fe 9.819025857530372 8.342950450980748 7.592109527523912
Fe 9.759405309200563 8.709037547099667 13.775055387793525
Fe 11.030389444970046 9.588777160702046 9.626402060710284
Fe 12.149571383206904 8.58585029474831 13.693436498226864
Fe 14.20555592318881 12.403560223166144 9.065885147029993
Fe 12.317599907763332 11.31524898924641 7.901392619739265
Fe 11.179693841762349 10.349024953049275 12.423792500939937
Fe 11.097669963940238 10.89721811390438 14.645974544442339
Fe 7.640033471389491 9.414770756364998 7.736037604444842
Fe 7.3810707136841005 8.996958916414759 12.874469057627369
Fe 7.076385420013753 8.845296136078565 10.347780629924776
Fe 9.140593898831487 9.446422077453821 11.548229626133134
Fe 10.124690178792846 10.557472195830998 7.167305977542694
Fe 12.28140275241754 11.407286858330112 10.475133542889145
Fe 13.171685716823783 11.208660240272613 13.214643689135093
Fe 9.729037689624512 11.69223898037919 11.205558377111025
Fe 10.400355938412146 12.143921922429076 9.066720026349689
Fe 8.878838255001643 10.962166119235498 13.462432034565813
Fe 8.75688314268809 10.37610896071821 9.400117307451156
Fe 10.78680861082855 12.965469784417198 6.940293258560333
Fe 7.396727047923915 11.21617743363535 11.500016706163855
Fe 14.560197956389402 11.59020639831931 11.252678364936184
Fe 6.5830211318852045 11.06688039949771 9.09500216505135
Fe 14.651532299189379 13.239743958740998 12.94260693105285
Fe 8.373830454786557 12.159888345089495 7.67208103134217
Fe 12.400002478473159 13.164899339590978 11.844306941965536
Fe 10.511492996387013 12.635185434195993 13.263684577481794
Fe 12.1861112234751 13.668756136170495 9.15106662212986
Fe 10.258036316740755 13.974375976849533 10.957640199073047
Fe 14.191514394356746 14.188282661192774 10.782863121749124
Fe 8.39851917249979 13.20235255007647 12.442501641082437
Fe 9.738237814358289 14.38271505601533 8.723262400552622
Fe 12.581910637575735 13.306786156124257 14.273661728668381
Fe 8.119091204636444 12.947695957658738 9.891500718515118
Fe 13.261341562398231 15.245374085179504 12.8620147939619
Fe 10.96003719703358 14.89129790672241 13.092083271294506
Fe 12.040783687570638 15.450504770012433 10.774273761885672
