49
Energy = -271.09959126 eV
Fe 15.470682826200305 11.713122826893558 14.468640050059738
Fe 19.606828621939464 14.173577937624312 14.480557115685464
Fe 13.377345712598839 17.89775819741614 21.250285572644
Fe 13.451011825730694 15.655802849300127 22.385175713742214
Fe 12.8773784329721 13.675462449065485 21.0442230791527
Fe 13.244248791237007 22.037851141473386 19.093598018771868
Fe 12.101625746041622 22.724654911342284 14.657507633281284
Fe 11.484997201875288 20.05133626844798 10.96072285033659
Fe 23.306951276680426 12.958432506631372 17.14057681812069
Fe 20.03079523599216 18.25660757796296 12.110077251780966
Fe 23.460682662662318 23.419941808441514 1.7758430366471651
Fe 21.89201542444533 16.38608548553055 22.660445261008963
Fe 21.254041461426525 13.139841900874726 15.69311357558522
Fe 22.862514294574723 14.979887163563456 20.98859450558846
Fe 14.495739823246266 0.4561388972202146 21.664248135814237
Fe 24.09473990328526 18.602545922610563 13.037398665595962
Fe 23.03849539052131 17.82150312633017 24.083999376141552
Fe 11.588581235815722 17.9433304776701 11.323415663441034
Fe 22.244168274098122 21.71474787160205 0.9564302560926535
Fe 21.80647691215569 19.44482950458302 25.17643590341386
Fe 13.790346640988318 22.12710195212503 21.463283863881077
Fe 13.88365076531027 24.0698380255674 20.334116476441285
Fe 21.6862911935474 15.072398508635084 14.574482158414758
Fe 11.905828088505622 19.158073801322228 13.205531683689218
Fe 19.670629950642564 2.4769830083938174 16.178802025594408
Fe 23.997529128270166 13.614350004081126 19.28469203449034
Fe 21.991116443716045 17.297615484381502 13.241016392547778
Fe 19.964676427093178 16.35839853700551 13.255250215152817
Fe 25.010222308874514 14.591268774748471 21.261236739106387
Fe 17.107473824675388 10.771189782020278 15.58477894409114
Fe 17.341111205117755 12.907049943435487 14.42713854939814
Fe 12.815369494357528 18.114000197560074 19.130559741268435
Fe 13.290664484107168 20.04449647142587 20.12907107995286
Fe 14.29343385678412 23.96824324745645 22.721180423825782
Fe 24.13977772891321 16.139002697594464 22.760729963765442
Fe 12.576038336377122 22.26433170376315 16.886958459116876
Fe 0.008786048024503963 12.420709583900615 17.676954174935876
Fe 12.883254501237806 15.806784218555244 20.228502577405855
Fe 13.410471282373845 13.572572533414185 23.151775617438492
Fe 20.73701870451245 18.025281194559792 23.89569260946191
Fe 0.7537239433000116 19.456973915098466 13.406975357873664
Fe 11.78079129940406 21.312328277406415 12.860705616133824
Fe 12.262185072203813 20.600564419069848 15.298721594087317
Fe 12.6993641583021 20.186166060652372 17.692560393788515
Fe 0.8251224674839372 13.282577787250661 19.59876790541616
Fe 22.041398423140873 19.26066959715278 12.056055858626875
Fe 21.382973494488912 23.714680511444826 1.6571070565250852
Fe 19.007796401900237 11.985809966324766 15.54873791922363
Fe 20.781657163884454 3.6358466252392807 17.2860230545386
