48
Energy = -335.32625594 eV
Fe 11.604533661480636 4.7566951247266145 10.660553705088153
Fe 11.785222352581915 8.946388737875278 10.867433043568939
Fe 6.34571766981203 11.511605385105497 11.67247510474274
Fe 11.479165199334687 12.295464455931599 14.936424301399047
Fe 7.94164950487639 10.771708741244758 10.065516782572445
Fe 12.200766430979767 15.185250208817417 9.84989721913861
Fe 11.672433823021494 9.886880653398276 7.358793093424709
Fe 10.492100362482667 14.824630890507645 11.425997585807544
Fe 12.121818408013212 6.688952634381372 12.159689422469896
Fe 10.708146555045726 8.063539624877416 8.768485253930743
Fe 10.206271511409248 6.822941988066546 10.640729891137868
Fe 15.038558725922703 11.859103246875623 14.399687805509554
Fe 8.677629999290389 14.403173103903788 13.025556117248067
Fe 10.608705192790948 12.923118241245678 9.9164429428116
Fe 10.365901457963254 14.592557459562865 8.375135709205173
Fe 12.572059850539254 8.73515487940188 13.2859528487832
Fe 13.172171105035448 13.065383796324111 13.5483639673293
Fe 8.71635728910813 12.58052669241141 8.570159669724546
Fe 13.977231710799558 8.105537040223437 11.331755108111071
Fe 10.14249076295365 8.39727113357635 12.700563345733636
Fe 8.350559681831317 10.390303693074156 12.639170776410193
Fe 13.119208811058522 10.783601267192656 14.48741247460261
Fe 12.725927256835911 13.371540360535622 8.407576940420808
Fe 14.65550651002469 12.517635691563243 9.496545595036288
Fe 8.64219077516099 12.595354832052104 11.478601844847466
Fe 9.297114232862075 12.257459614193301 14.043571253723421
Fe 9.128223474789403 8.874563522367646 10.633124801536535
Fe 7.023896904472831 12.53707898196718 13.602287191284963
Fe 12.392614413896485 6.855090344743246 9.733623332486726
Fe 10.946277789751884 12.193999476151465 7.481856671981283
Fe 6.619937493429529 14.083629703950917 11.826504284029257
Fe 10.012086381014862 10.451859047574777 8.918999541728077
Fe 10.281080953646994 10.801763166563372 11.297799301499284
Fe 10.746509438211605 5.46275658775668 8.750391059534188
Fe 12.660608556650624 10.937429256999321 12.159079170777623
Fe 12.668355998071128 15.039556065437496 12.423055380860275
Fe 8.469456075415852 14.567063375860771 10.145057665623334
Fe 14.802107283136774 12.09828540878589 12.0115817860876
Fe 14.786021630980931 9.851625550632482 12.867607036868387
Fe 13.670856255756625 11.109971510646485 7.774827248330089
Fe 12.885024368918526 13.144283210270753 10.966461655713362
Fe 13.237956850468805 8.886649422931104 8.866673663941988
Fe 14.315302920203838 10.327440930116627 10.423909524710652
Fe 11.002626735687402 12.769268719402644 12.529020961009282
Fe 11.000943201052632 14.468130908643758 14.104441478247377
Fe 10.818425493603264 10.42756319769093 13.615758332166724
Fe 12.210480922904766 11.127656371520805 9.623736268300549
Fe 6.686756187306789 12.971496232958163 9.780142270613087
