43
Energy = -300.81544977 eV
Fe 13.636980343125362 8.893564714134344 12.041483570561539
Fe 13.039822854846456 6.596165463431689 11.756014283526733
Fe 13.385898159321354 8.100208685628328 9.65081056823288
Fe 13.99131427375972 10.501416841988892 10.187162471850492
Fe 13.169828342065971 9.686694064665062 7.689816517256018
Fe 11.437464533271076 8.656853885838132 13.336830592435394
Fe 11.080015192800127 11.05655463744221 13.936442581200044
Fe 11.263274404654833 6.371954553261789 10.023103409207604
Fe 12.243486442564576 10.780983479060698 11.905795053441356
Fe 11.532117382716086 8.456811969722823 10.97203994472109
Fe 10.729775841454687 6.440955073414036 12.408779669780017
Fe 9.211390442228137 9.605042411185892 14.099944024400068
Fe 11.312429729446253 8.176990723649679 8.338986186389523
Fe 13.346462686678008 12.011310381434145 8.29187891680815
Fe 11.743886168170508 10.421938720547635 9.410676400304771
Fe 12.56804654432355 12.684963141425495 10.455561190081989
Fe 10.896827095235643 12.91309189472032 12.428038422213717
Fe 9.988101008963627 10.088156216304425 11.767211080148623
Fe 9.06989687093493 8.028048286890789 12.310188220042455
Fe 8.777620039533234 11.794656294744398 12.90905202055968
Fe 9.40945659048221 8.579057700448548 9.740141442119686
Fe 8.904920702156883 6.366650839632263 10.605381346269898
Fe 10.462188218329315 14.297626194059548 10.280426129172922
Fe 11.15032721526688 12.890198357277015 8.408096325009273
Fe 11.097851886677145 9.155623252018419 6.193877057562556
Fe 11.522895770946553 11.346710179041692 6.656632140684191
Fe 7.426792287736358 9.867390531974513 12.408389253091428
Fe 8.08103641758133 11.013515690909133 10.383716986797543
Fe 8.422251528936966 13.511798240533478 11.297630958219775
Fe 9.757787700726949 6.283985961870011 8.205683797681768
Fe 10.225916679475185 11.998093073095212 10.46203899083448
Fe 9.669533358474487 10.634810276547169 8.303489582173174
Fe 6.478387018770098 12.025162384034802 12.02832413505369
Fe 9.101553323582687 8.305794964191934 7.215647464172863
Fe 7.537227349538687 7.0514731879643335 8.694345377698522
Fe 7.086312522350803 8.313125989675129 10.691105296194698
Fe 9.415933986271318 12.579218032784146 6.663780771274227
Fe 7.4323643546909866 9.431158090313831 8.517433708976796
Fe 8.72234479411082 12.990381897530625 8.85833818714698
Fe 8.97826653958898 10.404643512122357 6.057715634307186
Fe 5.882471863823838 10.414888601673072 10.07720408027333
Fe 6.592554690812392 12.755905613781893 9.820105239763837
Fe 7.287479886204254 11.648012658848408 7.791194828226531
