41
Energy = -283.24393742 eV
Fe 10.898967716026759 14.984134292210381 11.226982991302313
Fe 8.642217486376941 13.441903607091625 11.354549989947873
Fe 12.400762641959973 14.887248467264607 13.186045738410364
Fe 10.504901000089507 13.401691627483077 12.96403530412274
Fe 12.048728395002838 12.51597692883977 14.469068361023838
Fe 9.350411074778796 14.713331760845522 9.438003417242648
Fe 7.580034480938072 11.17101294933157 11.137284780022918
Fe 9.587925368116595 10.611673044942401 9.722236763953136
Fe 9.867638025734067 11.29377678904827 12.059201819120723
Fe 13.220657393205553 14.748324889302706 10.648891731183014
Fe 10.010235815065887 11.23120629959535 14.23433232638616
Fe 8.44769279127353 9.601599265842282 13.017229176849394
Fe 13.849425504933242 13.803430868060587 14.650606803535355
Fe 8.254701833119219 12.444652549883413 9.150856772123253
Fe 10.578352610561275 12.743614689428748 10.340728952240557
Fe 14.630268010996279 14.228693010306843 12.482279375323404
Fe 12.526388366003214 12.772166406498487 11.854230596395173
Fe 7.234573431286239 10.359809695006192 8.722552325567023
Fe 10.667880958834694 8.893402223315716 13.734778096695909
Fe 11.595357420728332 14.730871983133767 8.822373785123649
Fe 8.046497855451667 8.968371195977845 10.70177182697578
Fe 10.384330705440776 12.760523591605818 8.01077003793111
Fe 11.915577762349384 10.641425959327956 10.537377131878166
Fe 12.665057495858196 12.734568686646758 9.321133607251783
Fe 8.94534833042587 7.388721370977603 12.511788404756055
Fe 14.315014460715775 11.918044914157058 13.313583114819233
Fe 14.705555659242062 12.664058370012594 10.713601955969862
Fe 10.445878805820712 8.954290178071718 11.45929337962624
Fe 12.100559540825056 10.697891643873868 13.006994503611567
Fe 11.271012356934113 6.6949333974921545 12.808538807707773
Fe 9.386747050054316 10.625298629121689 7.392296338073636
Fe 8.662159949462954 8.563052906637894 8.35118920243714
Fe 11.719362721154807 10.796439051766654 8.18385632058469
Fe 10.924398359197571 8.748099397004214 9.063902010328558
Fe 9.425049392215856 7.132609976561765 10.195380181119726
Fe 14.07119797177334 10.92386086855188 9.046723663809331
Fe 13.276711042968719 8.79951354178865 9.683854417370103
Fe 10.178648316734835 5.384493940162408 11.506264050731378
Fe 14.136735502724108 10.491513561525894 11.408514267184636
Fe 11.7531764183458 7.054978526194987 10.469512925736618
Fe 12.74468127209159 8.5854611782991 12.043479541101245
