44
Energy = -310.38136198 eV
Fe 11.149616893031459 12.047406969994253 6.9247714592244245
Fe 11.888814139390863 9.700365545127127 7.2148036766250785
Fe 12.954809670689928 11.61453297149503 8.48059033562477
Fe 11.194271262878301 15.066619554595523 10.608607715947706
Fe 9.522249297943633 10.26443856091316 6.640047492560963
Fe 9.04149506726757 12.500223307800834 7.897221362182349
Fe 13.030196045334067 9.374851438499482 9.501125385864766
Fe 13.060524786983457 13.342715824318564 10.357927419582555
Fe 11.024862191166585 12.96463311080827 9.234413673642402
Fe 14.350802634599606 11.231044193165182 10.507826441669335
Fe 10.526812898063124 8.149267814616728 6.010904478899584
Fe 10.512766316445914 10.539978818446851 8.950296469657774
Fe 9.083623742680532 14.17041619354801 10.179739400325472
Fe 12.572542453940027 14.59892661154659 12.427886878888298
Fe 11.983065234579772 7.5602983356131315 8.26800175400512
Fe 12.011161019088 11.167557260848398 10.752901531185694
Fe 7.912726364958958 10.42684010207608 8.314862938589414
Fe 8.913283333576029 11.835289623643906 10.270608721318025
Fe 10.794981309730476 12.881379394420561 11.744002272413748
Fe 8.206934990587143 8.096315980708512 6.724220621595488
Fe 10.244477542245026 6.205804402724556 7.185851805870296
Fe 13.332823859590672 12.290184075172755 12.557205089739162
Fe 9.88330548889561 14.732449141787608 12.717574513709755
Fe 8.232662390282202 6.236573208544018 8.356572586558979
Fe 11.5596589223228 13.480721333139709 14.113316212736214
Fe 10.885452385265705 8.532462408236562 10.640515681236675
Fe 10.602457528915386 6.1648841265475705 9.608841608240342
Fe 13.056286607665282 9.579489254594908 12.05858298919787
Fe 6.6183761834047266 10.718091494990114 10.399959876235965
Fe 8.077023719804876 13.068247280163071 12.102083631888817
Fe 10.171613683120276 10.441351612621439 11.989326568429451
Fe 9.66463679093057 8.328285397387452 8.466317982036923
Fe 12.79751957276943 7.345006702895287 10.921370818531875
Fe 11.675718776871923 11.064216237077039 13.618987649840752
Fe 8.68422601089813 9.465584530726892 10.42286644748539
Fe 7.053874154101276 8.325895616371753 8.96880142976586
Fe 9.468339809227128 12.31999019709212 13.792397769028634
Fe 11.341484533376326 8.52802824694952 13.22339944870301
Fe 10.729529402844788 6.566459254180882 11.997989657126693
Fe 6.746008074504608 8.55418503520338 11.388566787501842
Fe 7.819544067449014 10.601259539974478 12.523225563546418
Fe 8.675560467583706 7.0636052898602335 10.514268992726464
Fe 9.550478398241614 9.997848395712122 14.280003040892174
Fe 8.981737197304108 8.327465760151908 12.537071387081724
