41
Energy = -287.90641421 eV
Fe 8.675813882810935 9.575576995423436 6.368132740593749
Fe 7.97028512774784 11.892137634348417 6.6678083166806035
Fe 10.019904955348093 11.22289572640534 7.691641143844044
Fe 6.254417747549411 10.330422635609882 7.036865710463229
Fe 9.40893746048373 7.225560476055462 6.547893937184338
Fe 11.18655500112635 9.443565124942994 6.628811324981311
Fe 13.100941083744745 8.954934198824418 8.325701144340938
Fe 12.584242953154078 11.34570011999516 7.784835634407262
Fe 7.212432180115279 8.308173201289526 7.719423830927078
Fe 11.76730245741269 7.2786132337020595 7.166982970863914
Fe 6.2742454461975985 12.220175624892397 8.499800735842115
Fe 8.101057008173825 10.409053123028778 8.83422462910793
Fe 8.260864076903008 6.352163856082506 8.54041298404746
Fe 10.566707680098371 5.829428848928002 8.492949725670076
Fe 8.581876313555423 13.056970115445626 8.671997669829164
Fe 14.005745457854621 10.832811681347037 9.624424786130307
Fe 11.059942143361958 13.135563344206737 8.670313581320107
Fe 5.946754706738966 10.018315717076515 9.504749231957256
Fe 11.328213294559283 10.16640884874312 9.392993292485304
Fe 9.762419171010086 8.41756035857939 8.454125701807662
Fe 11.64616963109363 7.566210509687837 9.775409517825782
Fe 12.858231234559796 9.312254380378448 10.98984480468799
Fe 10.002179384388576 13.8376773536436 10.75826432449361
Fe 12.201113256758719 12.133641652033075 10.458065132730084
Fe 9.610216328523158 6.64535332517543 10.539032079485803
Fe 7.616055051086869 8.188117576653868 10.131045530812205
Fe 7.310061593799081 12.344590728901979 10.571458389858332
Fe 9.545845956836144 9.203120494274378 10.73174369878383
Fe 11.105919006794402 10.506664248672102 12.227122568141
Fe 13.061641364777662 9.122489800387847 13.342928309957214
Fe 9.702400040153579 11.629574562010363 10.412484709558257
Fe 10.99376511818474 8.049454659947642 12.33341723532209
Fe 7.587872766934791 10.145463835767822 11.424687550838243
Fe 13.600951302523173 11.2671088436312 12.193033168056717
Fe 11.351690257204828 12.821679817045604 12.61400296251077
Fe 8.58863076277999 7.684914009892106 12.361667210647884
Fe 8.917285980698113 12.098090809719102 12.549313012019997
Fe 9.074459513905493 9.745570038101105 13.303808586371296
Fe 11.035594616044579 9.304075893469564 14.513046998400974
Fe 10.175248208222426 11.607321272444723 14.464089938124845
Fe 12.493593130462754 11.318177976912708 14.22902783256754
