40
Energy = -276.80080554 eV
Fe 15.915035912284637 11.498799226005927 10.247267749103898
Fe 14.66108554808718 11.44077932129339 12.15484757731108
Fe 14.649478740393866 9.50720543934329 10.512350672223077
Fe 14.306142600710803 13.19698678269393 10.528066316163951
Fe 13.987146788524079 13.660441355891086 12.833201932241879
Fe 14.026087908584365 11.314164211390045 8.87105197848743
Fe 13.16211857348877 9.473017968677755 12.268620844887806
Fe 12.892150422614936 7.539365134474169 11.056845672835275
Fe 12.454773792390055 11.320348140537837 10.935614681470536
Fe 12.533951730675074 11.775578594630005 13.22226694223281
Fe 12.554140029577308 9.368926844802003 9.319565088818264
Fe 11.24458391708727 7.638005619921304 12.789058117062087
Fe 12.216182107109427 12.872481832585953 9.052248501904318
Fe 11.23923014856401 13.673934570650822 13.910320088163909
Fe 12.058474767455698 11.067183185610292 7.465343872441268
Fe 12.117670037912884 13.472921146288417 11.4974222499634
Fe 11.166316855621316 5.882375239569127 11.211832452158054
Fe 11.162261235845017 9.914851719655664 13.438349574925
Fe 10.922314303366843 9.422213290356275 11.054582064816138
Fe 10.860131634354815 7.526202458797167 9.638120072964885
Fe 9.290565183482364 9.280931745858448 14.617256715494221
Fe 9.248520414454804 7.310336884533569 11.643608772435195
Fe 10.435742697067312 11.116970664017053 9.34749563059315
Fe 10.251200722698758 11.983532487572113 12.196508943592185
Fe 10.006312984050314 11.69656567712539 14.5947148192653
Fe 10.024610940628934 12.904530784765743 7.746488070447921
Fe 10.479622771365547 9.135894420803503 7.988725685481339
Fe 10.043794761894318 13.325333189912271 10.20636751280222
Fe 9.876760208351202 10.930872887555223 6.541675562846599
Fe 10.081490961077893 14.666967595862085 12.197541961684209
Fe 7.1391714076912365 9.26862674633757 11.358326903985954
Fe 9.07741361310573 9.468261305677492 12.466453904821714
Fe 8.417184099053593 11.175644425279643 10.803171554562843
Fe 8.780934051352064 13.588963971167166 13.903096361905602
Fe 8.919863526435943 8.908834387333858 9.879797365293392
Fe 8.015060200648172 11.333977498895004 13.302141355905615
Fe 7.919635631289161 12.960935066647158 9.147209192171085
Fe 8.277805616950266 10.656021417367537 8.325344684347806
Fe 8.052396429792555 13.345708120909286 11.684489590489324
Fe 7.908708344667539 12.391583071091208 6.845934851949299
