40
Energy = -277.73358674 eV
Fe 12.707649837793358 10.70117826366564 14.144766657770157
Fe 14.577838149067858 10.053812441569644 10.622445855486987
Fe 14.069161972558112 11.646921463275815 12.410556779925251
Fe 13.27755574590069 14.032643563557597 12.004677442005478
Fe 13.319757845327597 12.985424277028855 14.348041959597557
Fe 13.766909291499152 12.422921669304575 10.220513509567574
Fe 13.053838150495837 10.602028398740943 8.825118203369973
Fe 12.858531514484126 8.302927529556733 10.300932073333714
Fe 13.55745732116678 9.17168031974185 12.554690397397723
Fe 11.217518562516545 8.882196679070947 8.578988772273965
Fe 11.130279216772674 14.963099424839879 11.504137309999445
Fe 10.84023121165449 12.111994203702816 14.687838249296803
Fe 12.073142840148083 10.459956992848596 10.965455067702251
Fe 11.704873329402034 12.374460415779868 12.448332708197729
Fe 11.514291518129497 13.05350864165191 10.135817193713164
Fe 12.22989506500906 12.67186883002792 7.893375345920873
Fe 11.450974205046226 14.358788035898675 13.758058298057085
Fe 11.926339743957229 10.394399313362486 6.743806676786392
Fe 11.513321730689793 7.903075338223271 12.380209884289568
Fe 10.825410882474564 10.068872189121661 13.033029756933594
Fe 9.721371361821166 11.602566004778891 11.05287267524246
Fe 8.914060114539957 11.303604759592048 13.454815124959842
Fe 10.50425278936377 11.130616142024563 8.801266204352544
Fe 10.872218244975343 6.812587324759568 10.11761060643474
Fe 9.456870989846191 13.544950088867896 12.908670812665633
Fe 10.352418409985502 12.113771813430724 6.452862889108424
Fe 10.109274682299779 9.021217008363422 10.766981829664664
Fe 8.971047519602758 8.61716669024059 13.01650191277849
Fe 9.06807170793323 14.065853335037405 10.65772576606727
Fe 9.722356119500368 13.349955295634784 8.469038031945749
Fe 9.64155535998824 9.637172612077086 6.911991573104837
Fe 9.561626260051051 6.595484284407392 12.03761532856702
Fe 7.4913271527887035 12.574302507308207 11.86109420618004
Fe 9.235259615338155 7.63536193269403 8.579325152152052
Fe 7.8510534049058345 12.122240300839467 9.567040076380053
Fe 8.286276465569149 11.526250316004727 7.337956922009781
Fe 8.731163737959196 5.679970729388291 9.803529002920794
Fe 8.542119273078347 9.793996564437938 9.113462450426432
Fe 7.869606945687271 10.157194112498708 11.485029883398921
Fe 8.10939654075666 7.805606105330607 10.706595142789322
