43
Energy = -302.02495909 eV
Fe 12.058519468181284 7.163418517336246 9.477934192641722
Fe 13.645273769344044 8.597097362367753 10.470810414589788
Fe 13.579449183487728 10.349292803368732 8.347711950688359
Fe 15.351383168855232 10.108779634261806 9.869940281727898
Fe 11.34656101062919 11.074498699726572 7.326928783458997
Fe 11.485232917189936 9.392756736355457 9.107236532276813
Fe 11.884634925246319 6.816967834814626 11.816498794403651
Fe 11.481069621874584 9.100984176080704 11.50310272790437
Fe 14.71174599072352 12.326312404787437 10.226734789264084
Fe 13.584483055913452 8.241250766499023 12.83860788545899
Fe 13.001693969225162 12.693277554841776 8.49846872058968
Fe 9.85704723633167 7.724757460845687 9.983041385176557
Fe 12.850167506611564 10.952076238721807 10.570432280429708
Fe 9.270400998922502 9.696656398676305 8.334234374907794
Fe 14.107157271419545 14.626798147030991 11.022657500382026
Fe 10.477036099996928 11.736629135613548 9.50484071086449
Fe 10.849395030125045 13.524198635065304 7.961345908417689
Fe 14.774169117173248 10.335760289355829 12.105591133710837
Fe 9.6161693957052 7.721193419667296 12.400751217039113
Fe 9.265164640698172 9.890110155059812 10.841391315835965
Fe 11.415662360435102 8.290994115259242 13.971334820144149
Fe 12.628944428106665 15.117760094109254 9.13736860542172
Fe 9.113441584639036 11.777866068300508 7.2767335576018715
Fe 9.99843628823768 10.154744267531788 13.188890026866021
Fe 13.576492965907205 12.43219522041062 12.381546442709396
Fe 7.758703649365738 9.107456368470302 12.715270078268794
Fe 9.126789244063934 8.511120675066408 14.71649783879371
Fe 12.11605611050942 13.381628979449594 10.577541128066663
Fe 12.012859673411137 15.915024936601895 11.287565346697118
Fe 12.562025511372028 10.36469226816961 13.311000140310322
Fe 10.93287692712619 11.771127179376393 11.896942556640907
Fe 8.598144985011995 13.459980491420286 8.743546754926824
Fe 7.932505080424391 11.354182812026057 9.563155339340561
Fe 8.175710630644693 10.732647062120922 14.66792226553736
Fe 10.187383607412613 14.734595100535433 10.070077804548298
Fe 12.869051116005098 14.59308775065034 13.123405230661154
Fe 9.063052749466399 13.13710618861215 11.091333089064722
Fe 11.767291554572571 12.438538627449784 14.15999831492306
Fe 7.928106812660533 11.399087399814057 12.268616364777797
Fe 10.609605534787187 10.514178731424316 15.327739983046495
Fe 10.659392877006457 14.22546975641378 12.423084157953442
Fe 9.423154672891444 12.614305046657531 13.79533124246128
Fe 10.859308205577623 14.55280907102106 14.614173320655953
