49
Energy = -347.27842771 eV
Fe 13.88173913648264 9.131354577384618 13.424270890293988
Fe 12.109023644020962 8.162281818588204 14.61808932065473
Fe 12.249687886233463 10.464773136960233 15.041195662377548
Fe 12.215189002697745 12.891247881142311 14.812335813206714
Fe 10.135149128647516 11.977805300517808 15.538339298943225
Fe 14.598323131891725 10.648126087990798 11.295682682547715
Fe 12.33891001776288 6.980450370184045 12.385183749786458
Fe 10.001838633835654 9.665038847811026 14.766069693309854
Fe 13.949763445192147 13.060509935746975 11.16340390200947
Fe 13.10664614667068 8.76768082238811 11.217570588876374
Fe 13.350583861219196 11.46085723503818 13.150655390467863
Fe 10.233938472628664 7.474697941346617 13.222874633675
Fe 11.474024875679268 9.360947487654379 12.704956657926036
Fe 10.00678782408053 13.808393028475294 13.895757157113719
Fe 10.807208798582469 11.444779248089441 13.233487445189535
Fe 12.603871800248141 15.224522397912452 11.140994087211785
Fe 13.42834407157758 11.780558091803886 9.102479906507758
Fe 14.203285634763686 9.549613949610295 9.164507646331819
Fe 11.946896413311975 13.410983337030679 12.50279547047899
Fe 8.43609341300697 11.712825914763199 13.848004773220243
Fe 13.562309184842375 14.229780877816234 9.098262763737333
Fe 12.435575839004068 7.033752372615638 9.846604116245334
Fe 12.250002247785668 10.993342896681233 10.99776523639936
Fe 8.98710939172226 9.651795940295385 12.592685059629614
Fe 10.407623122985417 6.135067062932489 10.84656481143021
Fe 9.54979990530781 12.743139045196427 11.624918425657937
Fe 11.60459549794531 13.129374680107592 10.14425872098678
Fe 11.89400106289245 9.34404309982058 9.038741419092313
Fe 7.893814022717143 13.89741850049869 12.92350526675599
Fe 10.394558643454664 8.384077162631309 10.802876369573822
Fe 12.895592449825594 10.642271553468998 7.162023007763137
Fe 8.291834207649707 7.49114175805689 11.792515354332835
Fe 10.131643344452904 14.984206582566282 11.369550583503464
Fe 7.444044032376918 11.556630142087977 11.614192556971632
Fe 11.300502810024678 15.362680379848891 9.174596030423778
Fe 10.651691240233385 7.18364183725476 8.42538146832207
Fe 11.78755489345553 13.333151133732617 7.623305917179242
Fe 9.975258814230683 10.690712914433762 10.669089431278373
Fe 10.75686487166246 11.4078393389443 8.483170044853805
Fe 8.60994236656037 7.101591721230992 9.496860083393129
Fe 7.830710913404521 9.40681045241273 10.435742633622242
Fe 9.59240960599334 13.677955123275218 9.150980710626818
Fe 7.733242285138221 13.81559596290247 10.574049801318939
Fe 10.864994682912428 9.345210343263501 6.839477703547764
Fe 9.366787828525952 9.273713816550536 8.673065061468282
Fe 11.033579497988669 11.609196168940363 6.024720259370828
Fe 9.306034942865645 12.96001422609781 6.974198402410894
Fe 8.29464515820751 11.644918979132713 9.150073363440528
Fe 8.78814583615584 10.720671717917241 6.91364570267273
