45
Energy = -315.92945633 eV
Fe 11.367143539993627 13.724052226302698 9.578878800362608
Fe 13.436362045447826 14.83077765067735 10.140835305925606
Fe 13.605431138810717 12.562194816876325 9.447284132672651
Fe 9.472798703155917 15.218190758261322 10.389615079956753
Fe 11.336254766994244 15.247460578569303 11.723678811486755
Fe 9.15556162256988 13.64313228194654 8.653884701787955
Fe 11.388512551355628 11.68150254732551 8.066410830036467
Fe 9.101053629950222 12.033710238752917 6.95664022533261
Fe 15.012021291109823 13.282217856724264 11.27220462952189
Fe 13.55525514497743 10.096530949842585 9.408712466370611
Fe 9.128338737050116 14.759230895650775 12.76705398499804
Fe 11.695447039413395 11.294955378213073 10.517953072839594
Fe 11.420567600846372 9.289698197198293 8.876264460178184
Fe 12.584307301474396 13.320475758777674 11.753944238963234
Fe 10.10804096370237 12.884460164773053 11.491901819919818
Fe 7.8830527358822 13.469989882065228 10.93634541390033
Fe 9.314930923691765 9.903439263415232 7.822214825552448
Fe 9.521637599042984 11.478244099034525 9.610978261685391
Fe 7.346885785010339 11.948169162783657 8.826066081108914
Fe 11.036701526757819 13.6674476665181 13.712140646497666
Fe 7.167895341174179 10.38607029295293 7.134870213515138
Fe 15.603958007079354 11.14684257087949 10.20099965581409
Fe 9.114693109992842 7.722973711776457 8.654989378349928
Fe 15.492440749121503 8.63551756658772 9.537848487848304
Fe 13.842572886757926 11.179855056985344 11.669393205437455
Fe 13.819531452084943 12.660234227024539 13.574008347462254
Fe 7.416467938466494 9.543155007777944 9.389949782936156
Fe 13.230152687749907 7.771052577283467 10.003542527880724
Fe 7.856064895414333 11.087905259576063 11.35671663604111
Fe 9.58221085827903 9.14957672228709 10.377778933594799
Fe 9.868505220545215 10.326697214255024 12.404335461979878
Fe 11.765144623802016 11.437013806036589 13.153805910691156
Fe 12.130985107029106 9.18007275174995 11.606516754570395
Fe 8.80917512177339 12.396172858577529 13.380117685588894
Fe 10.977401421558632 7.225009444865355 10.127003344255026
Fe 10.02823776349639 10.845934539907093 14.799882419653606
Fe 14.713829575929658 8.978732949085005 11.492925503156886
Fe 13.748085191653365 10.117045040545742 13.750899706987587
Fe 12.289272711475244 6.857782146112929 12.116824994631765
Fe 11.587963378500872 8.982738113926251 14.005830640608115
Fe 7.607690387243838 10.365747041770925 13.740116067029463
Fe 7.838348787537955 8.772531774748842 12.019205347357504
Fe 9.107978656784171 8.715565797926354 14.317257088613527
Fe 10.114815367083027 7.832472190656235 12.359056910693523
Fe 13.772212726828089 7.884869966313281 13.43871921851729
