40
Energy = -277.43413389 eV
Fe 10.662321144815513 15.86793887089463 9.704818841432983
Fe 8.300692627054305 14.796027222986982 10.013158297097865
Fe 9.930802121313421 15.347601303079 11.934190747928215
Fe 9.898938457378064 14.229266898467044 8.174704338326778
Fe 6.626484139257428 13.179796162503232 10.500662182787575
Fe 8.500520171921757 12.198411562480468 9.433275002407466
Fe 12.296411155936818 14.164582177011585 9.064469681441725
Fe 8.437251463814476 13.207186761580628 12.010062208804253
Fe 12.206737384500288 14.799444786895664 11.451567008456587
Fe 10.267493997999267 13.585847447873284 10.421211242732056
Fe 10.738908852501833 13.112921891173562 12.727117076612474
Fe 7.5217620520835355 11.148525021966957 11.467392221216924
Fe 10.991997216755925 12.122724301465711 8.690697915204192
Fe 9.964879449690653 11.284681321978004 11.149979719518154
Fe 11.82595302797288 10.867219454211954 12.631200299571672
Fe 13.31144523248964 11.775148052357522 8.522167046405714
Fe 12.91666874560635 13.240239128144555 13.304504477275085
Fe 9.748149038069208 10.297098163577727 8.149112097654292
Fe 9.30640003776011 11.304506770551894 13.574924253383978
Fe 12.526909586142285 12.416521095366859 10.841716878161796
Fe 11.789834236305026 10.19798931040764 10.046399308084899
Fe 12.10072969013416 10.006055806329769 7.531426932966779
Fe 14.131601393752112 11.451666280204599 12.414257414214676
Fe 11.533812359910938 11.787968173019042 14.707857882216695
Fe 8.969795801632994 9.453728199660722 10.159038856067047
Fe 14.769613887312058 10.259235794475021 7.5411003443697915
Fe 14.569001786177894 10.912469139721887 10.216091494714414
Fe 14.091808611064279 11.772298706052624 14.802590108974547
Fe 10.849501009924074 8.797105608609018 11.751338979008477
Fe 8.624825256893 9.232909682915574 12.575184007557
Fe 10.910828989493728 8.271219486874267 9.042605520576021
Fe 13.42201392964028 9.296185637292732 11.744818226817767
Fe 13.51255459069554 9.028460834111936 9.093359349376954
Fe 13.217981797681398 9.882662284128482 14.228164579041348
Fe 10.705600488627404 9.388589168400209 14.265561121063548
Fe 9.525068251549007 7.147413529524677 10.90550839397152
Fe 12.404210801784536 7.394120419336145 10.662347464958877
Fe 12.305417691658928 7.781377469264881 13.354198635519207
Fe 9.756072774835227 7.372627673175738 13.47205400217318
Fe 11.20036833856108 6.100333219891586 12.160008680716405
