46
Energy = -324.0383112 eV
Fe 14.22484962017565 8.261163565908802 13.149886392538278
Fe 12.01809935142885 7.3597503915282765 14.164822635841453
Fe 13.096868092887421 6.239029770326785 12.303792325538923
Fe 14.177289815444423 7.977393021187486 10.818472129099014
Fe 12.519419477567757 9.901786721392764 13.959935641582513
Fe 10.581944203468193 6.568369588452658 12.292382480320109
Fe 13.771579092783947 10.287556476428373 11.661040909100734
Fe 10.253504498068661 8.862490883722483 13.542617534507759
Fe 12.158684412269459 8.482942787473473 12.086336972987068
Fe 11.987025600158445 6.797458171593802 10.24946523205716
Fe 12.364834647943196 9.187670784473546 9.882058723207393
Fe 12.25320527228885 11.610109736516641 10.209299981246778
Fe 14.33734039872159 10.438282844798815 9.502917922943446
Fe 12.876697146440948 12.116276207326683 12.870833167729645
Fe 8.415759013772975 7.826088755081495 12.437877799301361
Fe 9.516128620035362 6.5522688706072625 9.862739543251548
Fe 10.587455809929256 11.365308930624005 14.0871579854649
Fe 10.823342642969305 8.03093974474266 8.421656930151729
Fe 8.336976113565676 10.245592783795196 13.379600678238395
Fe 12.35618501156587 10.402346329389 7.888580760157116
Fe 10.092395857118753 8.505814176431361 10.794553200847641
Fe 14.223603361808802 12.685144514583259 10.834033256747032
Fe 11.017921289894888 13.193630552035925 12.381562804572392
Fe 10.940467457111835 10.600536372131256 11.9056312367988
Fe 8.570813345092136 10.380887427768567 10.97214599988127
Fe 6.513203064713919 9.323431665970158 12.05626499865415
Fe 13.306603209363445 14.496833353150476 12.016862485033178
Fe 10.417545370552437 10.383437562414532 9.17878990857496
Fe 8.89105573995017 12.339767319326011 12.478598508833718
Fe 9.979430780691203 12.342288411055879 10.375110507776384
Fe 8.611302465898802 9.019650875617753 8.61607795821919
Fe 7.511579640387029 8.001458388674935 10.27812371760093
Fe 6.591849158001232 11.60294825130426 12.002065279613898
Fe 14.065631865769907 14.688976161417319 9.44804876642877
Fe 13.360365266284585 12.658984373218379 8.440969516454931
Fe 11.765444210755332 13.952218414400797 10.207848587852329
Fe 7.570793269451381 12.783093769291396 10.275754549449678
Fe 6.649543087533656 10.362215193879573 9.73910074771226
Fe 11.207137384490402 15.553125316323467 12.060093744629798
Fe 8.50459367643928 11.578130926527553 8.496847814675805
Fe 12.689813049186418 16.252710898717474 10.338155689341251
Fe 11.038265608729986 12.581233907709288 8.129995430839488
Fe 9.268849512180276 14.492085141157416 11.157357059624621
Fe 12.008692849299296 14.943984593540817 8.119200451676127
Fe 9.448663645265723 14.112368948171463 8.810879719706191
Fe 10.477738288362515 16.06623244450182 9.62226765228971
