46
Energy = -317.45645531 eV
Fe 8.060880576312968 6.4708122942732125 10.473917421323575
Fe 10.610523416911029 10.627572780281458 9.902029433033352
Fe 12.825535600331989 11.543997048263803 9.460977749680204
Fe 11.133902333868075 5.311477607514605 8.343921484752157
Fe 8.323914397478692 10.309356084454842 10.138036151631573
Fe 13.332283060708328 11.374029825626007 7.0299184915620705
Fe 9.68223496027629 9.88900313605248 12.2258897212734
Fe 6.652999174871332 11.966456418867207 9.699695863927236
Fe 9.777992755230963 9.205533021492426 8.196226916157665
Fe 5.713171948990011 7.158840064985977 10.138954340101922
Fe 8.705860929024839 4.5209135349541105 9.201944452605694
Fe 5.798495653615323 8.533770838943948 7.590236798681793
Fe 10.91808783360967 13.111478936977818 9.604329671773515
Fe 6.966447056150222 6.032469001490179 8.217385182444504
Fe 10.216538587101162 13.693458654548627 7.227842256944265
Fe 11.538960334435641 9.941541407221502 5.980526896182626
Fe 10.926750597676461 11.387760808255338 7.677238388037066
Fe 9.108213940277777 12.305099316452223 11.148211663000847
Fe 6.434139916814319 4.777662794413694 10.253165141558732
Fe 7.572335180252876 10.316368327105247 7.876378816658929
Fe 10.900184165637146 7.667236980466033 6.916391703198669
Fe 11.676206174611574 7.5206877773143885 9.373652561522848
Fe 8.862942765594504 12.21802843775332 8.612046498840531
Fe 12.49935157614229 13.417344348813781 7.839802787397869
Fe 8.963412692311492 11.80001306545273 6.2040951121530785
Fe 12.360364903691247 9.46976027926016 8.266323241958297
Fe 10.40951357971318 5.774512673237255 10.623526227399534
Fe 7.602783093805757 8.289858555015073 9.117128452357097
Fe 11.309737883830092 7.458557778186336 12.09199985794506
Fe 10.514874764557955 5.2431080645484265 12.867756870990526
Fe 7.235817137547356 10.914786719981041 12.044883459670825
Fe 5.867836916929175 9.762031450791854 9.979001843745207
Fe 11.456556842132311 12.402631256068151 5.679098001009648
Fe 6.820311387815639 12.409027357656866 7.24877187109913
Fe 6.568231497963713 6.23941975384472 12.283007568551374
Fe 11.364414063771095 11.776999436301985 11.744184882589655
Fe 6.638778752735274 10.113372765917372 5.878911658361407
Fe 9.197843374483607 9.674701867129098 5.953137666335059
Fe 8.073296645287869 7.843595151831192 6.803762216789102
Fe 8.984035284474569 7.00902824884742 12.663598798922797
Fe 5.17449702363164 10.847713273523873 7.873128874352835
Fe 9.680297312386825 8.277462360166199 10.54744782434906
Fe 8.474772769138829 4.60237311377286 11.808346739403524
Fe 9.415289173071645 6.7186712731701315 8.49309430210754
Fe 12.190381314344156 9.402206326647557 10.942205296737395
Fe 7.3367160018349535 8.546985133508388 11.635584192260971
