42
Energy = -292.87894072 eV
Fe 10.47206231754458 13.776071878571013 7.346586667941269
Fe 13.363666345188744 7.356639396776036 12.025286525854403
Fe 10.35803321160293 9.91320599168712 11.839615310836864
Fe 14.887336744582008 8.802029507692792 10.692117084129585
Fe 11.496403640348838 11.069200637012685 9.992601862315459
Fe 7.453275882846954 11.852983817278163 9.063113627524084
Fe 7.893553983467497 10.95897970469421 6.721209420451842
Fe 13.1360744161918 12.76052201835636 10.465174018137748
Fe 11.208801525843404 13.699889879398091 12.02044583346775
Fe 6.8809872241255565 8.494845015275935 10.661795680938445
Fe 13.584451374417892 11.430635287251073 14.126769715358217
Fe 8.767169743624281 13.87113894865012 9.471486184344377
Fe 12.267682132064731 12.2322644532811 7.954037035222299
Fe 9.589865878508087 12.143336876897234 11.003610828773772
Fe 9.675709490054054 9.435935292434996 13.938683011441004
Fe 9.26714490055992 9.43734414519545 7.767586501534426
Fe 8.200170350577519 13.209927661134664 7.216415221915892
Fe 11.988209743092526 11.45018908350889 12.318843075603839
Fe 9.772029251628439 11.675886874377152 8.530585584685802
Fe 12.213848935339659 9.392721499718581 13.518976278844361
Fe 7.44830892114871 12.63433884290815 11.469305078128034
Fe 11.04709531177676 7.497025002960757 12.928898789734507
Fe 13.032958654992244 8.083808493842893 9.3635230232335
Fe 13.618207770827771 13.317718808136108 12.686293025947334
Fe 11.346612926433911 6.962518590427133 10.76519877453986
Fe 14.466853035268779 9.294315323471164 13.147902515923334
Fe 8.650424545390985 7.607291269348731 9.397545512136581
Fe 9.047462690490653 8.027186294927281 11.706391359976987
Fe 8.729913450540417 10.0566611561979 10.096703713820418
Fe 13.625191675048711 10.525131493119448 9.29484835477964
Fe 8.009853999821843 10.307815715799755 12.297344915606553
Fe 11.106048902660092 13.621281823780896 9.638912256454399
Fe 9.663790251072717 11.842884021170141 13.35153847270451
Fe 6.224748707770613 10.773194162066648 10.691732004641112
Fe 12.588835076696213 9.34722032220241 11.21407295821665
Fe 11.634588154017402 13.033903688557366 14.217441297130714
Fe 10.692387867174444 8.885850974768955 9.631517611253665
Fe 11.320296655971342 10.854381332130579 14.96824931598794
Fe 11.623685057718395 10.053278897369273 7.722792347628634
Fe 14.31506409078669 11.020506863646679 11.697553761788487
Fe 6.960200549266361 9.508774345645381 8.553088055437687
Fe 10.236906846635689 11.600791290873632 6.3383404951668885
