41
Energy = -285.77113662 eV
Fe 8.187286925176739 8.071614900968958 10.799601153372487
Fe 9.834588712043098 7.705818671875337 12.456141665922274
Fe 10.364935557497509 7.698423681443555 9.844735056553045
Fe 7.463328462034672 10.405104524730227 10.956495634136113
Fe 9.01060562674726 9.639279254696552 8.940179178933704
Fe 12.317235306825713 8.02293887665318 13.725457433191478
Fe 8.306498967630867 9.604870459235697 13.054727595322873
Fe 11.86084123611096 8.720835267141759 11.462051869426176
Fe 12.7238756646206 8.056039729890692 9.22802926293349
Fe 10.749162058080207 9.84592245017235 13.471334250747574
Fe 10.81796083770068 8.822670190005596 7.621990204342112
Fe 8.916706828691863 10.526500567608844 6.8585012741165565
Fe 7.289871970656983 11.296925754557693 8.649974762345126
Fe 9.766944886565978 9.823620877881464 11.234580837004982
Fe 5.794435859572389 11.97918236686763 10.039732056874964
Fe 12.708691291716264 9.992311057738526 15.134456508872093
Fe 13.147864900032337 10.346210086092931 12.840886305839046
Fe 7.456564240811283 12.681431707129022 11.697010591609587
Fe 14.116294244822805 8.075191147573033 11.855635085356901
Fe 11.351208943703247 10.178978027194503 9.565605712218016
Fe 14.551551936631318 8.80768045216837 14.144039722940539
Fe 9.347133155056545 11.867280352468551 10.034303015956738
Fe 9.483257341683359 11.868324338409863 12.627961649778818
Fe 7.55460790640332 13.588260275790992 9.439005646890225
Fe 13.021769341477734 9.949725841504995 7.856994014512749
Fe 15.499414549594652 9.941313012669513 12.287132588912309
Fe 13.729968388023776 9.972962621585383 10.368521037382571
Fe 10.917068720276896 11.417441454561581 7.68687546504656
Fe 11.647653529791292 11.586384489511348 11.480557518269636
Fe 11.58720738851188 11.954516592539703 14.208204838100293
Fe 9.011760819874866 12.877624571810886 7.766363076101539
Fe 9.352868057135808 13.973301354134755 11.071042840361146
Fe 14.746018261852653 11.359350802827505 14.277381449960686
Fe 14.445567798583609 11.953676278293209 11.405469683291654
Fe 13.076389764424373 11.980902099219483 9.216554836736904
Fe 11.002817421783764 13.313910738107403 9.32681829701531
Fe 11.09294822572898 13.76113448613327 12.63123489796558
Fe 9.306117124118096 14.925650365713874 8.844378885350391
Fe 13.344606827555946 12.99980626353511 13.170323627411495
Fe 12.780992223822517 13.678790803298012 10.9515632184895
Fe 11.091735108451 15.307221533610008 10.552675155850492
