46
Energy = -323.31225334 eV
Fe 5.3390936478629225 12.140109150749094 6.946346635967479
Fe 6.38641834202545 7.172366177750804 11.46509877207888
Fe 9.55337660425003 4.389734777559443 8.95297579168425
Fe 9.368592064787524 8.41685497613777 4.7540890886321305
Fe 7.727523189303692 11.593363719754768 10.795418206737287
Fe 8.533852449411592 6.853862006767147 12.523239018898824
Fe 10.91338541795116 7.7109535489701315 6.823072248779476
Fe 4.929951034776905 8.397504466658221 4.879337259750532
Fe 11.035961677159085 6.117426650423484 12.636195376467251
Fe 5.780557543042547 10.86687412377693 8.937219959645281
Fe 8.528884634459649 10.282179463334039 9.080223303065564
Fe 11.605760289207184 4.5508474013497935 10.609586959129661
Fe 7.456257751473524 12.772894109242062 5.957086173499263
Fe 9.769822656303456 12.299064823237899 9.389209557469604
Fe 10.500505747532632 8.271469803338553 11.944509754751065
Fe 5.93710002286716 10.800243130635634 4.950590676536933
Fe 8.260395962137292 9.350141782234859 12.255888569100927
Fe 10.13838360849997 5.300270052695554 6.834245400152577
Fe 9.118902707151669 9.147127187044967 7.053778575236139
Fe 11.486464129839488 6.078090540996193 8.661785352705083
Fe 7.1200501227881405 8.778455535586968 5.542474593711992
Fe 4.874638115445338 5.576079416268491 8.458196890858218
Fe 6.706553080115728 6.762939059196988 4.534557276331103
Fe 8.596605356112192 10.752433543449902 4.95960970537485
Fe 6.581550215947961 6.618113005539427 9.175435138792785
Fe 8.969653597486822 6.76320684795971 8.426629390310982
Fe 10.450077140558001 8.335842234224145 9.36880008034744
Fe 7.061885074454711 8.657790957216053 8.21413016040824
Fe 5.819897186896588 6.9825619458390324 6.898187624352939
Fe 10.036126801835115 10.342035752835525 10.834009961338962
Fe 8.360981664560656 6.792828335641399 6.215725594233919
Fe 6.455911330570936 9.482956432735438 10.677668230132685
Fe 10.922943062858824 10.096478865086352 5.89396695861629
Fe 8.341968157034426 7.995468688419372 10.398505305344019
Fe 7.5329949745492115 5.013090110369285 7.806207430922629
Fe 5.068487426983047 9.567683394097141 6.930521603318598
Fe 12.657888299446002 8.223556695222072 8.442225954926826
Fe 12.333762661680682 7.008575682330093 10.759132851642487
Fe 7.2774415550620155 10.715925054696008 7.004128989472242
Fe 4.929803458188107 8.297685644280282 9.093513707407284
Fe 7.504800157903187 12.586835044280193 8.528029851376074
Fe 9.976828021907851 6.176998162854489 10.613516760661572
Fe 7.83691463694728 5.3049625823583 10.537659238649614
Fe 9.504057447476283 11.754578099927903 7.078994184536162
Fe 12.271931076987734 9.33921921005075 10.556828941235239
Fe 11.14963883745091 10.27690074816656 8.316025836699744
