43
Energy = -297.86017741 eV
Fe 12.602152671970513 12.403706555347483 14.431077282194051
Fe 14.776232372087248 12.396067050021136 10.133487307957772
Fe 14.51771752681154 10.174300173296832 11.104828499850427
Fe 13.711656763361598 12.393106106305384 12.294098206048846
Fe 13.290668703148029 10.219895212312805 13.228383671142852
Fe 14.242410008644228 7.935740192019511 12.083218138615567
Fe 12.901580479423574 8.082964341724376 14.073637737462702
Fe 10.601430718715166 12.019282610473285 15.42456708738465
Fe 11.70039184585365 10.055846184840675 15.047141720717432
Fe 11.703132714421821 13.824994167301519 12.64875349067838
Fe 12.78214649407789 13.717191979888254 10.437047416438789
Fe 13.718902795058307 10.923224073688779 8.645644179425783
Fe 13.588198090461734 13.352473487893194 8.219999849673142
Fe 9.687072458728169 13.091644641843585 13.581130257714687
Fe 13.542552005495557 8.639811579626299 9.5564883554571
Fe 12.361990589337783 11.207194880557195 10.670891771508314
Fe 11.183602595075005 11.352363797486683 12.776087377321847
Fe 12.16008884191954 8.928665645264868 11.55281980042871
Fe 11.833611521526588 6.744491148534236 12.508445376929142
Fe 10.59620713403325 8.823573182672783 13.390392037874012
Fe 13.076333479376702 6.589057651255336 10.55418499678173
Fe 9.609633042578265 7.4313446413850315 11.72226358467131
Fe 9.913250855858113 9.841650054932797 11.205574984105677
Fe 9.241447034912966 10.645171807775174 14.071203659162856
Fe 11.222290291244603 15.46053157000994 10.88574915600213
Fe 11.577477808626838 12.21238912101876 8.479313346501224
Fe 11.44545858151347 14.643106649661263 8.623256929642645
Fe 10.468254300292365 13.045568121839493 10.577355293616321
Fe 9.123006113359326 14.566876300652796 11.800304256010241
Fe 11.074930416029263 7.6431550736879785 9.949665851618597
Fe 11.474576451760267 9.759117049691984 8.882086143602443
Fe 8.69852026194493 11.796995928842836 11.903366929155013
Fe 9.484980918025942 11.254944760996427 9.339326442837926
Fe 9.800876558410435 10.866123441051084 7.1330480141775405
Fe 7.4523331729762265 10.509511608148394 10.142559755953995
Fe 8.013497317692142 9.275740103118359 12.472531533328379
Fe 9.222830838383103 15.064887958406468 9.471953839547053
Fe 9.48602796757568 13.306188129785843 7.92638563705669
Fe 7.940354092897185 13.128526740681377 10.06974129718325
Fe 7.811090882563262 8.190478349437074 10.4541075591894
Fe 9.328066675831144 8.77806871299127 8.879263540433435
Fe 7.669530349171054 9.848328215373535 7.797294651513864
Fe 7.490861088264381 12.0846816177898 7.997795151157733
