45
Energy = -312.37575285 eV
Fe 13.25744743416816 8.16958640861425 10.058551363693974
Fe 14.012914977653097 10.243708889390371 10.778400270771815
Fe 13.553085068123302 12.14890398236223 9.544067111438942
Fe 15.647149578197455 11.994715248834202 10.875988965125536
Fe 12.793802024292402 10.070895471352767 8.486114029018196
Fe 11.45585237726104 8.163993028918684 8.273861033492592
Fe 12.70165919125337 7.120525467618419 12.252656091840695
Fe 14.418316018460663 11.203881733459344 13.027056814082353
Fe 12.689353173789936 9.369320487354894 12.583912896829652
Fe 11.336220821929723 6.906161883053254 10.179351573805908
Fe 15.162865520507179 13.837804421001312 9.532806300033013
Fe 12.861473102669441 14.09107833682877 8.377488288220603
Fe 12.262907966360613 11.628837578649271 11.60742282091444
Fe 11.340885872672098 9.666235900322507 10.449848728471405
Fe 11.152383454025408 11.862001717695003 9.174703910365675
Fe 14.000419541625448 13.409600339757572 11.735797345847473
Fe 10.037457179472973 10.00561277485593 8.199695413411021
Fe 13.15213457061064 9.534645474799678 14.83895021370962
Fe 14.313256384491517 11.469647073348876 15.310510684998668
Fe 11.680223601285995 7.9259389027014455 14.32914343653488
Fe 10.59640333811961 7.957823215429955 12.089278355716853
Fe 9.427636953585841 8.236299340104228 9.83315151454398
Fe 12.205005956861907 11.44315135985751 14.008220592618668
Fe 13.699040027294252 15.476734467934627 10.327218743417825
Fe 10.495674493638964 13.930196387769598 8.118649065253495
Fe 10.823392130106908 9.920433506634165 15.27200249147452
Fe 8.83719670107618 12.20560834971633 8.830250469557411
Fe 9.386936650766406 8.085253287979643 14.144523335422036
Fe 8.3673923814366 8.99364130411229 12.198215164437467
Fe 11.80900885770157 13.812111680943387 10.53728218401425
Fe 10.458729916285387 10.20946150675547 12.72805999784276
Fe 9.002463879058046 10.498813585273671 10.442093766348322
Fe 13.5683520670866 13.385885974768415 14.047408728212066
Fe 10.001285037717947 12.410800371389676 11.47439044951902
Fe 12.83382507345407 15.325093602719823 12.48232615700972
Fe 11.366345793014464 15.782037223957245 9.460682204080086
Fe 11.4679906611979 13.56704557242303 13.056555381289831
Fe 12.066309063398206 17.182101955260364 11.308475721873561
Fe 9.238892665218843 14.428192528221844 10.051715986654159
Fe 8.55925298830531 10.17204805834987 14.569074288165417
Fe 8.09150245254103 11.385610451197227 12.599706621058914
Fe 7.629413242462753 12.807887348058053 10.754049957171578
Fe 10.448829811206158 15.339721658143205 11.84942239017243
Fe 9.869055192129375 12.161121999222347 14.142450472542375
Fe 8.68720313917713 13.887904592594548 12.737275448445185
