45
Energy = -315.92579381 eV
Fe 7.877223640614929 10.107195769204804 7.961685755068059
Fe 6.4655794020824855 7.200837163381794 5.495668049487856
Fe 7.284424336473432 12.39661402863776 9.173265141679048
Fe 6.928863384366834 5.2646515484045135 7.313491847569083
Fe 9.905381330231288 4.2800464658485025 7.627263877686744
Fe 11.127712283982765 12.486071377218273 7.5105823366456566
Fe 5.630222151497096 10.426662768642288 11.33006938019244
Fe 5.492556111348684 12.71163068096263 10.238975783485746
Fe 7.446099592403835 10.90155184741876 5.350527568065562
Fe 10.358874022536185 7.2962495763557405 9.835547766756616
Fe 10.452253466956941 4.872482387841881 9.971285855890432
Fe 9.579503348929084 8.155763429399453 7.74012323730117
Fe 9.555389280633666 11.975117884412779 9.404167322244856
Fe 7.2787754196626056 7.6138955923723275 7.474226096864809
Fe 5.925872233424647 9.429640562173248 6.661883835513703
Fe 7.676365286511067 10.253050056072507 10.377294441407614
Fe 8.47791393890538 8.880063447552109 5.70484043332165
Fe 9.727224413510102 10.97737178684037 11.723133547847038
Fe 12.194916504930623 4.461606165108563 8.456198255693348
Fe 7.957760919655624 4.13827154855496 9.508959554749426
Fe 12.501709100198882 6.497048610323179 9.798559474069757
Fe 10.930277205572235 8.56841566860431 5.916096823866336
Fe 5.45839774690032 10.801974822537625 8.776430454253283
Fe 6.381603748388373 6.219167022470157 9.505897755811114
Fe 8.733726101031513 12.286097599876896 7.070228580602001
Fe 5.016851869221103 7.075372436759761 7.548937686201059
Fe 11.993523798700325 8.68070975697559 8.366113490955033
Fe 9.18902744038567 8.512671104100978 11.8197688059602
Fe 10.806597145867583 6.503565851400491 11.923924018991583
Fe 5.853364730334859 8.675273780199728 9.23021752484653
Fe 9.983229880707766 10.996141992934904 5.287839714036355
Fe 12.43634113071768 10.499845766246839 6.634332239099349
Fe 8.474024142624545 6.111581556098251 11.113090222951543
Fe 9.060442407270935 6.432451444317287 6.199924362656059
Fe 9.957409737250027 9.67889790188171 9.733566170611947
Fe 7.616874577594129 12.169364511411766 11.61945200938363
Fe 8.089175154121351 8.045504843826341 9.63836105717612
Fe 10.278708842597824 10.363882115345364 7.430594859987984
Fe 7.613939412632112 10.043873272833554 12.831516363714506
Fe 6.357570052220809 12.06463761502823 7.039761773318301
Fe 11.777357456714658 8.768286958713887 10.959165328263389
Fe 11.91968271695761 10.966302791747923 9.239151358484408
Fe 11.142970044901489 6.337296636669004 7.630141411736635
Fe 8.747880869529132 6.001936591278317 8.572029341796412
Fe 6.629035404793088 8.16355704790502 11.548340869646356
