41
Energy = -286.0513382 eV
Fe 10.491915660628525 14.12276230865783 8.681842202642844
Fe 12.670029564668015 13.434876709345918 7.873549124547004
Fe 10.868422995862877 10.764159822011772 14.429666247875176
Fe 12.625861590623012 9.256728316424702 14.472154340960726
Fe 7.1921189861087065 10.395961971870934 11.57793443978451
Fe 7.718594229939186 9.07142437886702 9.644423247101225
Fe 9.51918756198252 11.496273258496442 11.796991731896428
Fe 6.84221656906836 11.224314249685486 9.275027704442088
Fe 9.077682712098168 12.257923108417353 9.598511424527995
Fe 13.041542531109155 11.137935720536872 8.271077044115643
Fe 10.737184184725734 11.893387701651907 7.802637316891286
Fe 9.375416184359837 12.553134722165009 14.344605301363885
Fe 13.09910406818234 11.557788741607391 13.621862214269733
Fe 11.121442324739546 9.562481390201961 7.394006154424547
Fe 7.124631727292408 12.778003028835423 11.02785998074291
Fe 10.186068113353425 9.886194657826435 9.699092367014131
Fe 11.24806936242413 7.985720620389358 11.202670009078911
Fe 9.296077961372296 7.299805107043275 10.09901532678625
Fe 11.233021497757704 7.585121123154739 8.737805974254345
Fe 9.106768994437722 8.313943622862453 7.8382296301141325
Fe 8.709921302824952 13.840038647654826 12.479481624286207
Fe 14.214556431752598 12.865115361255038 9.625726333535347
Fe 13.62232390105561 11.095240987532884 11.161354832256109
Fe 12.961100260523779 6.793570175582432 10.275243108548839
Fe 13.120537503768277 13.396299261218227 11.800005241823888
Fe 12.571171743394164 9.36398204557902 9.647304244264012
Fe 8.49553195253534 14.478512662910008 10.031641799039658
Fe 12.979378060740125 7.679389054565187 12.797391748858926
Fe 14.414263546776947 9.810461400131047 12.977429812924314
Fe 11.152834927270037 12.585549429919654 12.838091323527259
Fe 10.614368739857714 8.37612708638284 13.55989673404874
Fe 7.344099239269784 11.977456098981861 13.333570717258993
Fe 8.679414607787455 10.624506826212102 7.811365088400752
Fe 11.534592267866648 10.279923040452715 12.03694261612908
Fe 10.59748676106798 14.074842547240538 11.12431257762908
Fe 9.159074283351297 9.06210620535782 11.731800895723568
Fe 14.277752496798353 8.567260113552239 10.98782183511289
Fe 11.639970462981585 12.151384031791782 10.114123672279415
Fe 8.675554047366125 10.11435894804541 13.811395191064458
Fe 12.548226363349098 14.674137286203033 9.878954424746842
Fe 14.973047980303326 10.471671687997006 9.451301515901951
