44
Energy = -304.08877584 eV
Fe 13.071905750425891 11.066483665806443 10.196783403644524
Fe 10.087226956865894 12.037216931235028 7.12225480866445
Fe 11.075123752400316 6.694769829754121 11.342148732949864
Fe 8.738833420003653 7.534950747478417 10.536157247058481
Fe 12.931027851838214 12.353353209300941 12.22099907517916
Fe 7.476881110359038 12.748275119989398 12.978811136726325
Fe 11.124161233972526 13.852790926142657 12.09856002862426
Fe 11.997454769521845 8.46088333585231 13.157043158675464
Fe 7.115365833396063 9.459808238014167 9.477280041433088
Fe 14.365001021732105 8.842437250310658 10.041912759162178
Fe 6.522001781485098 12.03234307836745 9.017677470996572
Fe 8.111649089359494 14.04976738168358 8.281673997364317
Fe 12.040895451839306 10.508253885267072 6.355248515095409
Fe 13.819949958059143 7.78615772272137 7.289687648870245
Fe 12.53380817729811 10.826029036417314 14.031787100794714
Fe 12.438693370172276 12.18936480016994 8.005893935662936
Fe 8.194412067382338 8.72740308734779 14.046024615855137
Fe 8.73709076556087 10.745072159165105 13.030149872163673
Fe 8.071017453235218 10.580585671726368 7.773936437509873
Fe 10.546759856307153 14.038902160596137 8.207186439890462
Fe 7.4242103994037585 9.020311013683495 11.858294900525992
Fe 11.320015853110865 8.365825967159168 7.600914932585177
Fe 11.178756890033265 12.569451408928456 10.075871883774425
Fe 6.4135822604453265 10.551925965783623 13.32568676245219
Fe 10.56587798588658 12.24382137205055 13.81657345319444
Fe 10.41551263803654 9.805818784272324 14.435136588976892
Fe 13.591390741744853 9.820016742990644 12.084451812218441
Fe 12.032979831375378 6.252514914876353 7.1735423337111905
Fe 7.312217642404384 13.701008602854879 10.56485114208547
Fe 9.272162497297913 10.144425803044166 10.547617633659595
Fe 9.174887301021688 8.752350307417407 8.590369549693326
Fe 9.874581033315497 9.711696882739556 6.39027375898542
Fe 8.883637263592368 12.169790452561498 9.25303084023702
Fe 13.105138727281098 9.704206707983937 8.304697151807327
Fe 9.839622140993376 8.572050410893175 12.341376167974913
Fe 10.403523344336607 6.697294100233607 9.032640045652714
Fe 13.389632932353313 7.320684866418932 11.577982485121076
Fe 11.127916675413767 10.738672877402143 11.993479767647944
Fe 7.157244958656521 11.315768998447448 11.121791172714957
Fe 9.522452387093157 14.540006136657361 10.209023314031628
Fe 11.660487589257768 8.881891362395203 10.412923519221565
Fe 9.287400520529326 12.571932123288281 11.630825180724205
Fe 12.770553321690604 7.014925197316288 9.261548352062952
Fe 10.819639382461105 10.541444752204832 8.728564813569786
