48
Energy = -339.6275971 eV
Fe 9.657983923921428 10.141123990106614 5.0082229582947395
Fe 8.47836897394667 8.179771843936077 5.337153732076491
Fe 7.215807311587665 9.921346031516322 6.1872181144601655
Fe 8.752590239892939 11.736685655108321 6.534186615903955
Fe 11.388659788521064 10.65551143898436 6.724554746045977
Fe 11.135679928411049 8.339600972557951 6.145353907672579
Fe 11.861094521620739 12.955191909591518 7.563453602147227
Fe 10.060591436529045 4.792842865126107 7.982434870655542
Fe 9.33908617191543 9.332541398878572 7.312005141573989
Fe 13.178370254785701 8.75980110559512 7.622907860441187
Fe 9.695569284252763 13.744010234866794 7.811172087951935
Fe 7.887814002775607 5.5502691333213185 8.395756982200744
Fe 7.414442128535135 8.070715523247195 7.981064390110922
Fe 7.616897282077374 12.928261770275675 8.834107500794696
Fe 11.260900891760311 14.896792142895471 9.056678697046465
Fe 9.384722442002436 6.88131160347011 7.029917988267289
Fe 11.460282004846908 4.899123612845319 9.739957683308269
Fe 12.64373860017843 11.023654707164065 8.810873548475044
Fe 11.240177146644966 8.908030766102229 8.746570280195446
Fe 9.96590745657269 11.36870433513504 8.509975561935013
Fe 7.484181723688219 10.565586868446909 8.501610986964065
Fe 11.77959065699392 6.596486316281719 7.754550117757514
Fe 8.947375635804482 5.027304003548639 10.413159049235837
Fe 11.313661399692597 12.791416241420643 9.980314401353695
Fe 7.143461158484481 7.034764556331057 10.057385887645353
Fe 5.65317954968666 9.229107001410982 9.238706057117922
Fe 9.133585884842962 9.117656464948883 9.755415651293783
Fe 9.905927371682553 6.933611032465871 9.439516587289726
Fe 12.580445609600936 7.007808917047051 9.925470933307608
Fe 13.136624031357403 9.375945674622225 10.512399864468959
Fe 9.32645044551247 13.977591245780134 10.230748743489837
Fe 10.980684223211272 10.536094558940569 10.58978602338235
Fe 8.668125904677277 11.463529214897948 10.540510399856599
Fe 6.122463101496698 11.534871683988996 10.44839822939441
Fe 7.161265475484035 9.321253025722996 10.939493582396308
Fe 11.106255070664773 8.221597611650449 11.294960629069116
Fe 12.759445783385656 11.651243222691791 11.551520900670331
Fe 8.73111239869448 7.330012450218773 11.715183232877598
Fe 7.37942896375519 13.246635051579611 11.473178868164972
Fe 10.790018812982565 5.968914798815902 11.73740922362297
Fe 9.297833709366394 9.726903656669366 12.1120244709142
Fe 5.45351282640341 10.023286705277425 12.25357728842515
Fe 10.07787537662013 12.200982626360593 12.297910264076778
Fe 7.463793753277906 11.2427084770421 12.764697317383103
Fe 11.663378646853996 10.044224504195315 12.924172427886008
Fe 7.496860311230468 8.882322857234023 13.365973033253274
Fe 10.109619239800667 8.10379807437559 13.5663665861448
Fe 9.582837508977025 10.646730482317004 14.169671338005156
