45
Energy = -316.21403398 eV
Fe 8.961047512483555 7.144535758680816 11.168758914155763
Fe 10.095152689608328 7.357193856871447 9.199875577371898
Fe 10.08835142290437 7.889260342182303 13.257686338556189
Fe 11.438844086764751 7.45182070548895 11.228666093404392
Fe 8.401874237637902 9.032215901851833 9.406089806567918
Fe 10.124268040478393 9.200274837706983 7.717928359889493
Fe 11.813563054057079 9.168084500528627 9.414178254568375
Fe 9.926188943796236 11.065604198234375 6.471397965639254
Fe 7.8006021488645505 9.063026563217498 11.872673933012994
Fe 8.237580372842723 11.303386145829867 8.162099568687438
Fe 10.218440336093813 11.003552044568025 9.233454275813623
Fe 8.21201341699326 11.185183817359691 10.72463545064683
Fe 11.941934562434424 8.02120153192921 15.001397393124124
Fe 12.069547021256275 11.282029463918002 7.670589418946337
Fe 11.809506320586697 12.771146136393353 9.675538054899068
Fe 13.473939097873584 8.7402624412976 11.346397647052976
Fe 11.82718546830648 9.403165714285638 12.976692918794958
Fe 7.506014319222951 11.66048586728116 13.023277377544657
Fe 10.150732554136043 9.388539642611061 10.99829112505924
Fe 9.19086860495089 13.234878123950642 9.59442657789487
Fe 10.220360981545177 13.05966024526839 7.538143368880021
Fe 8.73481019443445 15.452691814979682 10.148677426582042
Fe 12.694620110469797 6.9730551374337315 13.099272572531676
Fe 14.153552544092513 12.684550103229714 8.454905329974334
Fe 12.155200827816426 10.916636640842551 11.15808169895762
Fe 10.167634970956492 12.15543113226282 11.727758831987067
Fe 13.790227213387698 10.475802293563643 9.386664023252267
Fe 10.798787182924979 15.060853820410442 8.841667583674864
Fe 9.352384502671429 12.115291045804575 14.65158369603109
Fe 13.136826139582167 14.602646686307175 9.96284562365804
Fe 8.043292442963702 13.872372952862735 14.053629668806032
Fe 9.419781411748216 10.274658140972802 13.086118268247416
Fe 14.154134258776262 8.773672466037992 13.691593400291257
Fe 15.913522053330567 11.472740943534673 9.43903478468691
Fe 8.367520464128143 13.685222392247182 11.791308734030356
Fe 12.43175170182886 13.86453639481373 7.520992134880718
Fe 10.487927516501502 9.871213104894695 15.142106253232978
Fe 10.389468222298161 14.040200874724432 13.493484391848709
Fe 10.699996228109935 14.580452039681699 11.141557080434612
Fe 14.242247961407584 12.473177547911163 10.844538435873826
Fe 12.457025964724199 13.314026667315355 12.172227720359638
Fe 15.26346805220508 10.26819358035529 11.36951172039177
Fe 13.739601786093347 11.068382929034149 12.995282470413441
Fe 12.890170677912757 10.262712980600948 15.16154717374766
Fe 11.532000326863834 11.72218337862155 13.75067709269125
