42
Energy = -293.6800105 eV
Fe 12.26349687290692 15.047016698737858 12.964044072942023
Fe 10.925611913329009 15.18291784079724 10.970408274757355
Fe 13.869934933644895 13.087656703420816 12.956827252949239
Fe 13.076086985073808 14.123290498251228 10.872851521342067
Fe 11.848809297421857 13.424013654669647 14.631858177136602
Fe 10.031425442628214 14.446306009629795 8.726716938830513
Fe 9.904163042168127 14.382275690153293 13.30428085208781
Fe 14.701188460206163 12.313447844878716 11.048068430765062
Fe 14.596615390676055 10.773734783050791 12.867057641610167
Fe 11.307533396775431 12.941360422633753 9.945308777446858
Fe 13.239869660427743 12.215136299805277 8.897338374713144
Fe 12.578716394574565 11.18557889156271 13.967958396800583
Fe 11.40856343630194 12.829632866896198 12.357523085829397
Fe 11.174043279874605 12.506963373668052 7.5593219995551415
Fe 15.420363720223946 11.016810344902993 9.259198597162957
Fe 14.693312747852138 9.456080966462618 10.945310101102947
Fe 9.139118175833941 13.679610075521468 11.002394472760729
Fe 9.0727245337884 12.326400188254294 8.955509431126861
Fe 10.055259391882691 11.850126996659965 14.07855981772255
Fe 8.058586421763378 12.689524220122825 12.999350937143248
Fe 11.046752474240467 10.56687587969266 9.275167882371633
Fe 9.775579907624337 11.356955654196069 11.23624289664107
Fe 13.505629783625679 9.878536982020982 8.951936090249752
Fe 12.644125932210825 11.08612409725484 11.168827762373263
Fe 7.410637961976911 11.660621130130936 10.85740503006282
Fe 11.992529375742581 10.195730641353387 7.115917799797666
Fe 9.639273989620765 10.67695393881397 7.231118006858909
Fe 13.121663759456764 8.977000294506757 12.841143036635577
Fe 6.360078277595924 10.954604899723252 12.714610806686965
Fe 10.981835350363044 9.853341795766251 12.773198714400852
Fe 8.547962479138972 10.318143146281823 12.976121411225563
Fe 9.764314663473227 8.91915948618132 10.921992515873637
Fe 12.174057008992321 8.671945842132034 10.616085565521505
Fe 8.434367802130685 10.08870048355507 9.319689149428457
Fe 12.300217673289794 7.9992546628178545 8.252023327257312
Fe 10.096450919473096 8.557079756014314 8.391843288113357
Fe 7.455472626442969 8.981515508175448 11.368005753749864
Fe 11.20810034003276 7.28203539225058 12.292308083438817
Fe 9.209749715079875 8.129216609747182 13.252535178320457
Fe 10.663486915545516 6.807259136348086 9.90985252698316
Fe 8.166067326146795 7.634791350489183 9.492380110492727
Fe 8.865765711414861 6.655812433441096 11.46125140070336
