40
Energy = -280.27816162 eV
Fe 9.49141188657706 11.17202594454892 13.612556789196553
Fe 7.1568729046990684 10.518019646723593 13.152838949548512
Fe 7.908997218308224 12.666156381582466 12.288939119437496
Fe 11.143160016377054 9.30832299936345 14.155899140935052
Fe 11.851862836584102 11.486422723947037 13.609547817349865
Fe 9.068773413165356 8.902448380282184 13.021550442851048
Fe 10.320214617864488 12.664320719041564 11.912760966271518
Fe 6.501860416181746 11.100843551720713 10.84891325312247
Fe 8.738664241714478 10.591132442501655 11.181632988495762
Fe 10.965299127619533 7.432699702144422 12.612799461128262
Fe 7.089345800277814 8.579413119513335 11.755840576077137
Fe 12.949103285621113 9.255387151774123 12.572185001865023
Fe 10.015491587853502 14.178740990796575 9.773487742650273
Fe 12.184927564033995 13.773316991149649 10.372549664732356
Fe 11.003663048118307 10.001629891739352 11.664246681420774
Fe 8.366542484049143 12.556329223067667 10.018832218243716
Fe 12.679696327590491 11.68291904680998 11.440042245679864
Fe 8.714961295402404 6.679445610535135 12.15342756153159
Fe 10.751780636568245 11.8107065372418 9.724080825912926
Fe 9.493323109713222 8.398890453776577 10.497806271455543
Fe 7.472345091392306 6.8025175588337845 10.117693398341222
Fe 7.161728634161154 9.182346219598559 9.499543302108348
Fe 9.187725414026367 10.37511572872648 8.722048885157031
Fe 11.631977769146376 13.45583652813366 7.9476458790679665
Fe 7.1746271855036055 11.490220689151226 8.284271224327647
Fe 9.353095144509352 12.805214691693823 7.860542518397646
Fe 13.036886354201327 11.899890318040987 9.006782393828702
Fe 13.53126194116202 9.710254813123724 10.176915446702735
Fe 7.4153089094752405 9.415964879210888 7.12431367431283
Fe 11.984916843987804 7.832081070314088 10.595587512906814
Fe 10.032895135015915 6.183790736831276 10.23026231112386
Fe 8.71800621500891 7.688881326267332 8.351246381758008
Fe 11.30564408373661 11.157923495405436 7.201128500946298
Fe 11.445726998822254 9.554513989830717 8.993638691167794
Fe 8.883729893108779 11.094729432882982 6.337785119502895
Fe 9.92386392055521 9.044612694070404 6.869019472076476
Fe 13.613842925730097 10.123978021463044 7.645065727830106
Fe 13.42038460930526 7.904868652927601 8.639075370010351
Fe 11.13944429972418 7.290728478888326 8.310576356957757
Fe 12.172947611840916 8.72710715838233 6.605528771537769
