42
Energy = -291.94261964 eV
Fe 12.827151705812962 10.936633219448073 9.148500029462372
Fe 14.672498513846456 12.345890655645471 9.94640463484762
Fe 14.056751339418183 10.600395763189415 11.27266393881337
Fe 13.358975398086997 8.71724788999987 9.930743230897287
Fe 14.819204841130214 8.579224858675504 11.83386587200335
Fe 12.94908066459641 13.330342517569715 8.592614046457534
Fe 12.07376078103462 8.905475035897597 8.082073696838375
Fe 14.366186518311352 12.817343888877142 12.354858090097675
Fe 15.092862697512633 10.681747284918051 13.321432832261207
Fe 11.619463403791455 11.153919734628033 7.186338338186982
Fe 10.276484593508163 10.684028655332533 9.595336214563456
Fe 13.180162469269442 9.113686533310041 13.510569862515249
Fe 13.629587449234275 14.413742244237014 10.833885414182319
Fe 11.458086418997182 14.7796221552346 10.120430246257891
Fe 11.260213980925169 13.520026476201274 6.818769383953558
Fe 12.561666770616771 7.610884904120401 11.833550285735976
Fe 14.09846890216737 12.239025605979684 14.848381710914058
Fe 12.165353128493823 12.334673270669956 10.906518252368606
Fe 10.829406325135341 8.312016166513752 10.153449550497172
Fe 11.828565688950512 9.95651891659156 11.363488409687656
Fe 9.812794925966006 9.384597099982031 7.635014691243982
Fe 12.71413629362644 11.344180954591057 13.25310212445927
Fe 10.673397997037261 12.922541577020134 8.89884542279163
Fe 9.387237603034738 11.858704838253882 7.1890401469527445
Fe 13.603783316247267 14.299194277496198 13.929749169597198
Fe 7.759207068240517 10.416850903576144 8.001753301686717
Fe 8.502753456846502 8.629908755462587 9.457943615366615
Fe 10.763739898378427 8.660887626537999 13.025369623256305
Fe 11.78013148168087 13.94249251763327 12.529830040431577
Fe 10.378289635835225 11.453707528875896 12.731059035508865
Fe 11.348767824921238 10.227824094335858 14.794531916896798
Fe 8.414686984909943 12.340336971155944 9.48769614964039
Fe 9.946734985662593 13.28061961413241 11.109289050813905
Fe 11.67846222562885 12.848404719032898 14.622879951027183
Fe 9.177674417995101 9.635715847027559 11.572107058726358
Fe 7.239663096504855 10.345656557581517 10.303778847482787
Fe 9.44889483590537 13.535585998550008 13.447325404757082
Fe 8.193327821493048 11.94024744617621 11.7182655112595
Fe 8.973974731842722 9.720262312704424 14.169954913747022
Fe 9.603048851534341 11.837304769989428 15.164798950938188
Fe 7.180652568807342 9.892392413402417 12.712051602974887
Fe 7.678665545486754 11.834094557866676 13.975696588324363
