42
Energy = -292.96446824 eV
Fe 13.665374612231513 8.120771599317967 6.841363940457125
Fe 11.46305125166462 8.634711982870204 7.118988362467828
Fe 9.185755727568344 9.041225348995782 7.227633046657242
Fe 6.851124068823175 9.678604307501253 7.32364813271077
Fe 10.98651197294934 10.99224709728435 7.43612015551586
Fe 13.385553510006936 10.459693901742776 7.104868564790838
Fe 8.583696937685529 11.057718927409137 8.094965995749416
Fe 14.883423463412615 8.788349779515768 8.674896474202741
Fe 12.772436035212278 6.975948901851526 8.708846672746613
Fe 6.242430251741101 11.48390705242462 8.723033455851388
Fe 10.400016042602628 7.5975251840860585 9.028359993341986
Fe 8.223096780434721 8.719928792803373 9.28780407622439
Fe 5.957361653468579 9.069961649790095 9.39928317520383
Fe 12.625605305207065 9.316480733836396 9.040127290661689
Fe 10.0220990669326 12.265678017102198 9.415796653361818
Fe 12.375767329980306 11.670271026442858 9.32191781471776
Fe 10.33345613324391 9.951658369387191 9.542314791040624
Fe 7.955047667150101 10.934012596186545 10.566505979197236
Fe 7.905771171406857 13.187487412722522 9.032675714845448
Fe 14.625816191378037 11.228561675046947 8.984029789382063
Fe 14.062716059566197 7.560109966215963 10.593934151430245
Fe 11.77847431946021 8.116175297902123 10.973757983414638
Fe 5.255510953401128 10.825856677428801 10.745040573181846
Fe 11.374364505942387 13.279435566664391 11.013932673831581
Fe 13.734855520694797 12.411134146236549 11.176745448071358
Fe 9.418363615267035 8.760290548254876 11.31371856342486
Fe 8.923194360384288 13.540871971277756 11.139384307979798
Fe 6.525492094108597 12.802640151591492 11.02578441602509
Fe 14.156617846466682 9.90804618189415 10.838027077140804
Fe 6.969088066408166 8.889845736542574 11.551878667883077
Fe 12.021691663175842 10.526933780116554 11.49188314827149
Fe 9.935241472226968 11.384550395767 11.919910581082856
Fe 6.26581078574157 10.786259024222293 12.78912675854733
Fe 13.156004933888722 8.767705340420477 12.80685929976751
Fe 10.696791302446796 9.040243908122443 13.215044818835812
Fe 8.462082977792242 10.009777148295957 13.1367962746998
Fe 7.886386773246575 12.385669581373804 12.941973565656877
Fe 10.041472022282264 13.625266104712093 13.204837085647922
Fe 12.11134535982083 12.479808541916174 13.059346726751585
Fe 14.11543942308042 10.990504797109818 12.988290903969261
Fe 9.910358150829047 11.558114220534971 14.3192976555684
Fe 12.100169875212933 10.520883811627021 14.226116494236049
