47
Energy = -330.60940749 eV
Fe 7.138006476776294 10.73970496759312 10.547640770258802
Fe 9.266392218951808 12.679470905993174 14.278031440273736
Fe 8.924773362824748 9.857944067678114 14.44288196599177
Fe 8.041849940684134 11.425389732840245 12.761126130408325
Fe 5.79829969051688 9.736089856635024 8.88224492321317
Fe 10.633005052484384 11.227873490989815 15.508726350118796
Fe 7.299966715194466 8.163260852561011 9.947577246974884
Fe 6.8572376772257195 12.063967704838898 8.565455734905305
Fe 10.401323362382303 8.519549510360061 12.519123666958565
Fe 7.831683898557115 13.036833383637301 11.048845971672037
Fe 8.191711365954964 9.093089477251546 12.022813949827052
Fe 10.069357498256009 12.915355187097559 11.855461180433101
Fe 11.273006163582947 9.007264880990162 14.675745535081676
Fe 10.509270987008158 10.804907597510915 13.110887110328363
Fe 11.569307208468825 13.030841291142751 13.908148709030291
Fe 8.346666703255806 9.960630751774689 8.725393517911048
Fe 9.223206939729398 6.800861335933266 11.247597971070093
Fe 7.07570194648715 8.33737797652492 7.4084133590187635
Fe 9.663161745095659 10.72227339509544 10.889930993574815
Fe 6.8968744175967585 10.563882889117064 6.77164166477207
Fe 9.074412250807383 12.37060918066 9.252081111654158
Fe 12.793000206267397 10.957827907326886 14.389458806171929
Fe 9.852692154719147 8.536072477559712 10.030864942147028
Fe 12.648509191194293 9.285947247975912 12.659291676091595
Fe 10.907766983059144 6.325966759692775 9.418069064088519
Fe 8.951994279720116 7.309051535491809 8.372992586014716
Fe 11.49597920172074 12.119280500302306 9.889967670761147
Fe 13.936958050500309 12.915382777967263 13.515034182662069
Fe 14.553712967680303 10.858477083369136 12.370149862346295
Fe 8.995693306742785 11.608924422050867 7.030312831891309
Fe 12.292184893860586 14.01954308168798 11.663812623390815
Fe 9.357575782140085 9.2177887749288 6.695813559530105
Fe 10.633419951858732 10.467791179941598 8.478193500665286
Fe 11.968824907731996 7.263652079700827 11.3050876842126
Fe 10.412868973253971 14.255915285664596 9.85261229275604
Fe 12.40499458443741 11.667850570643312 11.971083805721024
Fe 12.978847563915515 7.395630458682682 9.192521422882487
Fe 10.991617183013187 13.062049039297632 7.749584828287233
Fe 11.18466133918721 8.195293358477027 7.855001200923691
Fe 14.472458589366292 13.093352916242619 11.193256779213476
Fe 14.099963150158434 8.93581844526459 10.708496328533746
Fe 11.898934628548366 9.61929631154306 10.410141495472638
Fe 11.334029325778163 10.54999140069515 6.431443906298102
Fe 12.989716059996667 13.789654604128248 9.344601845315083
Fe 13.091753271934515 9.568177577688598 8.301196304045993
Fe 13.047210398715183 11.913022847264049 7.815290424503936
Fe 13.845334464705964 11.217221536938457 9.950747007208266
