46
Energy = -325.36647661 eV
Fe 6.95704409804616 10.81219879068297 8.511637021227534
Fe 8.002317428053859 6.130097470682037 9.846425614156212
Fe 9.56147963821948 8.020035895467064 10.331576311402607
Fe 12.006933497770145 7.490479990021426 9.198029004473613
Fe 5.727886329330728 6.204287462145163 10.361269333734702
Fe 9.852342138162891 6.390293081561967 5.983625886238172
Fe 10.906116078019988 9.777342815598393 9.151089935777156
Fe 12.583240683826173 11.220067579243594 10.292845631267172
Fe 12.924800469819026 9.712050202406429 8.088750034591273
Fe 13.051277998238673 8.936677249068053 10.539998957926286
Fe 11.371730244309457 7.4725581461363815 11.70564567336261
Fe 7.347456001573822 7.101222441716208 4.960340122838764
Fe 11.417348077060126 8.21857104208994 6.9421997666852935
Fe 11.662707591894362 11.97038993005752 8.222821208008154
Fe 4.779333781422179 9.338316140154202 8.199411559932091
Fe 6.8078042035763175 8.939027677356828 6.8865696288450655
Fe 5.223493377715099 7.781587483259966 5.783794569277029
Fe 5.469993027162681 6.995539993295498 8.190212884307737
Fe 5.671981343331091 5.494100426943103 6.226508828867407
Fe 10.929290322493676 9.914156058414893 11.613020760378774
Fe 6.660488276646749 10.274021276967103 11.338061901723375
Fe 9.257464775978251 11.726396678919746 8.389677233437176
Fe 8.82945353026651 11.303367016742643 12.300728152377916
Fe 4.988571142423492 8.55554434117294 10.417205741614175
Fe 6.645044587045328 4.773029131255582 8.295772344397337
Fe 9.825966791799228 7.0656552755203625 8.239669102978974
Fe 11.460537061507141 5.71326176998051 7.5576712816362255
Fe 7.164536238536878 7.846188145858928 11.580170633114374
Fe 10.682029838586798 10.447647775114756 6.635375405433761
Fe 7.690655946008757 12.300065017331503 10.287012170367152
Fe 7.853595925689803 4.847697744288134 5.941980408045347
Fe 10.022815571191417 12.664417554928777 6.4031681360163
Fe 9.102740446039686 6.412674012488953 12.046286727362691
Fe 8.703659404021368 10.138989964894856 10.235265218056657
Fe 8.206024797209382 10.994853047408556 6.255484633368052
Fe 7.725313294951337 6.82355779094316 7.29592842987323
Fe 5.749225466579212 10.866614535768994 6.368530113256785
Fe 5.090794535061512 11.038305275868241 9.839588020344044
Fe 8.965566555462214 9.225563569991927 7.898394033128638
Fe 9.031587764873171 8.904585099503276 12.592927080669488
Fe 7.1113059304073785 8.394022857334233 9.299428463329798
Fe 9.051014580560624 4.814929094825696 7.984389535907981
Fe 7.044318332080946 9.53423977812882 4.608103993357737
Fe 9.08505147917943 8.680156732128907 5.6059478088123145
Fe 10.314465331158498 12.028404874206696 10.485731857875598
Fe 10.529479569116678 5.753095264532936 10.10801234262494
