40
Energy = -278.77506573 eV
Fe 8.632551626557547 9.715929546510695 4.814874927784556
Fe 10.368256546469837 8.161970346676553 5.949023938192401
Fe 10.754067579656345 10.674351313791995 5.838019794191808
Fe 8.316449974860785 7.265724387755167 5.765478814757792
Fe 6.656814739227497 10.501400979390022 6.227765771256665
Fe 8.79499596889031 11.82667293850534 6.175944255963639
Fe 12.131663356559113 6.965955252315729 8.282432920054804
Fe 8.483843916758426 9.366495201508009 7.047040633157906
Fe 12.297541420558014 9.177568120450958 6.997241206469948
Fe 6.250735659973119 7.931864792780476 6.802259425884536
Fe 8.057329599619699 7.404921371654695 8.584392443426873
Fe 10.201385908519274 12.929433027544517 8.022150050242919
Fe 9.79995448986283 6.309298878434787 7.102097553656827
Fe 6.268513562377175 9.513580952820428 8.473649358777193
Fe 10.369012031214503 8.332062187634845 8.505122061350262
Fe 7.227841297701846 5.66806225428808 7.435580342642282
Fe 7.736714006481706 11.656911344691052 8.206832956432331
Fe 12.324394670492232 11.663649119511215 7.582587478522837
Fe 10.30510194545466 10.695278914056543 8.160612412094967
Fe 12.606139963988635 9.591408202826193 9.197960574136863
Fe 5.736515316812845 6.953364155711533 8.928932324248406
Fe 8.44301982208976 9.736565192430701 9.363050730327071
Fe 11.680306475272921 11.948455153096852 9.924793880119696
Fe 10.0944740177116 6.03189930263049 9.504076086188295
Fe 9.152926897349825 11.90809991723388 10.2447284167973
Fe 6.709218396945939 11.007253037520996 10.585015008219777
Fe 10.623487445812112 9.954155477219858 10.487182846750637
Fe 11.774351985990387 7.738885855538288 10.65086658643858
Fe 6.7422167734709815 8.381616184902343 10.662855750497213
Fe 9.292861662823908 7.922140844071244 10.720687653710648
Fe 7.753576049723016 6.173439712085147 10.61278212816616
Fe 12.500832899648495 10.064809437384362 11.660216212644729
Fe 8.5694441592049 9.95223242277035 11.65561848838543
Fe 8.02482128144842 12.000204185822613 12.493069039143853
Fe 10.409239419205374 11.377959612317023 12.437308039453493
Fe 10.087399974761437 6.235825384698402 11.949996707579334
Fe 10.501863478886532 8.8023433300637 12.650219438572465
Fe 6.685989778237514 9.707035104739045 12.732833782087544
Fe 8.04272499545021 7.772757835443536 12.789375755960608
Fe 8.732784078033701 10.119781895276672 13.916687379814338
