42
Energy = -290.59178501 eV
Fe 13.547210155783302 9.279790036611606 8.409051904416787
Fe 12.885191450162674 8.504303070295641 10.640217704468444
Fe 14.078699652476354 11.484299436951748 7.831197527919178
Fe 14.516706925772986 10.401341768515547 10.324514801085636
Fe 12.660459203042958 7.003542121465099 8.65931577549367
Fe 13.619637856602878 12.158659965291001 11.88652837987956
Fe 12.092412636107058 6.137823634489005 10.701500650859112
Fe 11.701468680497378 8.300355583234284 6.931567666983906
Fe 14.562687508990729 12.709122512023063 9.69623364404066
Fe 11.21690226780468 9.132772710671377 9.101495982107863
Fe 12.192269652583365 7.583412629994622 12.699127326652794
Fe 12.225915921995139 11.693030259910124 13.955610549035272
Fe 11.828668385594652 10.69188368386599 7.340529495147314
Fe 12.60874065331802 10.10822578724306 12.303241087840144
Fe 12.530789999205519 13.994959813968945 12.96416692349948
Fe 10.159412511610022 7.087472699839904 8.737435849871682
Fe 12.652034994080307 13.819151271655304 10.435644681085696
Fe 12.227626043464607 12.911968776055653 8.249033890662808
Fe 10.530017407330561 7.664217302610168 10.975524022131353
Fe 12.361066175735093 11.202454308744954 9.915123516359335
Fe 11.641439516749422 9.304395908785935 14.248095763180363
Fe 9.59056904205035 9.292496495628285 7.355091059782253
Fe 10.554489819545807 10.002026291035605 11.242915972419642
Fe 10.926892483693814 14.973044553895166 11.59378267759266
Fe 10.02099189322338 10.796368435073012 13.529076860226246
Fe 10.382872270089559 13.199090607210811 9.847437359035544
Fe 11.04084763598862 12.289475811257066 11.86729557268207
Fe 10.27485206263971 13.47902901563984 13.654414071079186
Fe 10.049926119495463 11.19667991841405 8.822984468700476
Fe 9.861926118535793 8.173212896514377 13.212101045550364
Fe 8.303772733279475 7.420601208703887 11.311434187237676
Fe 8.876683271945442 9.080154307127229 9.6982033340473
Fe 8.538250062418975 11.428785021521875 10.810829856219405
Fe 8.917840509525927 13.87275662613583 11.586487926742057
Fe 8.28751522956812 9.666623257207076 12.345760958158223
Fe 8.14292282421169 12.214109782094587 13.131122475640943
Fe 8.04048651050524 13.054733027749819 9.209147122301884
Fe 7.752969468223041 10.71691507497249 8.402253174380887
Fe 6.723123637076077 9.380832512221879 10.447365039051041
Fe 6.701513844976653 13.237017738548783 11.257246694757173
Fe 6.3151013276029175 11.030685183379504 12.146962229879568
Fe 6.084206358275307 11.549289775225835 9.750041593572439
