47
Energy = -330.08389409 eV
Fe 15.15219761821469 12.477124832500984 9.147184511802976
Fe 14.3138563255237 10.435363198276606 8.21458548139015
Fe 14.54060933200671 13.307224979234729 11.217250420373718
Fe 13.21296689533223 12.694636762882787 7.645519556301383
Fe 14.466468515393345 10.547037671993973 10.723448320949737
Fe 14.819632838396009 8.415192253646325 9.345117595711605
Fe 12.096954182675871 14.279688923682064 11.340763383154576
Fe 13.530567816721408 14.432361453727774 9.370029150611836
Fe 12.504283429775603 10.371586110347756 6.87631069003715
Fe 13.32907381199612 12.671099825757794 14.46287834400854
Fe 13.199974237639362 8.117784657991205 7.541693743784005
Fe 14.162218288595561 10.26828228703763 13.157965213233345
Fe 12.890949474811832 12.130284815017529 12.266167550029163
Fe 13.703727013561009 8.38563245200166 11.634936767638619
Fe 12.017306651972502 10.026134933199181 11.677024895976924
Fe 12.821196464978357 11.979108655998113 9.848022040645578
Fe 13.205752571789912 6.823022025950918 9.893185653514548
Fe 12.434428678887105 9.316273710976029 9.407525638708936
Fe 10.756397307394066 12.439277843353878 10.883590210375514
Fe 10.957707823397813 11.467738773744031 8.3275161919508
Fe 12.110865535900182 10.73885614005142 14.160800684408217
Fe 11.313259568835933 13.801633054367041 8.89610845683919
Fe 10.663907079770228 9.120455669259671 7.684075599556725
Fe 9.803586460185272 14.83075768232163 10.361292695505718
Fe 11.110919169524559 13.21932872900697 13.615234141473218
Fe 11.33816898633507 6.968997564685915 8.52690630138464
Fe 10.187766310376189 10.23424436511316 10.16976741433582
Fe 10.156149285969455 11.169011172603211 12.82728011506429
Fe 10.599807087249411 11.729252194255334 15.56549891070825
Fe 11.306637001773925 7.740338689799522 11.036836550468141
Fe 8.991492291391484 12.678756400198196 9.228089855450309
Fe 11.724185720924314 8.485147302200994 13.493362529378729
Fe 11.60778576366331 9.372461346225897 15.867169361889083
Fe 8.50604007970908 10.304596292271427 8.584700017858879
Fe 9.129177848818847 13.568846758237642 12.191101161234508
Fe 9.514034553811742 8.09184782547378 9.496590454206046
Fe 8.334546806418915 11.429473644512013 11.210131737493565
Fe 9.511601200608602 8.981468468835278 12.114435664542077
Fe 8.66037702640827 12.192484943865992 14.289986284841941
Fe 7.421171267212488 13.90015712394937 10.493599192393248
Fe 9.687699772185313 9.654946420545631 14.58807654080396
Fe 6.653373159589839 11.586528891032119 9.439997518767782
Fe 7.567389726601905 9.29003688882888 10.580464463570921
Fe 6.931694672692246 12.56472478379185 12.748439227108715
Fe 7.677334961148945 10.253860665353196 13.151606258462198
Fe 5.438120942729605 12.814234538553537 11.007395072767848
Fe 5.830221601905126 10.59939790707398 11.500476376575794
