49
Energy = -344.57293561 eV
Fe 14.19287177321455 13.671539171400788 9.091041164047214
Fe 15.152470240562353 11.628837458227045 10.37188226987728
Fe 13.49999907274864 13.232219392902671 11.2535392627362
Fe 14.353843866899746 11.515541981771479 12.842900330411968
Fe 13.203755468074856 13.412272726000785 13.804249494638341
Fe 13.401003444854869 11.36541510016645 15.107337675237211
Fe 10.948573417523773 13.19623686725206 14.831439859381979
Fe 11.433297331489925 12.555897406330606 9.780732943963873
Fe 11.39641190119912 11.477406831087475 16.322306162217796
Fe 14.630158866789621 9.496025880350546 11.330561028978728
Fe 14.879815145717938 9.65489126690883 8.774702870526552
Fe 13.318672171295521 11.406692463054194 8.892650764736645
Fe 11.385941942331506 13.365757720681106 12.287761891563918
Fe 12.634322762973621 11.039644590118106 11.272518448742657
Fe 13.222199147988974 9.400042301143532 13.364534107885321
Fe 9.708280692896748 13.848629248678161 10.677410465701614
Fe 9.336559119257993 12.242616061804831 13.401344406015667
Fe 11.632657534114976 11.205568337123683 13.57924294378729
Fe 11.548770710950398 9.4363503712638 15.197367861555119
Fe 9.351729954842499 14.45160228336694 12.86689898336859
Fe 12.583918476167938 9.379205166648552 7.597538103209555
Fe 12.346819085719128 13.68662408034246 7.746618929689433
Fe 11.961043499451275 14.721728953819557 9.961754548131879
Fe 9.436588314078579 10.883833713521167 15.217761222180062
Fe 11.361639209169002 11.570025689916022 7.431001367064163
Fe 13.508691894868942 7.384031150775878 11.948373686209877
Fe 11.51624926954907 7.7074673326434295 13.573714345084134
Fe 9.93549845746482 13.706500169459813 8.217280732028042
Fe 9.827983712977408 9.443300146033668 13.368670914724063
Fe 12.950310487905114 8.867012383062432 9.8310879103994
Fe 11.442514056749486 9.021072169841721 11.616473003105114
Fe 7.757797495730246 10.609368894397491 12.80962975620662
Fe 10.18986670097193 11.26760573356628 11.507339999991656
Fe 10.898897194726862 10.261497305638466 9.383508913598806
Fe 7.819543429344243 12.621152489183388 11.56056157332887
Fe 8.823260831231114 11.823090279859727 9.42240055893199
Fe 10.277071770467662 9.224361795557275 7.092931181311827
Fe 7.7480105729039455 14.273691339654162 9.55930552980488
Fe 9.008947716985439 11.259829949813831 7.126452007161779
Fe 11.722500778753593 5.815859921815501 12.34084544210054
Fe 7.523719303575584 13.0923562933878 7.635872604236099
Fe 12.126748674076643 6.643912526338488 10.237438766072213
Fe 9.99983435696241 7.205540704554946 11.613878280541718
Fe 9.0686056982775 9.352581052575287 11.03300952383949
Fe 10.427437830690277 7.9814661974328125 9.292042883150243
Fe 7.0094664039899754 10.439522432256382 10.476531928965782
Fe 6.211515140777689 12.517773685843743 9.760003094212584
Fe 8.531605105672458 9.43176131430335 8.704820741869248
Fe 6.753506203226259 10.900112132439375 8.052211301067135
