46
Energy = -324.58651406 eV
Fe 9.722766655602308 10.732573164161186 4.200893003511249
Fe 8.81514306278263 8.57733414988688 5.106969586334842
Fe 11.439903684474618 9.289446498690019 5.322500882541425
Fe 11.677580567902531 11.682496027947945 5.92939463221269
Fe 7.612316329036853 11.060765336151546 5.492501026616852
Fe 10.904660256986093 7.019005223402742 5.1351550520451115
Fe 5.727348824732915 8.987680365935194 6.353998232289646
Fe 7.427316764601356 7.13254810770546 7.010739897038159
Fe 9.75937680769708 10.582480190873472 6.442377309752038
Fe 12.48388181091639 7.8034754069831855 7.002649365084418
Fe 9.090076415850286 5.843651467143656 6.012045644539242
Fe 11.901415317484547 9.97250216177632 7.720231554852151
Fe 5.26821946043062 6.32077791092987 7.980819093731182
Fe 7.78280094118504 9.537589149295275 7.173882766773151
Fe 8.24364497228733 11.99838067335286 7.934755674170024
Fe 5.924060021401864 11.015655945126326 7.873974343934874
Fe 9.957705028384598 8.10779466696097 7.055081254676432
Fe 11.304685781828672 5.885905919854245 7.327016031856173
Fe 9.392092428248757 12.814843810296447 5.8791370989578855
Fe 9.293139713573893 5.959007726101572 8.418419053564818
Fe 6.046009666620237 8.435448042725595 8.69781134832871
Fe 7.226563875448127 4.793390605526414 7.8423799924275635
Fe 9.77699797807523 10.095780594415865 8.70296534808558
Fe 10.70101318675039 12.204769858082047 8.119318696734588
Fe 5.881582727833308 4.711690353018284 10.039480566360876
Fe 8.515827005204212 8.181442271602341 9.006204767658662
Fe 7.181657841344479 6.446135861265548 9.513556865778737
Fe 11.080787476102307 7.889513920773546 9.195413379643067
Fe 5.0493133285566705 7.147563824765764 10.447305421602708
Fe 7.560972742705352 10.225437867463098 9.563392897463112
Fe 4.132405853345404 9.530036213128717 8.264680018661517
Fe 8.344471953715502 4.517770555092796 10.340012454451772
Fe 10.988160988260134 5.580609106342141 9.987247797014117
Fe 5.366968004951527 10.202047828130036 10.34244414142738
Fe 6.800801204293629 12.31078349814408 10.056629530047672
Fe 9.238499901661218 6.82014599951752 10.826409471313024
Fe 11.453610277746852 10.412769916908104 10.31614039703403
Fe 9.288568627954332 11.86471566814145 10.340092051224342
Fe 7.052327067109516 8.370391379656375 11.082705065709673
Fe 9.407206581163397 9.2592513316115 10.971230909752137
Fe 6.9369744055912195 6.0597724349927145 11.95204578576441
Fe 11.1682949420436 7.9085530259552685 11.636421264974794
Fe 7.607916841282142 10.700242566706597 11.91644585592987
Fe 9.104808682169821 5.404262148021129 12.523149134200143
Fe 8.592922002741462 7.985621275940586 12.824477903006152
Fe 10.021499414356882 10.872237371931357 12.373794853357063
