42
Energy = -291.26549678 eV
Fe 7.874948555787326 12.505742524860512 13.890935618268884
Fe 9.441811447507657 10.727438256505346 14.9175828099993
Fe 8.72775058893639 14.065105601718429 12.06939712366019
Fe 7.025912679751212 12.33751573266404 11.602089160921867
Fe 10.205207482468019 12.402737339325766 13.451210411369468
Fe 11.778608389441514 10.846913156590066 14.619738871500672
Fe 8.360989913236947 10.37349677650046 12.918836839589591
Fe 9.916550927246822 8.617718321700602 13.961892893669852
Fe 7.68035747203786 13.919766157194685 9.913061930741335
Fe 6.080110892410252 11.861361273804441 9.51661014253033
Fe 12.624279931961988 12.277127402148627 12.793676410155767
Fe 11.072511136721216 13.99390663748041 11.866922252288624
Fe 9.334367733141647 11.86197299028201 11.316684451520274
Fe 12.267947515658378 8.566046764042916 14.145328875523557
Fe 7.60325720068268 10.096054753692622 10.681713467106515
Fe 10.80209013709836 10.238492664757135 12.424787131605266
Fe 9.119236136760449 8.382459761910141 11.612252920356335
Fe 10.007498210451594 13.62585379454686 9.759527617849075
Fe 11.678442171712687 15.31219528978583 9.96644598939367
Fe 8.346881128152125 11.806316617491344 9.098744136897855
Fe 13.240117043750248 9.960003434344026 12.561753067586059
Fe 13.833605292261637 7.662080281637789 12.395310978689619
Fe 9.980352629210692 10.056566324399288 9.983907617343615
Fe 11.45575984824826 7.915887605320218 11.986724411804047
Fe 14.116221688341332 11.325440692005163 10.792145736338282
Fe 12.293004643828812 9.601248353627044 10.354929078993523
Fe 13.297391291289104 13.593329519708986 10.809501783685587
Fe 8.550245360451324 8.120450800790085 9.234728759558797
Fe 6.8524349203820645 9.822057985776851 8.554112230802604
Fe 11.63249500912499 11.893179192854586 10.624827247154071
Fe 9.124140093811949 9.963077702074136 7.709142607028275
Fe 10.864083654207825 7.776450127190356 9.621291992076994
Fe 12.218303176650686 13.615645238305014 8.695316164927073
Fe 10.578739567378468 11.85269644918414 8.273268239372527
Fe 14.671446466563912 8.954935696536227 10.595890011048791
Fe 15.044620512292516 10.384281746307845 8.653941659927963
Fe 13.083216466494415 7.0519401290795205 10.269370799832144
Fe 11.355004408722957 9.637105497498121 8.137283250802003
Fe 10.134918698068567 7.769299602704408 7.439174699516886
Fe 13.396233211651667 8.567917902274429 8.489544988170918
Fe 14.73789133799761 12.771682665044068 9.069415389497424
Fe 12.949308627607076 11.269602165848594 8.57850012605015
