40
Energy = -278.55315396 eV
Fe 9.224448892583698 9.719253901247948 4.184160643437194
Fe 7.001970766298947 9.441813417386456 5.042904398160203
Fe 8.372713003512944 7.292221392184652 4.2923886337853085
Fe 10.860221668339493 10.306500824740588 6.256469774756704
Fe 10.686293377410317 7.684577605540258 4.852776131652221
Fe 9.450103738997223 6.225112425944746 6.373507348671107
Fe 7.302787018746882 7.461468380350008 6.488353727829443
Fe 5.85771344351133 11.067872986941955 6.806243644396726
Fe 5.912519835891142 7.115524638545305 4.682810239978931
Fe 8.504063667290335 11.169263519126051 6.243160600634719
Fe 7.266331939809022 5.216814857895434 5.53570313895608
Fe 5.210168081349199 8.683307613508761 6.668696975172942
Fe 9.218802216526267 8.747554603779232 6.211476488332187
Fe 8.755678555361271 3.993212688280259 7.133933858405206
Fe 7.580535939811605 5.7251050195750235 8.033866682185971
Fe 11.286982518658935 5.703131021831684 7.651289826671095
Fe 7.430397276324975 9.527964776750085 7.5622553300012765
Fe 5.251244752672754 6.1586539870988775 6.970811992648132
Fe 11.281979018396083 8.076764746676414 7.261639765508675
Fe 3.7599391988193918 10.188500964269753 7.690338261021943
Fe 6.189931486422314 3.9757215925559257 7.454338120919885
Fe 5.561676857119137 10.01865534074614 9.138515607156634
Fe 6.356754999476596 7.676470803424824 8.711413352363035
Fe 9.600353877369008 5.209180346915609 9.230040646750222
Fe 4.075392178232803 7.985167081777982 8.695708252455312
Fe 9.713760877553877 10.159953420357645 8.338654636428487
Fe 7.896613634124296 9.11282276142163 9.88805804458708
Fe 11.479877467749585 7.029457854096015 9.56824248491871
Fe 9.146162153421761 7.615223697221012 8.451118888598064
Fe 5.421021254169338 5.6276902307860315 9.380405039397534
Fe 7.579944899890162 6.4873426146658755 10.44652009134705
Fe 11.788223616719577 9.437848596377858 9.02029600811708
Fe 7.549638102968127 11.4886486154587 8.817438022790515
Fe 5.752288191467554 8.182051387043433 10.923153891684816
Fe 7.299977499700956 4.153241913437334 9.68172376888366
Fe 9.722278097394597 6.6340676012351745 11.131045639275843
Fe 9.058933630088672 11.043016852533407 10.53320737172268
Fe 7.909064283343934 8.396895006506645 12.033976112627764
Fe 10.100502558740809 8.867273278460452 10.538658504034332
Fe 6.722221770150211 10.534163979719231 11.214210400151236
