42
Energy = -292.08232598 eV
Fe 9.150520832946386 10.911761737965133 5.270953356610479
Fe 10.150240540748129 8.67176225022055 5.566336147618742
Fe 8.453826751391752 6.915504128287072 5.597309944251633
Fe 7.521873089618661 9.18799063807444 5.9663924618081206
Fe 10.799246495712406 6.383199157800715 6.994203061237139
Fe 11.673724301600878 10.660731467105778 6.63288148793194
Fe 9.348181654368963 10.217691565847105 7.38097467697546
Fe 7.235346592351969 11.503758748270467 7.262874258198625
Fe 8.919277180314769 7.804414073261846 7.611411424740996
Fe 6.606232635310667 7.346538229388934 7.578540306019491
Fe 11.254867440362084 8.612537170257573 7.833122088943257
Fe 10.122872264370654 12.39313468167721 7.567131313577383
Fe 5.214270536843889 9.844260587405518 7.650507524272729
Fe 8.695824250068023 5.578044130400507 8.165542746772438
Fe 7.312534861764534 9.43744946763491 8.530712415987413
Fe 12.642749338340879 12.121608627496402 8.560978783510457
Fe 4.947462631133794 12.090596795496868 7.945517557807917
Fe 13.222664096137036 9.774777274822238 8.751089797262184
Fe 11.000136833622488 10.774170417081894 9.093029731940256
Fe 12.571839525556705 6.94834551192503 9.007232176723571
Fe 10.204441414330155 6.918776445139809 9.526725104402633
Fe 11.032587628857254 4.9755730365262 8.978472053026051
Fe 6.250683302276238 11.332627824271622 9.713571910625175
Fe 7.703299869802292 7.310881890859948 9.833955427209837
Fe 5.54934964136257 8.661262836272412 9.960746784804963
Fe 8.651372455513277 11.515264365391843 9.436801245329436
Fe 13.462279310563463 8.208152938324186 11.311875616693705
Fe 4.0700238729605935 10.466525057347935 9.688260554149569
Fe 8.98310051658996 5.7711712830009 11.112695732293288
Fe 7.64557522832362 9.637012279939997 11.032817041588554
Fe 11.582039845435187 8.739047024851127 10.325010081272765
Fe 12.561123792159476 10.854265126584918 10.933272693433796
Fe 10.645240985158924 12.590400450954498 10.469704448357051
Fe 9.403101760943091 9.121265185396492 9.534440494692541
Fe 8.035562583603635 11.824710471054063 11.711671978633346
Fe 11.603821795862968 6.6837932887628835 11.490417007412724
Fe 7.223595649839527 7.60984329042905 12.123083639114098
Fe 5.612427720432972 10.200735648529943 11.79333561534097
Fe 10.02847441105274 10.54200672512655 11.40902339364371
Fe 11.419262988406183 9.061701232178075 12.62933463067043
Fe 9.508152414297752 8.005182118203493 11.675504340617575
Fe 8.790396432552384 9.60113029332222 13.15214441738533
