43
Energy = -299.16838043 eV
Fe 10.950499198131405 13.563286223054272 8.000703904660657
Fe 12.174178977676712 11.336855652388218 8.051732978577835
Fe 13.348652001365686 13.356357086545433 8.427318113215595
Fe 9.631255023023167 11.623477602229242 7.995536902373224
Fe 14.534292686771314 10.82989844048957 8.68091194451699
Fe 15.558101695189915 12.637121688775606 9.349992292361833
Fe 7.967666315144437 13.423247629828008 8.147446780504048
Fe 9.545076971533199 13.845719910333996 9.834962495498258
Fe 10.747858294622134 9.415815150245828 8.582119555273232
Fe 12.73219561238121 9.983946451663321 9.985259659502647
Fe 11.79145015049563 14.375210863690304 10.12407843155329
Fe 13.219368013606822 12.318043665963499 10.489662439438192
Fe 10.80305521208682 11.645449600832036 9.987037720357545
Fe 14.162215794250551 14.58108716582688 10.38416221086384
Fe 8.769410661449074 9.956014887311813 9.743525105800577
Fe 14.955918721246528 10.71521736021274 11.138264989221621
Fe 12.09687615190648 7.738405550379539 9.519812621598849
Fe 14.359467617358026 8.466854136939268 10.369680138442066
Fe 8.058938078687314 12.066207954279209 9.854865607374565
Fe 15.313236325110648 13.062277334753121 11.74440315733361
Fe 8.450545963256856 13.97397854626457 11.903221711827742
Fe 14.032420735971051 11.766451053261232 13.205344336441637
Fe 13.03124634167028 13.87629693361813 12.444172176040704
Fe 9.74597899950904 7.6346254144782595 10.061245103153981
Fe 11.939033009941921 11.190452386984724 12.223052359490207
Fe 10.745188722044166 13.259591090376121 11.990084295942262
Fe 13.44157705204288 9.347633911656652 12.401751638904377
Fe 11.149000793722541 5.792035727766863 10.744910281669027
Fe 6.5086801729982335 13.28539276851433 10.737792781580275
Fe 9.179171770747905 11.372640210269383 11.801446319857096
Fe 10.77915036857674 9.3321609321225 11.260385468201267
Fe 6.776611587398702 10.695003777383901 11.24784150829135
Fe 12.398139986873526 7.214614342362199 11.777687007608062
Fe 11.64368786068894 12.618461431858021 14.178841964904105
Fe 12.587689730707055 10.429537639627101 14.545987374473551
Fe 8.459296664346933 8.957499626545285 11.937937539986061
Fe 9.049832606991705 12.650710167168535 13.861896776482126
Fe 9.971632177917213 7.197363393353987 12.407360746104725
Fe 6.8451794585111125 12.372529516545812 12.884955937555572
Fe 10.217805482024605 10.513506791062923 13.811697127480901
Fe 11.47214719827651 8.585747823085569 13.59174944647027
Fe 7.774308178049389 10.327299211792944 13.679296417762481
Fe 9.168950075460272 8.390755515027573 14.285117222773138
