42
Energy = -292.64877267 eV
Fe 10.175780076696256 12.034277869371333 6.766483473826252
Fe 8.321329642180737 10.684934918869995 7.3571033449268555
Fe 8.756645685919587 12.761841338573939 8.478450999792202
Fe 10.305585955216346 9.517689940411978 7.700035150369575
Fe 11.673998947298923 13.328743342826352 8.50228550116693
Fe 8.31988246408288 8.440396547116634 8.468085170332847
Fe 8.17643544757271 10.644485711736777 9.661346694172044
Fe 8.010261076867247 12.680944900616334 10.934488319211047
Fe 12.20751214435118 11.003913655028954 7.113814298187441
Fe 12.352120121575238 9.312969546511397 8.787557011623546
Fe 11.98267227613984 15.114308278168142 10.21296967210031
Fe 10.570716248130305 11.394069273183758 9.155012280246623
Fe 7.008208820345477 10.618579883614363 11.715787523791581
Fe 7.689768013992544 8.44147146968592 10.804649952514897
Fe 13.291068646415937 11.627459921525022 9.101397732806605
Fe 8.884204542518956 6.616019244629692 9.89331849351577
Fe 9.830844905498836 11.234818554900858 11.545853718470381
Fe 11.854800650350116 12.702409414266889 10.903844787648998
Fe 10.024833338710604 9.119169443939352 10.298114072853593
Fe 9.904445085096652 13.853985227609655 10.3378567492093
Fe 10.800324889428644 7.368717640738333 8.852395952261
Fe 8.29319408189897 14.428748058089129 12.44244232664488
Fe 8.047018852966982 12.011147928537023 13.29167680278319
Fe 13.894550189437012 13.684725936270286 10.401112455528615
Fe 10.231288778707636 13.205878588669071 12.872942369031527
Fe 8.667398653940001 9.460247302481005 12.783919160707544
Fe 14.307221390736222 9.498887155459162 10.117048409372202
Fe 12.403897775707716 14.12486025716958 12.58441588971409
Fe 9.852322543202146 7.349547543326123 11.981161407520435
Fe 14.182798999919115 11.517510774180737 11.486214664654275
Fe 12.134531129715949 10.403496760653466 10.880542576449631
Fe 10.39891613757518 15.417598562459933 12.022253741781595
Fe 12.285764644268793 7.985590693726385 10.833200971326454
Fe 14.448789476143972 13.139633652914736 12.95689548956953
Fe 12.213997936662784 11.749817637257543 13.088311434499522
Fe 10.046197167248696 11.06343687234733 14.08243156639174
Fe 11.098335542733132 9.340646776685974 12.706524862051769
Fe 13.627554491894154 9.325856571522701 12.558584924021787
Fe 11.254985870638007 5.9338570470165 10.78881096861026
Fe 14.338612245979032 11.079003888714128 14.04846916771877
Fe 12.392980393889175 9.770811124157655 14.559124612997802
Fe 12.082208263648752 7.26232932716953 13.04703277696589
