45
Energy = -317.67593114 eV
Fe 8.571493376290315 5.722494253235144 11.085313323310809
Fe 5.455343165906385 6.29534613609384 7.89200286276349
Fe 10.151655885864617 9.409591325254826 9.833673147637848
Fe 8.096916234822286 8.0994885091045 10.476038048957305
Fe 7.003682003058765 10.151950480092536 7.435268620332829
Fe 7.220067588660578 8.166352636034635 4.401571947050153
Fe 7.3453873152945155 7.51909523593219 6.616546133566507
Fe 8.751312598859535 9.732240140372257 5.802877739599643
Fe 5.697983857960548 11.114207886697569 9.505595057021857
Fe 13.14779465808324 8.231915174279928 7.698695682804776
Fe 8.606955093116765 8.560001367279204 8.149949782778089
Fe 7.630810930438249 6.414618372906951 8.792528354176202
Fe 11.163139059046472 5.633481063558902 10.707093341956165
Fe 11.825293111977077 6.103652014202791 8.21493983970696
Fe 8.214909936460101 5.777909698808761 4.977948436464862
Fe 5.202349339548662 8.316545002913069 6.352757179727679
Fe 9.599757084398249 10.845346432590402 7.750979337312429
Fe 9.650644067367848 12.04641880552984 12.620774035116044
Fe 8.755067709930088 9.895855729651872 12.0140545639656
Fe 7.529952831580464 11.916606728635227 11.229234740454492
Fe 5.724711014658873 12.12670253420287 7.119296239981098
Fe 10.844353195159664 8.438983520138247 7.576789182653595
Fe 6.229844706319561 6.684008938486443 10.761080599933644
Fe 5.892878938446092 6.189210327028026 5.3397568813926055
Fe 7.722234821493152 12.411988034497552 8.594079953648052
Fe 9.64979037116454 7.705345368351146 5.151619054761062
Fe 9.943143944668064 6.997389115018978 9.385591173408693
Fe 6.040739099927137 8.495395470523327 8.900328134770268
Fe 8.039951038258883 12.002547089376208 6.194765537444617
Fe 12.114960353403434 8.00208497568107 9.888016067687516
Fe 7.8861247458109 7.582368844122539 12.693641554212245
Fe 11.796945222222838 7.006939234361444 5.9704100695987625
Fe 6.770079424514225 4.486575193122327 9.57152894000666
Fe 9.76375652822506 11.797465226271889 10.180093521821442
Fe 4.522051393028567 10.141037427524834 7.701378323210361
Fe 7.891871551880198 10.30129184085414 9.638840432768728
Fe 10.235006038721522 7.737942861108623 11.776553406839762
Fe 11.220330408895423 9.704124716029225 5.761056278494594
Fe 9.387826069142166 4.686286578613539 8.99324482253351
Fe 9.55114427475432 6.221997940056637 7.034455425308234
Fe 11.947868460354957 10.275588069904556 8.571707128608002
Fe 7.393064298482444 4.9088498249301615 7.0176595794426335
Fe 6.186660253310271 10.325799282310285 5.3249048305557825
Fe 11.099959149634136 10.160403897613392 11.739751599841686
Fe 6.29971850781017 9.432086355647305 11.331138745322285
