47
Energy = -331.48110383 eV
Fe 6.751786839124572 12.71381406855236 9.384799466783381
Fe 8.937279063993373 12.981120693436475 8.538619316990198
Fe 8.097466358789564 14.333750089768722 10.562386474382713
Fe 7.793877104417047 10.55872621331906 8.789073103419865
Fe 6.879081887214581 12.764884786533498 12.116177666351652
Fe 6.364561996750415 10.772883593196676 10.679491502492496
Fe 10.366781020957358 13.595138814881045 10.360787882662931
Fe 11.971464935780984 15.25656620188894 9.789155563335363
Fe 8.635716922887354 11.936044773798056 10.919004432277465
Fe 9.96170461309063 9.728479430678728 7.243724956523354
Fe 11.78423497722602 12.91077415538769 8.564394753952657
Fe 11.58913948355181 15.039865768179922 12.077462508882597
Fe 9.087729811261093 13.903288297288032 12.629217984012085
Fe 6.862069709714092 8.363026131977612 10.389779638648934
Fe 9.01978189075979 11.53533606594397 13.21608691157857
Fe 13.804098952376425 14.33273780229748 8.78916636361077
Fe 10.084837578661487 11.07651734754665 9.167296325952698
Fe 12.140346962851796 10.642212062115703 7.608997544547032
Fe 13.993328721634265 15.10780076072368 11.384338490554493
Fe 12.858138734798418 13.101963853575777 10.941992759591681
Fe 11.979330480146977 8.123340957811243 7.510100063069913
Fe 7.1567841677531385 10.258121375037105 12.829945326378187
Fe 9.021273821563389 8.37653458227821 8.997681782129014
Fe 14.084166800157758 11.959235924415433 8.61837233923835
Fe 11.24039515544878 9.027948233309225 9.430305033419854
Fe 11.025973261044259 12.676641585427713 12.411639812233982
Fe 8.661060590272431 9.542690949797242 11.06280662038251
Fe 12.907431679255806 13.642141332406847 13.408863410938887
Fe 12.29310559960759 11.128036965565519 10.089071467532756
Fe 15.33816988033247 13.448952376651283 10.292085098247682
Fe 7.872685113136095 7.795225034866706 12.645747754504544
Fe 10.771910244592261 10.441683299874985 11.74470597074352
Fe 9.50359578771096 9.177524034323024 13.560773965547172
Fe 8.717099423654298 6.6567435571931 10.775606495269063
Fe 14.828277817987184 12.8084727582693 12.437428464128102
Fe 11.242900401285365 11.183575091186961 14.130109057829191
Fe 12.936549982428337 11.17202383673694 12.56949333499907
Fe 14.612182914403899 11.013547071819628 10.711192036874689
Fe 10.558864890718917 6.560300422116994 9.068633928011744
Fe 13.71798751866982 9.315932714332762 8.95095490641621
Fe 10.557805842425083 7.974790724703167 11.406225336722269
Fe 11.871955807010789 8.82611913284996 13.416637305368651
Fe 10.227437862186504 6.841069093890912 13.344343908570336
Fe 10.974854735168766 5.637949060873398 11.294200410051127
Fe 12.945088230213809 9.108658673375642 11.267931013010472
Fe 12.675104748111227 7.083722694897477 9.900316618148219
Fe 12.69132443738568 6.9043670008975875 12.328205332072361
