49
Energy = -344.35022464 eV
Fe 14.527971519078857 12.83005479734312 13.741462875889791
Fe 13.359192985639163 13.90864395974122 11.558315789939467
Fe 15.588322119916137 13.02054674569875 11.61708790929543
Fe 14.441110994671426 14.093698341686254 9.51670262120931
Fe 16.72678775454537 11.993029393847891 13.665370271252002
Fe 12.225404844969583 15.074430260157934 9.557082736443293
Fe 12.282314362629881 13.800022575938044 13.803094828016873
Fe 12.393225249512065 11.401271860976546 14.413315480142044
Fe 14.41285383277266 11.76764367648582 10.012009646995184
Fe 15.510190279359302 10.634713403376217 12.088304680138867
Fe 11.109702532752642 14.964513755043704 11.785977473977344
Fe 13.62921741948977 12.905702141083005 7.731328216282625
Fe 13.311340745269792 11.595439490702711 12.160585158469
Fe 12.078903462274347 12.545950386825616 9.624450505668387
Fe 11.471451756924635 14.117829531338678 7.762627756412549
Fe 14.618256610467009 10.520060299202814 14.293109000198767
Fe 10.057480635545854 13.933215520064893 9.901495957392994
Fe 9.928007052701426 14.560370865897024 13.775131109283837
Fe 10.112551080196674 12.30638375059658 14.352309474615941
Fe 13.34766363734474 10.503582804654089 8.279373543128944
Fe 14.25068448295985 9.359166138299612 10.483525266568975
Fe 11.106942565315258 12.587891928342247 12.136482872634591
Fe 13.32715500486309 9.186592378676684 12.763934693413415
Fe 11.079407151942252 10.170124269587058 12.76482843547545
Fe 12.43248512480044 9.082828473499838 14.938855823936139
Fe 11.706872157188352 11.674276216914636 7.048142302949258
Fe 11.753812097156777 9.05325149383484 6.941244923170536
Fe 10.194426495006956 9.868035469557878 14.946329292409285
Fe 8.858769554954709 13.524485398717559 11.93173709663073
Fe 8.836261778098136 11.082035181628996 12.699378991390953
Fe 7.699516371981509 12.951369680335791 13.930486736947836
Fe 11.679123446415165 7.99179254082227 11.096802321069617
Fe 9.701332659508447 12.357325792775555 8.118571164453611
Fe 9.83640925397091 11.499393934799137 10.51108135897718
Fe 8.13161078057684 10.914946983720865 15.033605887295822
Fe 12.12766928441503 10.305299019777909 10.559460648607836
Fe 12.646807960164052 8.32791750814837 8.870119250569196
Fe 9.582600052005644 10.309930231243113 6.743233010293764
Fe 10.821308681312006 10.18155086412216 8.695293937471217
Fe 6.665227360370509 12.23240247546596 11.901876602963387
Fe 10.989102620521425 7.91039841850865 13.448150853763869
Fe 7.838438522865976 12.464967735264489 9.837656919477782
Fe 9.644555428868092 9.18599886167203 10.968298721527974
Fe 6.617246975369826 10.289250834099132 13.348981986094666
Fe 8.777229702584702 8.78717744196378 13.240812493644084
Fe 9.610328777973105 7.010529072829131 11.483974954140567
Fe 7.425157760684871 10.13546639150188 11.003935585522143
Fe 8.495634764614909 10.26649515407555 8.92036531552028
Fe 10.194252684559785 7.974314926264133 9.156015895436232
