49
Energy = -345.56665711 eV
Fe 12.421679440123004 8.384109487234868 6.105388700153672
Fe 10.357324849832903 10.06182325434485 5.240245048147794
Fe 10.201727588916432 7.261288120176248 5.807806560647747
Fe 8.211363335506883 9.261644946219095 5.924161821547926
Fe 8.040838339448815 6.899602452590241 6.90221939969296
Fe 8.04553771066541 11.575315427426196 5.503041701112196
Fe 12.322547709787884 10.824935200243281 6.805781487333753
Fe 11.918509268561765 6.674602752063612 7.787160819284482
Fe 10.816104533970059 12.923085897263169 6.811505987600243
Fe 8.103419161653989 5.1585620974805995 8.873957532240912
Fe 6.180847961487161 8.553844795878181 7.459929288263883
Fe 6.867346954778636 10.93727715752381 7.534275416978671
Fe 10.522273760974143 9.015694301741382 7.256204308616335
Fe 9.441725056381095 11.17795996160202 7.2066194735973195
Fe 8.324731158639398 9.10480894148862 8.304973572618009
Fe 12.628455423901908 8.921725446964851 8.491798408317848
Fe 5.961883046488994 6.163740376470404 7.792475010192317
Fe 8.029277897683787 13.025173377696392 7.819206232188263
Fe 12.55644145349067 12.937410224612433 8.390231310060106
Fe 9.985430515523635 5.205988666050608 7.152058798552077
Fe 4.655424219958681 10.178953210467514 8.431701437831375
Fe 10.1868052647041 12.991560652970625 9.227648380962469
Fe 9.763252159104272 7.053696807839767 8.526208365270513
Fe 13.67646633643601 10.981330516682197 9.102375704063189
Fe 5.003019617138484 7.802696103584578 9.444103437280715
Fe 6.140376209029529 12.08460131249937 9.567553503987499
Fe 7.348887386705696 7.303400678498779 9.428627982476614
Fe 8.496039048871266 11.155851483879061 9.452905228269572
Fe 12.344028509121454 9.793423662235206 10.835882465664005
Fe 5.779541606179111 5.493689759260497 10.089998104786693
Fe 8.015738491768142 13.39933864911808 10.200153158388066
Fe 10.460091663431767 5.188806227121903 9.719747752896486
Fe 12.17040139152224 12.22083056949496 10.752184965555067
Fe 6.397597855212651 9.703940477913589 9.909234263530191
Fe 9.289786913527603 7.019347687329589 10.860862284311057
Fe 10.30105208194403 9.052645199059706 9.772452698283578
Fe 8.337267210780281 9.18329784697826 11.049721206641234
Fe 11.727189512959129 7.208483105804771 10.28633796726375
Fe 11.206231748976917 10.960166158051436 8.859047760495331
Fe 7.889829766942733 5.32424688906662 11.313861014627319
Fe 10.036578321775023 11.139527742566512 11.234008494780504
Fe 6.524605236501552 7.339205167349554 11.548565544955546
Fe 7.469941826169004 11.483324414037424 11.618955920936386
Fe 10.419440349054963 5.897248237289245 12.304469236106387
Fe 11.540401859703337 10.707972613394952 12.922714809318062
Fe 10.56843945342454 8.665115691034314 12.211379978807562
Fe 6.622121177884982 9.480103295306556 12.599180358913387
Fe 8.415635579664729 7.638281662782264 13.021954437511425
Fe 8.96094001728721 10.164917276906525 13.22371864253384
