48
Energy = -334.67862648 eV
Fe 13.265029469465377 15.270307048397624 11.003408492206404
Fe 14.82688804488867 13.612969932748046 10.09178651595504
Fe 11.788880975103353 14.31095295100822 12.534444416963263
Fe 16.582666220506155 12.213346392747722 11.007365352053872
Fe 11.157169486230687 14.942527721789373 9.940863253402405
Fe 13.0505598449725 14.223319239347848 8.705407192220141
Fe 13.260750059213212 15.348616213098579 13.77622424200571
Fe 7.360210218845288 13.866341592344469 10.970152556948824
Fe 13.534871905475612 11.752312657624053 9.114348982863236
Fe 14.510157942153405 13.785384859869286 12.402054868202049
Fe 9.026940541364235 13.873018732157917 9.286155095174518
Fe 9.714292149584839 14.122389825859589 11.665333662071967
Fe 11.997470911905 13.520115640265642 14.835510754581323
Fe 15.750803038659736 11.98699870833917 13.37560841768679
Fe 10.016288727375484 14.475703449345314 14.13573660763263
Fe 12.459264746472847 10.067131144904232 7.903125669939764
Fe 10.22959068154617 10.037292623127906 7.415144879880038
Fe 12.216152028042124 12.859309816835315 10.795862227247655
Fe 11.135966350324894 12.855880337669218 8.386417534004938
Fe 16.69541863353457 10.177567695214222 12.140570189810939
Fe 9.016782040945301 11.782968142364952 8.276516909719675
Fe 13.129088677128955 12.087585989019296 13.317374049204343
Fe 15.649980031301018 10.249986341540952 9.691755411488028
Fe 9.123828888310605 11.893393271074576 10.973253298420824
Fe 7.147807952552405 11.792791301688773 9.64486814951755
Fe 10.667638296371763 12.063924527707385 12.952935380297607
Fe 11.690332979374201 11.343876585462048 15.457978561747586
Fe 14.471622336347211 11.398726092462166 11.310205682079697
Fe 9.553264946000722 12.3142361286548 15.088431830237402
Fe 12.350943332198142 10.5784818429863 11.550488320876534
Fe 14.47864912680965 10.002244094627695 13.457323891625348
Fe 13.355112085911767 9.273798757401284 9.83106483543887
Fe 8.194645917929558 13.212558936621702 13.212964405411878
Fe 6.561613412172825 11.881739983717093 12.002840795228908
Fe 8.988240810589676 9.740175467943033 9.48205854048775
Fe 11.10541278025436 10.908669503301796 9.605575209505815
Fe 15.12256931319343 8.722981456548473 11.444331366031836
Fe 10.188844150746345 9.73659969330236 11.786111208088675
Fe 8.367470045062392 10.875153198354466 13.192792342192368
Fe 11.035701239685116 8.493070585189255 9.221901216701589
Fe 11.949737607589366 9.905025034506725 13.689523586570347
Fe 9.842161978506718 9.854605264134877 14.594489993852683
Fe 7.538333238048581 9.77541678788685 11.242877195554883
Fe 12.910448975119975 8.472677765358602 12.205165283354056
Fe 10.716036751797471 7.843128598755351 13.182507476235367
Fe 9.206099312687856 7.7048199351359195 10.905828025897906
Fe 11.473103716260557 7.209404382059589 10.991341746523728
Fe 8.430581432810694 8.425897100871126 13.047397728227384
