46
Energy = -321.09704441 eV
Fe 8.831141556340707 7.205071316968698 4.6184065444643965
Fe 9.565114279508254 9.629246620192019 5.094403107898994
Fe 7.141775444228965 9.022576042080937 5.247827486321142
Fe 7.749625666231423 11.734060637575515 5.480596905702614
Fe 12.48885974785311 10.856225641936566 7.245177555089238
Fe 5.040936862766316 7.829947903504275 6.212518654103829
Fe 7.0182433108944275 6.5157613012983395 6.165226758038263
Fe 10.975965879263594 7.4101068853658685 5.964008793191391
Fe 10.27504984644634 11.675957023417277 6.185942359109467
Fe 5.829921162443344 10.50613523025752 6.518388293811479
Fe 12.699951653060499 8.124934795484563 7.401774062190738
Fe 8.85913450782695 8.098056209342305 6.707334281612004
Fe 9.4082252999087 5.6657773365394135 6.64562456785344
Fe 8.330004613635538 10.522476075615835 7.22289018660928
Fe 10.68360785918318 9.549410050550192 7.280888605409154
Fe 6.61689508121014 8.593630896106397 7.606638533742834
Fe 9.06903356146779 12.973423248603156 7.582539922040334
Fe 6.8509081970161185 12.33282972966913 7.753544169258641
Fe 7.26620497333529 4.6801988879058305 7.815217397484764
Fe 5.610372374448223 6.3830046788138946 8.339107257498572
Fe 11.55128338427614 5.653044002012707 7.79880230102335
Fe 4.648641996474199 8.520070460535688 9.02120746159146
Fe 8.137219688428399 6.698009512748469 8.450201774903231
Fe 9.50202430040994 4.977130105495716 9.072706140765648
Fe 8.484762952185966 11.465837591808306 9.571758958242274
Fe 8.628253350328343 8.986165322114356 8.89314680215636
Fe 7.161491544964825 5.519928890105423 10.319010674576045
Fe 12.854297382752497 6.849888795463439 9.315858132197599
Fe 10.52005358828383 7.622110712341616 8.74752367542691
Fe 6.791395609411783 7.960681911019396 9.93129884192006
Fe 6.424988711345254 10.40363782836045 9.149588329693556
Fe 10.237777442483306 9.833473854422882 10.228339557213854
Fe 12.355368103052644 9.527403343399394 9.300987990740737
Fe 10.7387548691667 11.567644226713732 8.665080105745329
Fe 9.075961465758473 7.193680110713555 10.707251297452535
Fe 7.9016021576965825 9.656476311036561 11.06314784822387
Fe 5.111527018581812 6.726443019557637 10.88711969940883
Fe 11.406880679129923 7.976532834275098 10.991326230673318
Fe 11.54197896177185 10.151245049724213 12.049827048118843
Fe 11.155231346739875 5.6975046369906615 10.423366530280918
Fe 7.205258895093601 7.459140403262352 12.238928229962914
Fe 9.568693688861456 8.722291797197608 12.561933771848874
Fe 6.657589651932755 11.604281932408758 11.093054404949795
Fe 5.471784029586012 9.223766148830451 11.33276743015356
Fe 9.333527324307868 11.176921291632375 11.999333485231828
Fe 7.358849735025701 9.654029151719518 13.23454759118656
