44
Energy = -309.1982533 eV
Fe 12.428287942688213 8.55320827662134 5.120979602384118
Fe 7.475534768318595 10.09660988197746 5.889816283350493
Fe 7.675298881630261 8.01397801489756 4.562761189567932
Fe 9.947232270039985 8.801289057444032 4.811770107210377
Fe 11.405237800368988 9.97684593197268 6.694185634098024
Fe 6.041834592857094 8.059093400726004 6.348586103853299
Fe 5.063312906872175 10.161337468939015 7.205792840485499
Fe 9.632862572093671 11.013681828674455 5.742843974723766
Fe 7.527330263936927 6.038122164672481 6.191521272742845
Fe 11.46359299262753 7.231679400910737 6.467311646091138
Fe 9.549296957992672 6.466789450619424 5.238072206033229
Fe 7.514371460010261 11.88478293414162 8.39292271874402
Fe 6.997854642044477 9.53609903069035 8.122867310480435
Fe 7.719075163046042 4.852296148569024 8.57375956546807
Fe 9.587917735863572 6.227884185167703 7.899180944741861
Fe 8.827597121536801 8.319462100180353 6.798546974008863
Fe 7.131520268638234 7.043481483337142 8.285792770458041
Fe 13.088521954639809 8.57077866971591 7.888059693929646
Fe 10.868150134867971 8.414747804073361 8.420613705025875
Fe 10.441492414245532 12.396287452584996 7.663835061371287
Fe 5.208404588048389 6.07625249746265 7.522053693910212
Fe 9.37124133293822 10.427370463881005 8.087735467637293
Fe 4.815642707055057 8.226900336403 8.701266929258376
Fe 11.837757771127528 10.850567952525413 8.914213212412907
Fe 8.796109737978567 8.24000075865448 9.37277776942382
Fe 5.615870432530158 10.585987278900658 9.773158808756612
Fe 12.028358844931239 6.49105626410245 8.877601909798935
Fe 12.466701204230304 8.744802894113711 10.22249153040288
Fe 9.712758716801812 12.138569625462269 9.9825797686974
Fe 10.168017620103509 5.051789837846905 9.778790201297927
Fe 5.631202690024391 6.222750103554053 10.068542586878081
Fe 8.006538831400434 10.362084344863693 10.24190120736507
Fe 6.640248828241491 8.382872377880462 10.234471868144634
Fe 10.33048359110526 9.704672745476557 10.421002437015279
Fe 8.13147054903522 6.212077983255695 10.492880044182467
Fe 10.454339801340149 7.23884900059151 10.73451170989419
Fe 4.66871976289575 8.629654414390354 11.310911965203763
Fe 7.3466484817549835 12.379323193828855 10.831196374780628
Fe 11.41207785051997 11.362724326578082 11.519971199002466
Fe 8.556463623464628 8.415012593263869 11.851821321260811
Fe 6.587796153107914 9.922300112726461 12.151955555246035
Fe 9.129672782820426 10.924045300752617 12.28548891868937
Fe 10.767584881674935 9.033664568984687 12.554655687372136
Fe 6.397416812954969 7.186066778988086 12.21665066900288
