45
Energy = -313.99332768 eV
Fe 10.627175660385591 14.584414535124909 15.046473720103968
Fe 7.160340158728762 11.854888236906211 10.179321339113727
Fe 10.16978865949154 14.491355161128954 12.831988829290063
Fe 7.288655271022716 9.575281122086034 11.050650144219793
Fe 9.54910300377796 15.390565623032902 10.704299042251852
Fe 8.549444658540327 13.310890835214297 11.579510041812519
Fe 8.041154435810924 11.204710557540416 12.544303364069211
Fe 8.797374597279502 12.965782194681275 14.010547766096401
Fe 12.30120647327498 13.703539728757034 13.30024984946068
Fe 8.954882510484342 13.588054688256552 9.255539049521257
Fe 6.440522208296469 10.319663331216255 8.858434922693105
Fe 7.70784037021102 9.137269823527522 13.493176831914644
Fe 10.77749468113194 12.474249210097868 15.249661931758348
Fe 11.988302886075289 15.242846649889874 11.33309628158027
Fe 8.553936850693692 11.475759487575026 8.203249670110486
Fe 8.621674699575488 9.248933953179824 9.132956007363719
Fe 10.943505463515107 12.606543215809568 8.428017675796069
Fe 9.851495632336896 10.230293843256488 14.218224290967338
Fe 11.175662690498863 14.978634109859113 9.070993806891963
Fe 10.960466047929312 13.194589552813017 10.82545622788771
Fe 9.61164407363974 11.213337602874976 10.327206621612135
Fe 10.437236650052006 11.873572831822774 12.67659619242006
Fe 12.249400558408103 11.263483274537023 14.063589074081207
Fe 12.939814915635063 13.447974971802083 9.609285069226612
Fe 9.427132347521761 9.229872648976595 11.775603603082885
Fe 12.293666243220883 10.87165422694356 9.886248285424886
Fe 11.809265176710179 9.865314845935432 12.069272494160558
Fe 10.601738637421725 10.323530560118368 8.02470863842687
Fe 13.061592297959358 12.086847871771177 11.888195306403514
Fe 9.741120839571451 7.916160568565029 13.736107071155427
Fe 11.972408436121373 8.835648528757382 14.171531772978794
Fe 10.796860448402855 8.83230445936146 9.8852098325571
Fe 13.108558682675003 11.43705460849968 7.844937231265123
Fe 14.734721781513338 12.015579781345734 9.841505280745265
Fe 14.177229429821915 14.076148115063097 11.279058637851367
Fe 14.258942524052285 10.056317643016335 11.34434528822524
Fe 14.118596812114045 10.107586585951202 13.604662538669148
Fe 11.287656588585792 7.546606913572314 11.878473113722535
Fe 12.553340256593199 9.03195527389672 8.047204396255516
Fe 13.590357864073333 7.993125797372531 12.59232839552936
Fe 15.426251451179306 11.914297564150653 12.094182252343785
Fe 13.051222884051663 8.294326613913237 10.267970837160236
Fe 14.641650885938239 9.745139862762246 8.910088906101375
Fe 16.424413210644182 10.457888209659243 10.380808632674901
Fe 15.392315346175904 8.185602630854607 10.629050270367346
