48
Energy = -338.95117458 eV
Fe 7.48524425103004 8.470348982271238 4.578967829449414
Fe 5.43988532939692 10.038231220443047 5.953397824652942
Fe 6.318240213237725 6.4167586728279895 5.386502975743891
Fe 9.466022662534073 11.639906235528281 4.901822743694972
Fe 8.864796944614854 6.519059320259129 5.6686835221683
Fe 7.7759555458493566 10.403285977261895 5.957603528723704
Fe 9.743920731273576 9.20888897952856 4.742954405597335
Fe 11.427965080778689 5.840768479867863 6.297036592058213
Fe 10.39468678505216 10.565096595517256 6.688855146787549
Fe 7.297699856085314 4.6269288595383955 6.402977391383547
Fe 6.587859863853049 8.23271538846954 6.705749885970401
Fe 11.326231846454329 8.292877555263734 6.347988987222635
Fe 5.630038991970479 6.188656015780772 7.910964536179477
Fe 8.595627253740453 12.290106616888187 7.123741028357292
Fe 7.3370513483308395 4.273052090328799 8.724434022385038
Fe 4.593588723107397 8.727955439260015 8.046248800835551
Fe 7.930917608871615 6.462954043028107 7.91278309690831
Fe 8.529057684849866 10.245259511133034 8.361566327643803
Fe 10.488823053852782 11.781432366556976 8.645536694978393
Fe 10.242873876996626 6.830184245482014 7.991126022714511
Fe 9.518788317883905 4.616708439073887 7.401986273492916
Fe 8.966897603133617 8.492605641816706 6.969365185829216
Fe 12.657540275541075 7.404657896943004 8.084852860940677
Fe 12.616594553354798 10.062995807741393 7.926079968149358
Fe 11.73348327983167 5.166817678770536 8.597334944825182
Fe 6.206161224504899 10.709395572815707 8.160497232442047
Fe 8.901538779921413 8.04295260811565 9.862237747111635
Fe 10.808909694077778 9.112185817037258 8.840326598367346
Fe 8.12760807419322 12.318594708611538 9.650749049917057
Fe 6.717927107654493 8.27616895246638 9.000205683884673
Fe 9.305213641361567 5.408682983817325 9.767356124798058
Fe 10.334187209412027 12.618886831592578 11.009882803299883
Fe 12.952754315567745 8.685763658402973 10.071405814185827
Fe 11.9270992214813 10.793483016691694 10.462438160919183
Fe 11.220250747100616 6.914266964545245 10.234358289690343
Fe 7.008893506491279 6.1147505573909156 10.189012312002323
Fe 9.608332990712729 10.462418081550915 10.501782359888256
Fe 4.7974746380841085 7.217308201603494 10.048601104974368
Fe 9.08506042207032 6.802545369964152 11.845464340573956
Fe 7.30538309578504 10.044644113128209 10.426496515294462
Fe 4.96457703351884 9.64936612784615 10.285451089248166
Fe 5.869695439123788 11.91996339529001 10.44576088025893
Fe 10.901344402895935 8.768413517222937 11.578933421964095
Fe 8.077603670140896 11.760804231532616 12.006814961639602
Fe 6.63407542369412 7.996969605647062 11.537211285471006
Fe 10.337555084636792 10.946830250029688 12.716466521082715
Fe 8.575122254075126 9.215351471460233 12.407905613204585
Fe 6.219134516935707 10.27769607872275 12.477775668153402
