44
Energy = -309.92320076 eV
Fe 9.971102723713857 11.108325128686754 6.98897381856545
Fe 9.416817471241723 13.843419955719364 9.947930771075324
Fe 14.51491209427707 6.838910132615098 9.821040381703497
Fe 10.585800118719717 11.438182620087147 9.365585035337894
Fe 10.117952376199076 12.213977389814458 14.256791314107346
Fe 9.590801850955971 9.301482603465551 10.312712720650577
Fe 13.402105335186029 10.529663210229158 12.739419408277456
Fe 8.309094221112689 10.096412835692869 8.452942036514704
Fe 14.308137963683922 9.212093617862518 9.075248536163478
Fe 10.74325739824989 10.512580406300003 12.23764353501814
Fe 7.108205160265841 9.117077597459444 10.225922493557176
Fe 11.959242983091501 12.373410795720588 7.231942480917406
Fe 8.077691629382116 12.415725690642926 8.360328396520687
Fe 11.83678269834869 10.47944086368873 14.619630162291967
Fe 14.191285417975635 13.390986585433978 10.106333192950457
Fe 10.386144084788302 12.884249011399222 11.86461994334249
Fe 12.285409358909906 12.585388638316816 13.488997350734062
Fe 13.259751103911857 11.4980163519039 8.949374374161172
Fe 7.090054262202623 13.700705688239912 10.147017190673054
Fe 6.370620139108937 12.326754406268556 11.9237275150706
Fe 12.55644990019515 7.0681405020207695 11.170501796625775
Fe 8.260939794549 13.723876546674877 12.277820020498408
Fe 12.58361995951028 7.660595785964309 8.644807838417549
Fe 12.19001764286766 9.450723152108495 10.380616004098384
Fe 12.359144734924977 8.527044735442272 13.218487174254879
Fe 14.297423090809147 8.64405425661688 11.43470350800876
Fe 14.713369282263946 10.929029804552172 10.740041490513297
Fe 9.9913351054502 13.548033493363945 7.659490431788925
Fe 8.473469971422194 11.487525175261124 10.786664720671613
Fe 10.527873311863855 8.962133363856045 8.178870943696472
Fe 6.301092221482258 11.356468950756708 9.732714433734376
Fe 8.4351763188028 7.169357798261643 11.005772429990248
Fe 12.409509867834577 14.286500741451453 11.688732272160195
Fe 6.127499142912467 10.018267996613655 12.19265792121171
Fe 10.453050990472725 7.943896114841772 12.148023652680468
Fe 8.331413897000928 9.236207387242647 12.307591234266882
Fe 8.491780994641777 7.676797627968937 8.662181491706512
Fe 12.434162957021696 11.917247564039062 11.092734599760217
Fe 14.398364302270808 12.787865035868927 12.3674219339908
Fe 12.445674881569076 9.913423780005052 7.45783642787398
Fe 11.829101934042546 13.612272372632164 9.408471162651823
Fe 10.625632605822748 7.154687587959763 9.826577784650947
Fe 9.802212252201544 9.478799795283129 14.164951902169888
Fe 8.275569310910715 11.419299763836442 13.175201029113714
