49
Energy = -345.64875108 eV
Fe 14.472257081974954 7.779941724390034 8.878839023220634
Fe 11.23037307670969 6.571747617223505 6.193376531583975
Fe 7.497111077954322 11.265544305497688 6.544289521847463
Fe 11.820117932857746 10.100496808619274 10.911288159898625
Fe 11.836617625868904 11.026459946991215 6.551231826107217
Fe 6.567240075473562 6.874221288883789 10.538531969994278
Fe 8.710572964886426 12.580193632781402 12.743255983508915
Fe 7.154057934635105 10.440572427959717 8.911608934190834
Fe 13.818048351938865 8.90665527232476 11.237164011217974
Fe 9.16352167181411 8.466711270813317 13.081230140443203
Fe 8.156242192961198 8.10364775689464 8.969669232836354
Fe 7.495207183856239 10.404222378687003 13.154822989970164
Fe 13.49826865493907 10.124310653936652 9.068217391605087
Fe 11.659940968660356 7.847998440314083 12.097731039231702
Fe 6.652130197571627 6.48555645153784 8.065733977610003
Fe 7.773912524359945 9.099745893351296 11.04638671790704
Fe 10.505479975381833 5.0857487442811635 7.891667309880278
Fe 5.649307006440392 8.630426553760785 9.201419939583312
Fe 11.245366734087765 12.131659989173025 11.927475672862641
Fe 5.655890345308214 10.070399547379532 11.268202538771856
Fe 10.74835100236588 8.931220399191938 5.947064724547497
Fe 7.629015770047182 12.74248466709354 8.771336562307152
Fe 8.768255997244594 5.926227350949124 9.226521761728456
Fe 6.748512640187228 8.664376514091922 7.029634316642974
Fe 11.721035151814087 11.966295434542609 9.410048553174567
Fe 8.76465640145937 7.042153545053279 6.686292297023852
Fe 12.304452852777315 8.070680414223977 9.616961938611766
Fe 8.722360200178906 6.699388477039205 11.588057145052792
Fe 10.084102258359128 8.278140221979317 10.493951986585774
Fe 11.300932868655144 9.871034702596859 8.353836415256591
Fe 10.969271892988727 6.001838424512101 10.26215052147041
Fe 5.591147123665817 12.077876704365142 9.966099676142926
Fe 9.735225186204286 11.087267522556491 5.445959082466023
Fe 12.61056323766392 6.084452046618329 8.370027730361343
Fe 9.023700137658725 9.616633143016323 7.385482096658966
Fe 9.44318737819118 10.400131471609017 9.683832444232307
Fe 9.750625040250451 10.40543465590401 11.989059800977799
Fe 13.28518472803376 6.44260216096281 10.90779924953865
Fe 7.797298978525227 11.475401209725588 10.9822009063318
Fe 6.0281226527550915 9.99207229044652 5.283820580918645
Fe 8.304445499677232 9.10719201173408 5.1677843751472805
Fe 9.746477314157133 11.843843699578661 7.870558116073532
Fe 10.515285646854611 7.551518940342773 8.160400423339594
Fe 9.637233485227357 12.737894337092792 10.304547489194881
Fe 12.824450922699445 8.353607037900016 7.270091785792903
Fe 7.373148219848563 13.758531058877782 10.994000622880474
Fe 6.756789340823384 8.02705137347217 12.753056936831301
Fe 5.347277840477261 10.733247718069734 7.545609040086899
Fe 6.052437691817272 12.260352799942387 12.396881546639536
