40
Energy = -276.77929173 eV
Fe 13.750966961952019 9.028671237954827 7.959377838561845
Fe 14.165595476167393 8.239797608301853 10.76547604483117
Fe 11.59231582838457 9.182660937771008 6.9485341107372856
Fe 11.120012049471905 11.57359404551976 6.596074955396435
Fe 13.203594116201383 11.343707944704 7.7205868956543595
Fe 13.619894325290115 10.305056367943079 9.93643183374895
Fe 12.163512002784376 7.997181315790027 9.303807345133524
Fe 9.827834015813778 8.127541841345213 8.372907038451919
Fe 13.167728085521032 8.677799707675309 13.35795741134756
Fe 9.402953214515879 10.485551185296517 7.75355664066794
Fe 11.383666267810339 12.738481516685699 8.813754044669759
Fe 12.489233027263232 6.994920944191375 11.7225085447619
Fe 11.450889949276116 10.294260426872134 8.977313345088014
Fe 10.394575285373923 7.063603521801761 10.664380064128872
Fe 13.503688285851046 12.616585285355992 9.995636041310343
Fe 8.04508230491694 7.2866064829425525 9.760213171001887
Fe 7.68361898432631 9.568090395104438 9.084874788942402
Fe 9.237974110216856 12.797022923601805 7.450317092932443
Fe 13.876485352266483 10.856657322135638 12.190152972283425
Fe 11.93874921592276 9.224084431552848 11.381461524787214
Fe 9.600356611413517 9.30859907879513 10.592372395829162
Fe 6.813002446020318 8.703816005785962 11.209916718268412
Fe 9.33334940967946 14.058112133592731 9.476413272859642
Fe 5.776576877094168 10.416907138402816 9.882429008241049
Fe 11.608016050904531 11.597398416500617 11.112903348995179
Fe 13.451538641724316 13.15357076322972 12.340257926343268
Fe 9.413565659653251 11.71050794667354 9.90704027459312
Fe 7.287447359484152 11.994294737326651 8.871040718690292
Fe 8.571756968245701 7.286306745288778 12.131083047735748
Fe 11.331713320489317 13.889721667478131 10.961044740832223
Fe 10.593246464797582 8.456551154851773 13.089723697020922
Fe 11.837642886792189 10.442327823807828 13.444528678421623
Fe 7.454797918587987 13.439994786126276 10.746843112579857
Fe 13.416242603673286 11.875756489632902 14.263288287326402
Fe 7.565021727842216 11.06677631817982 11.354783619238841
Fe 9.755770790966885 10.848620935514916 12.477327968944998
Fe 11.280774598824992 12.687567973112014 13.273675305988567
Fe 5.431885919794332 12.290840292063915 11.075822053948777
Fe 9.353948170166689 13.090744122764036 11.928697665321842
Fe 8.129771557203666 9.31641614431201 13.08261173767463
