43
Energy = -301.36812387 eV
Fe 13.035262886697533 11.106010419559428 9.61497400077766
Fe 13.110406234138374 13.118258058252177 11.253457781846894
Fe 13.752265951884223 9.551618453450386 8.000771958176374
Fe 14.637679075732706 9.064591038270143 10.255255567963122
Fe 12.053808644988862 13.179226331137068 8.988293942218052
Fe 14.661821302310447 11.161919629734989 11.283206799079625
Fe 11.831236945237569 10.908126996866987 7.420608134811696
Fe 13.418962680655449 11.481164378825609 13.175361586626824
Fe 10.783115064332037 13.799093401541356 10.89486692483422
Fe 11.4952972916339 11.464373320324949 11.443956167769727
Fe 11.980262504762553 8.628628425999363 6.749630482859965
Fe 12.98624626970477 7.578590388623266 8.943036484716105
Fe 11.301799082644052 9.311190935220282 9.23834535450202
Fe 11.29481322954023 12.907870870842684 13.221938424460792
Fe 9.733709545049845 13.736927553647517 8.604154438444821
Fe 13.392272780433037 7.111135536638506 11.388872800744188
Fe 10.389112528211177 11.564703594487227 9.258314996801747
Fe 14.112839544341893 9.241721054427584 12.91387501364179
Fe 12.593665314214062 9.316140598648431 11.260176923553294
Fe 9.44136145063634 11.723593849225574 7.112289219199341
Fe 9.711689867233416 9.403019847991192 7.5142481460349675
Fe 11.635256360053994 10.07360275404178 13.635301779318553
Fe 8.653050870678479 14.601053338749017 10.497235089100712
Fe 10.103657825197667 9.50348283282313 11.529603774067485
Fe 10.710419316727755 7.195424708442198 8.025786860622263
Fe 7.463743959929209 10.55886982724358 7.286959290560928
Fe 8.989882949798044 12.070322018653885 11.208565524461768
Fe 9.572444759292287 11.26810330403238 13.42212583687487
Fe 11.519519502931638 7.888139754735724 12.954121241033763
Fe 8.50614665994803 10.103522284894384 9.704624782483112
Fe 7.743031221337124 12.333442857145242 9.043532367758973
Fe 9.01575236564995 13.830102122250809 12.818898172856324
Fe 11.288977071732482 7.226942992436443 10.671838158325867
Fe 9.208653797904729 7.870180292285818 9.730773097831301
Fe 6.095970022097612 9.91558221776669 8.99524484944112
Fe 9.541451812319584 8.879122884977889 14.045359683087531
Fe 7.942941048375665 9.841656871950454 12.38308944251291
Fe 6.874910065590448 13.371391746607571 11.271073983279129
Fe 7.640342703719872 8.26860296952175 8.064402789249868
Fe 9.114283421419797 7.497245237351441 12.176625662421454
Fe 7.350100547944748 12.130727803561241 13.204982318409394
Fe 6.587272580628228 11.083036396297855 10.98426594324735
Fe 7.020399278338948 8.454708994758342 10.627960086283549
