44
Energy = -302.80979168 eV
Fe 12.07675332 13.715727569793774 12.07675332
Fe 12.07675332 17.08348480935113 12.07675332
Fe 13.761828467373677 13.761828467373677 13.761828467373677
Fe 12.07675332 15.48213057605827 13.78933934092652
Fe 12.07675332 12.07675332 13.715727569793774
Fe 12.07675332 10.437779070206226 12.07675332
Fe 12.07675332 12.07675332 10.437779070206226
Fe 13.715727569793774 12.07675332 12.07675332
Fe 10.437779070206226 12.07675332 12.07675332
Fe 12.07675332 12.07675332 17.08348480935113
Fe 12.07675332 7.070021830649039 12.07675332
Fe 12.07675332 12.07675332 7.070021830649039
Fe 17.08348480935113 12.07675332 12.07675332
Fe 7.070021830649039 12.07675332 12.07675332
Fe 13.761828467373677 10.391678172626323 13.761828467373677
Fe 13.761828467373677 10.391678172626323 10.391678172626323
Fe 13.761828467373677 13.761828467373677 10.391678172626323
Fe 10.391678172626323 13.761828467373677 10.391678172626323
Fe 10.391678172626323 13.761828467373677 13.761828467373677
Fe 10.391678172626323 10.391678172626323 13.761828467373677
Fe 10.391678172626323 10.391678172626323 10.391678172626323
Fe 12.07675332 10.364167299073479 15.48213057605827
Fe 12.07675332 8.671376063941729 10.364167299073479
Fe 12.07675332 13.78933934092652 8.671376063941729
Fe 13.78933934092652 12.07675332 15.48213057605827
Fe 15.48213057605827 12.07675332 10.364167299073479
Fe 10.364167299073479 12.07675332 8.671376063941729
Fe 8.671376063941729 12.07675332 13.78933934092652
Fe 13.78933934092652 8.671376063941729 12.07675332
Fe 15.48213057605827 13.78933934092652 12.07675332
Fe 10.364167299073479 15.48213057605827 12.07675332
Fe 8.671376063941729 10.364167299073479 12.07675332
Fe 13.78933934092652 12.07675332 8.671376063941729
Fe 15.48213057605827 12.07675332 13.78933934092652
Fe 10.364167299073479 12.07675332 15.48213057605827
Fe 8.671376063941729 12.07675332 10.364167299073479
Fe 13.78933934092652 15.48213057605827 12.07675332
Fe 15.48213057605827 10.364167299073479 12.07675332
Fe 10.364167299073479 8.671376063941729 12.07675332
Fe 8.671376063941729 13.78933934092652 12.07675332
Fe 12.07675332 13.78933934092652 15.48213057605827
Fe 12.07675332 15.48213057605827 10.364167299073479
Fe 12.07675332 10.364167299073479 8.671376063941729
Fe 12.07675332 8.671376063941729 13.78933934092652
