46
Energy = -321.4897057 eV
Fe 7.8959506378121675 8.50894340322321 5.593157388587753
Fe 9.840793380203046 9.926982348026304 6.323552047218924
Fe 10.117178536376151 7.394151490684701 5.998853733750188
Fe 7.494186151986798 10.861332172845055 6.304204853427221
Fe 11.975561967219589 9.14326134497745 6.560150838174533
Fe 5.727363749982406 7.224590845694631 6.233836061038487
Fe 5.537472927981626 9.56748106402336 5.851336456829476
Fe 7.846774402888281 6.440773419621415 7.032999099294718
Fe 9.26875847710914 8.07517654953964 7.982840283181561
Fe 8.569920967815753 10.348362857464442 8.323260199639408
Fe 11.822202698995154 11.364785127723827 7.275467193862924
Fe 10.836174877978035 9.729415294840537 8.748515263386816
Fe 6.913727699252657 8.715569933071675 7.721101340611805
Fe 11.711342040783403 7.5534492536782025 8.325905972834317
Fe 7.787759107822978 12.527573076075138 8.423589079078518
Fe 10.062513224942323 5.768570620035733 7.960404805268182
Fe 5.783110173050242 10.771112240779672 8.070998505851856
Fe 6.093095739508134 6.811348851784 8.825326560076824
Fe 12.46329376185849 11.674035055768549 9.742509311841594
Fe 11.163933253490592 13.523273276933475 8.268306888771535
Fe 9.589561542213342 12.211640526981164 6.849878019057287
Fe 4.534024767245479 8.549755146823074 7.757275525142133
Fe 13.214017018361945 9.555011247778793 8.69425264826796
Fe 10.061136997088262 11.964296614818068 9.252476738855087
Fe 8.437902629805363 6.146570284284569 9.521174506141245
Fe 11.83200694850914 9.67648828547279 10.869265072253132
Fe 5.587663989219748 8.987832819374878 9.866581911223085
Fe 11.058692004299942 5.832126005683464 10.22322614057291
Fe 13.008167111832677 7.708224691033745 10.462991622249417
Fe 14.277418901726408 9.863866787465758 10.78652093863466
Fe 7.113297507336645 10.954806746326536 10.159750790817318
Fe 10.294260101390599 7.93842594801059 10.217599439685715
Fe 6.824611684873326 7.056337805623866 11.382062024450569
Fe 12.973828831294226 11.196985981166284 12.299573357446736
Fe 9.407670034526683 10.138482662753578 10.74252163884104
Fe 7.943705542203432 8.44661435507092 10.003922469731156
Fe 8.532827615663566 12.664703852952423 10.896450936132267
Fe 6.432497660518574 11.881845765100271 12.034957128863402
Fe 13.284397967129369 8.840311864341746 12.730836945835597
Fe 11.367220853448996 7.55001733047387 12.274534789793949
Fe 9.189620983132809 6.274311261427029 11.73944095983222
Fe 6.854181121697624 9.443148079189944 12.008706647422137
Fe 8.684803450282018 11.064683287289036 12.737064996291483
Fe 10.956441632759816 9.88237244259202 13.026506849222315
Fe 10.814962928801114 11.90979066088941 11.63186551318559
Fe 8.961089672611433 8.478284595314284 12.411369782356191
