43
Energy = -296.91179702 eV
Fe 14.650705504782787 12.042618150896987 7.894170589837914
Fe 13.935372771936699 11.147873564097084 9.816449459088403
Fe 13.901906477204983 8.866209505575409 10.781905188830695
Fe 13.62042192884649 9.510152324038463 8.25476617227117
Fe 14.958361974981742 12.948106843314283 10.630263652521652
Fe 12.281666666001254 11.701632176273787 8.22154314243109
Fe 13.334090473923633 10.86359302541093 11.944480059657026
Fe 12.766865579000692 6.9774406449171815 11.769752669763472
Fe 12.09930813402404 9.084062607633731 12.646008115643316
Fe 13.014312549031505 10.561794731064666 6.259807649405394
Fe 12.214113955088287 7.831853750674483 9.39468727704935
Fe 13.692258316998315 12.980428779233149 12.72755322109044
Fe 10.85759001409095 11.653273789972681 6.399866827184385
Fe 13.282844091594502 13.804827747694839 8.946486522796004
Fe 11.333952834287835 9.337917472515915 7.46876136075096
Fe 12.250943705625259 12.752031057150685 10.738726162087803
Fe 12.677706696200515 11.1340909742019 14.158216279090267
Fe 11.140031469158217 7.283420571477456 13.600928148760705
Fe 11.640884232421788 10.081945115251404 10.126326925397208
Fe 10.557359759491758 7.527969082843929 11.116172852060107
Fe 13.815356294222015 14.90138241615656 11.09217055200702
Fe 14.151339966737462 15.075764816269244 13.607214963844294
Fe 10.790892955567143 13.518928210236833 8.351425318398269
Fe 9.799871027618448 10.968624316307709 8.394698985808171
Fe 10.843946542031293 9.663577196123503 14.654355727330293
Fe 12.39418485087686 13.65052207264466 14.601944622169423
Fe 10.846869984416735 11.224432553989761 12.422839112224649
Fe 9.758922181815441 8.515454678697358 9.089276227813205
Fe 9.495532383480695 8.819489564141954 12.74922895047411
Fe 11.143321271365258 14.83041752394916 10.36139071398871
Fe 10.544145719295589 12.182889607179801 14.562172757554885
Fe 8.17340654868043 7.9248419653329405 10.8839492886399
Fe 9.981503337759769 12.394064142186078 10.258380315540412
Fe 9.231357231414387 10.062871984742529 10.703974659139673
Fe 12.073461659225355 15.02845020636238 12.580065464403498
Fe 8.70064921422495 10.660521059120075 14.021413283281943
Fe 10.36021779532138 14.6981814873476 14.282042864211348
Fe 10.211273736534265 13.582844509175219 12.321500646356956
Fe 7.2575044850702985 9.739833881161557 12.171147590080233
Fe 8.382462606802495 11.906776479946366 12.042795304390348
Fe 8.469509212359334 13.166192176636615 13.930424946217313
Fe 6.467102961605196 11.647618235036616 13.478840750064197
Fe 5.075112270170841 10.235060850345365 12.577416976959869
