42
Energy = -292.10809578 eV
Fe 9.381637445420218 10.75222871896605 5.91816651759496
Fe 10.119055989241028 8.852249931262003 7.416322866541644
Fe 9.580889371771026 13.115719746425203 6.493439780463497
Fe 10.844924415215777 11.39690126317865 7.58387098900268
Fe 7.711783016659028 9.619517632216883 7.0199952819238405
Fe 13.162645325357774 11.370673068586944 8.370533300502906
Fe 8.018519933847122 8.138715703090138 8.780116826603408
Fe 7.9766729419436215 11.92039828581503 7.6906717800075866
Fe 11.717189878813329 13.558049656565567 7.906836219512511
Fe 9.254835083438472 10.381186184214036 9.010077746756313
Fe 10.100664394290586 8.060159877470232 9.707555305133868
Fe 14.075671314731965 9.348551933762412 9.905894582118947
Fe 9.400712956337488 13.38922895855376 8.906406126550582
Fe 11.721784639752793 9.702231598013624 9.204688568392687
Fe 15.170749223312992 11.452988811169226 9.72367263477498
Fe 6.824806604235714 10.327817043085151 9.263175594777374
Fe 13.398850071385969 13.322245861788044 9.647446604732252
Fe 11.233147790197851 14.505899629214616 10.13960993975322
Fe 8.23991673999096 9.300108266383972 10.956920447031196
Fe 11.033414172686962 12.082236431094678 9.921439396305635
Fe 12.290774285760884 7.835383333643636 10.57246285617474
Fe 8.376646860202959 11.864877420562363 10.586923376702536
Fe 10.46788671532032 10.048859766070802 11.383972066334069
Fe 14.880339101766852 12.842878497021655 11.50705503484418
Fe 12.64554230235841 9.308351221391947 12.279075298753796
Fe 12.45894363207722 13.373099594706499 11.878916082323947
Fe 12.923746024716365 11.181440242046522 10.945790950564675
Fe 14.952267282957145 10.245110479186009 11.950453594914148
Fe 10.116887317083908 12.96216755354803 11.939933135854664
Fe 10.27515433400916 7.689447562765462 12.036518956211555
Fe 8.583557593402507 8.72302310385264 13.282161565269137
Fe 8.773477813036823 11.083789265602261 12.835938608863058
Fe 11.303877986390367 11.27045783093347 13.51753664533639
Fe 13.611704729516768 11.790861595289693 13.241340229705646
Fe 10.944840830610625 8.886496711644309 13.903058375493051
Fe 13.389992493175816 9.712461587191044 14.415679570863404
Fe 11.675681048811178 13.561171257439668 14.162749618879404
Fe 9.324888117858972 12.927086183914813 14.226493452770884
Fe 9.35632499799627 10.450748050458802 14.992936586943435
Fe 12.977832142644127 11.993814993982546 15.487504150957152
Fe 11.59144733404015 10.020519142195242 15.884102367267063
Fe 10.69290753390768 12.213437791969342 15.985148752766515
