49
Energy = -346.26823588 eV
Fe 11.772658431948651 9.037633014926831 14.796929851506057
Fe 11.505333729059863 12.658628864809375 12.780365334509938
Fe 13.87629126660511 12.229448162792616 12.15454663033008
Fe 12.630727337983766 10.421941940827184 13.114168517697802
Fe 10.256057041583292 10.71341505725891 13.765627888264826
Fe 13.470874025534838 8.283467972582901 12.916266052610654
Fe 11.553394240592812 6.970968877179988 13.866220304802445
Fe 14.336381695258323 10.06216755080059 11.253111902425788
Fe 10.702258230396426 14.747742805647396 11.909287665584682
Fe 9.110923373791627 12.813047177415909 12.821643389770472
Fe 9.54796964996018 8.382749585524152 14.063510029413699
Fe 12.53580132266185 13.738311035949026 10.778462199310319
Fe 13.695665334205493 11.840569660500542 9.745698596142255
Fe 11.042494906071248 8.786916545881176 12.226524109531796
Fe 9.621645180653621 10.778074771774548 11.570879555051619
Fe 11.888315894150647 11.036504075007542 11.015649889508746
Fe 12.552353529210178 8.853360485672615 10.372046838823923
Fe 12.409611571236864 6.609300041056953 11.659800414142563
Fe 7.734654891035161 10.256685877951332 12.87823593534473
Fe 8.449056733224111 14.522328450578465 11.222481893398506
Fe 10.415411572127871 14.85334693292414 9.430824152102096
Fe 9.757807985280905 6.341080632972057 12.406926922495956
Fe 10.205436166309454 12.833782001877283 10.435500872036393
Fe 7.632027324255383 12.245763371791858 11.03682805195334
Fe 12.161010178432779 13.400410976293333 8.444314860621782
Fe 13.692985356138019 9.668680444461597 8.391649343069474
Fe 11.572243951642683 10.998105329787844 8.646015394022657
Fe 9.986670871933852 12.904348691528607 7.718324287721389
Fe 12.64185319224277 6.815870514288941 9.166640987368488
Fe 10.545695446045253 7.140917476598945 10.416161926780779
Fe 8.078685665913758 13.632858199559932 9.02416708782843
Fe 8.99462792793936 11.323706188482069 9.098179768092383
Fe 5.774025871283412 10.65544419370991 11.418093740971475
Fe 9.964206559099031 9.224699617138214 9.586365811908395
Fe 13.701455416014902 11.770513249954258 7.387443136459107
Fe 6.448710835898554 8.267724721033824 11.553263899667549
Fe 11.510240151552622 8.47929109968983 7.998268902621422
Fe 7.7291498318905605 9.85432039875607 10.406828396212022
Fe 6.407361010406177 11.493667637365172 9.042718770342459
Fe 10.267044812900055 6.318925905006323 8.387493010900597
Fe 8.757578500580237 8.305678137492645 11.840111265155743
Fe 11.634310085528275 12.064715225371387 6.257260279777853
Fe 9.946195665830778 10.308606207155863 6.982143272161332
Fe 7.81209147671265 11.949211646086942 7.102957221660546
Fe 12.415333025804069 9.870380243516884 6.348921324465949
Fe 5.857195635516557 9.005965645017548 9.289347334943812
Fe 9.235337586349457 7.951573721891399 7.180656955670086
Fe 7.759454556226298 9.605912103965322 7.957877877219514
Fe 8.102688783163227 7.570190411858103 9.47828209993331
