43
Energy = -298.59611546 eV
Fe 13.40078489733168 8.780594035682045 8.71582224110076
Fe 13.896990228617168 7.266834939448195 10.50458337578414
Fe 11.465212392780089 7.388348172119457 7.833551222654067
Fe 14.947643449001763 9.367739595239199 10.795068713205135
Fe 11.451004757405249 7.543512048743032 10.089875294435068
Fe 12.841963855186394 10.877787169810196 7.324480694558411
Fe 9.325163356436114 7.616923624947421 6.715825033211646
Fe 11.042976729135564 9.34858121661277 6.728197773569355
Fe 9.3245616151451 6.476809043791811 8.923576654558879
Fe 13.784578406955836 8.690748921733555 12.858080228942267
Fe 13.57411629016303 11.189450428802838 9.605447704446831
Fe 11.430040689084546 9.981995423877105 9.03514421172857
Fe 12.294774586174276 6.936050798399668 12.135331842881296
Fe 12.609928439813006 9.34563230618942 11.091958343270125
Fe 9.385043536966652 7.377614341548694 11.2957406212173
Fe 13.933425477351749 11.35187986865681 11.893334737945567
Fe 9.357123536844684 8.749337782040028 9.028520837591811
Fe 7.325210095865308 7.7261325802735366 7.797293555086284
Fe 11.661586051070742 12.481605833183107 8.808869561699963
Fe 10.306564165340927 11.558198265088137 7.074855079493504
Fe 8.570203123538974 9.914688538157314 6.970729685512236
Fe 8.6041855614979 8.60856571762249 13.154043733474573
Fe 9.337879884826402 11.302837530869068 9.348915915293079
Fe 9.554501969353264 13.590547634405292 8.095346730138345
Fe 7.130131024705121 9.888245256694344 8.829929324256518
Fe 7.332634961312803 7.623794308666611 10.124890476619528
Fe 11.414888147501548 11.51776424547052 11.095697954512524
Fe 11.084990157667063 8.63624819768126 13.117943199619543
Fe 7.671836950435911 12.117148056206126 7.918526135615627
Fe 12.702365438139788 13.342835411070082 10.93130737219134
Fe 7.936685256965664 9.707196148171185 11.100907019673029
Fe 10.204475644529943 9.547120485848447 11.192062939520126
Fe 10.31955370650953 13.657756173501802 10.39860255893782
Fe 12.147571541867002 10.75675657417837 13.228697066041674
Fe 8.948716773541134 11.998975714499345 11.57422582609827
Fe 7.938224417329909 13.55315715262567 9.951543431907497
Fe 6.68430211486071 11.648953045588813 10.48626855965844
Fe 9.733575506866812 10.671702889919258 13.309569180501885
Fe 10.874731996852256 13.020811492131243 12.880227911953202
Fe 7.285399193715368 10.919874626718093 13.045783157958443
Fe 8.927659718942587 14.40122491870667 12.230871970653569
Fe 6.931485479472969 13.188283019896684 12.309724595222205
Fe 8.726349343083184 12.68811830351913 13.994128713376918
