50
Energy = -350.95505737 eV
Fe 12.705809962066242 12.319199901245021 7.180082673371859
Fe 10.552476912365192 11.492925891539915 8.0086629152545
Fe 12.205344439964678 9.818742283334682 7.442787080978865
Fe 14.57915712423583 10.926172376435218 7.507891869516885
Fe 11.768594420860762 13.085815673756223 9.387071775723447
Fe 9.285118603023783 13.317476527598176 9.198650375665787
Fe 14.219631003119636 13.189693569611784 8.827144741881757
Fe 13.950488295070487 8.886910429844203 8.726757068633473
Fe 8.71994852515301 10.903281483076423 9.715455545976695
Fe 9.973178935450077 9.195044036644697 8.438426014930764
Fe 16.330278522963667 12.277769313519679 8.983701683110947
Fe 11.87009778617516 8.670168275930196 9.728212208298746
Fe 13.066800635632779 11.09588117044348 9.280970295310544
Fe 10.99319741184547 10.814764913931327 10.349387787317475
Fe 15.992292828595465 13.754653267414461 10.807307300102025
Fe 13.358917834253322 14.39455470006759 10.633277052826907
Fe 15.339797091222044 10.325960196901452 9.893987794150421
Fe 7.93237977679404 8.718835452415417 9.52824388340409
Fe 10.895229456651757 14.887676687513633 10.647364319212693
Fe 7.373863919206635 12.584507763105282 10.721232179325227
Fe 6.681387188479817 10.245285859236516 10.852224935410542
Fe 17.119563354138908 11.551735241255003 11.014606049614867
Fe 9.723048646203335 8.933747629149341 11.009883349474535
Fe 13.25606585961483 9.951136431876678 11.350550430995309
Fe 14.434077080431047 12.136872823051386 11.053162821832077
Fe 15.453251383120891 10.115811787232614 12.324132464842064
Fe 11.845172925928008 8.226092630341768 12.258797350509843
Fe 6.064615904573247 9.815463049009733 13.126821957579864
Fe 12.116027026276969 12.727731683661597 11.874058043023153
Fe 6.116199987718713 12.083539009705463 12.716428509982526
Fe 9.79967362515855 12.61919936793562 11.384638005467812
Fe 7.6479562423419045 8.405613247152601 11.906325259327446
Fe 8.482061923883093 14.735246811664377 10.996040095332363
Fe 12.400364992381625 15.305835265312176 12.617387832175094
Fe 8.516033047029303 10.710010023796947 12.40705212256207
Fe 11.221602400864027 10.474128782975344 12.770011040628045
Fe 14.251846848437301 13.827623178210116 12.810514642263286
Fe 16.009697248791003 12.260492388574697 12.951007823063676
Fe 10.258331982959586 14.532346877678751 12.909803715284767
Fe 13.512773474418648 9.274238600978203 13.714524453040223
Fe 11.496165378402187 8.717235984357044 14.75366430601543
Fe 12.21114681486445 13.46491870633767 14.191760741974782
Fe 9.643319618896657 8.434488300955739 13.288989955703004
Fe 7.6020183355808415 11.45404135441146 14.462050921351201
Fe 8.08015754052583 13.354209689289002 12.949314545596302
Fe 7.706439073958401 9.059580541952297 14.517863262402445
Fe 10.123972820304989 12.332942033457668 13.827323078166335
Fe 13.651084551454277 11.554979669723519 13.40165785523894
Fe 9.718367432162523 10.261827769644892 14.814481620697418
Fe 12.03421192805971 11.062829468352042 15.027546367061417
