53
Energy = -371.75615132 eV
Fe 12.5388396095624 9.215622931969554 6.658433381744688
Fe 11.416482727526128 12.82349331320048 6.429935931697068
Fe 13.269446779948936 11.416338814914935 6.511908797116919
Fe 10.854490285254432 10.634133250546942 5.898797396035486
Fe 10.105726658275575 9.12627713200574 7.684292163116445
Fe 9.171088512824266 11.654460103764533 7.645033337894146
Fe 13.672017413478528 10.251082145056232 8.721923283041802
Fe 12.089314936870572 8.228400294629568 8.77608903098812
Fe 15.067268585275636 12.123110503404112 9.50700143527789
Fe 11.465618753174832 10.967260617403166 8.202796767986511
Fe 12.934341490756898 12.80324857918552 8.482076811050884
Fe 10.579856154041206 13.53998390602253 8.451889661759765
Fe 7.930173165188327 8.810565469999924 8.715594410894955
Fe 7.262654159472046 10.955986101905077 9.157940848366602
Fe 11.850316318764271 7.268956226040112 11.083294588644392
Fe 9.573313628914345 10.526734481913495 9.593908080737622
Fe 13.910144782736337 8.270503326626017 10.408958113310675
Fe 14.092228163835882 10.488108313643567 11.056221982753332
Fe 8.784888895414962 12.662734216737407 9.848153431354516
Fe 15.75919231174467 12.140788880990709 11.789103798669046
Fe 9.838625101256529 8.151324492886827 9.939563277193946
Fe 12.213616733787402 14.634869059396747 10.134995556928898
Fe 11.83257934635565 9.820066447701532 10.44127212339429
Fe 11.140134063172201 12.263937194115238 10.26677741597463
Fe 13.32530795752852 12.758685324305615 10.89091415458366
Fe 9.944233269780446 14.675126511508447 10.649457653446165
Fe 9.73606016111039 6.383435351134693 11.517720891974173
Fe 12.884305229478935 8.787103529502263 12.673157915880257
Fe 7.628807882228817 7.288148264485966 10.533145927214646
Fe 15.380156114770607 12.01218230621826 14.556559190797605
Fe 8.045415058221288 9.442587646223753 11.137491324005872
Fe 10.415362030315324 8.984427527366323 12.218523130307078
Fe 13.876594806466208 12.52996721554956 13.079099469428714
Fe 11.228533071317917 13.460837894804838 12.421279613194097
Fe 12.11539759925633 11.049801950686188 12.546561633396559
Fe 14.893706489184694 10.173951099768527 13.127861121728937
Fe 8.720010730723974 13.340075415723952 12.249912740698923
Fe 7.183266765882729 11.552007292947728 11.524749256822254
Fe 13.283585288091878 14.710412946884572 12.570978304724242
Fe 9.486981780950401 15.44940083342009 13.005071890872857
Fe 11.388846753828915 9.215649284876454 14.551098823981606
Fe 9.657573161911944 11.232305064596677 11.894035706525846
Fe 11.454559163490305 16.071983027915703 11.899145230724566
Fe 12.25456473081331 13.007868270531798 14.68754193155882
Fe 10.684569826805538 7.134804249652578 13.547453145436887
Fe 8.318799117164373 7.673015533924573 12.793207137526162
Fe 6.851494267382737 9.664935174154982 13.05673743478684
Fe 11.555181103906797 15.229755957611399 14.19976063211858
Fe 13.20360250092453 10.718987575786809 14.681784385808987
Fe 9.709872809912904 13.654142559910886 14.544047109545925
Fe 9.004162215599338 9.620091728930866 13.986350419809638
Fe 10.504424048827303 11.43990023132124 14.191602129665663
Fe 8.010116622839302 11.761660368033493 13.816233922352124
