54
Energy = -382.18354442 eV
Fe 8.915273797712304 10.231697183641648 5.201741384942304
Fe 11.367730899382918 9.914209815679957 5.819362994761374
Fe 10.035429486383311 8.00718945003384 4.80026013538865
Fe 6.354824516098098 10.166022950958157 5.3828084150948605
Fe 7.70871049445042 7.957642156810699 5.652522771686598
Fe 9.400274827986438 6.357617329148556 6.654604590891477
Fe 7.567735755774621 12.125468806905182 6.504637868104139
Fe 12.374652800295316 11.55475215688685 7.141891678690832
Fe 11.750069536324299 7.6506182040350845 6.6990805567161305
Fe 10.286727929326833 7.1568874484164935 8.817230362909825
Fe 7.652800965374328 9.81753138473458 7.262310362675542
Fe 9.708268088437435 8.745219686571957 7.028254283739583
Fe 9.800690242442245 11.264027736139472 7.444287667288496
Fe 5.698554923459631 8.276694952318879 7.117711942667633
Fe 6.7642409305572775 6.071993066111027 6.943388293120501
Fe 7.915658809370878 7.557443499685547 8.179432391959677
Fe 5.501813611042975 10.873309152323252 7.629273769839919
Fe 11.246098246612137 12.701026144790053 8.984753559927015
Fe 8.838502457415256 13.368507196271755 8.48452045654929
Fe 12.751829842948693 7.329581203291149 8.816488510225103
Fe 13.464696401747121 9.403967446238708 7.471618256370245
Fe 11.45092027013383 9.658910565489686 8.554129119661043
Fe 7.552360215662729 11.418296286442883 8.962811391890302
Fe 6.315471632192513 13.154546262681784 8.300172825834883
Fe 13.295107760934782 11.449430959700244 9.367048316485976
Fe 6.364566144395358 9.203496545467114 9.282723230302715
Fe 9.149727405584937 9.51091949969342 9.253717613928796
Fe 6.101855115805945 6.805677238507276 9.525800468671669
Fe 13.538362924006998 9.24109416632883 10.115296288801053
Fe 8.432865068661018 5.7010660343415465 9.56962098414593
Fe 13.566612860215225 6.966231046642138 10.9889072581446
Fe 9.585733772939875 11.60868763881139 10.123481845516807
Fe 11.406450391145816 5.695763810998576 10.275356851639298
Fe 7.4764147166367465 10.283316012769836 11.136114797173587
Fe 11.513820118684926 10.564639722676041 10.846822584943338
Fe 8.191128311954067 7.936681806686713 10.577949201763275
Fe 9.728316981376262 13.955893323796312 10.69395103571495
Fe 11.257029747335855 8.169329563133527 10.727512225972061
Fe 7.614698832744503 12.7768228224213 10.953690837844718
Fe 5.584766908812615 11.37416327075853 10.204376355205545
Fe 11.743213061678055 12.788864880396426 11.409925307442942
Fe 5.967137453763868 8.442794377525502 11.560263077479735
Fe 13.599956172762143 11.089328900991813 11.84537021240692
Fe 9.583896679777986 9.58825057573076 11.861951231282431
Fe 7.070804726641146 6.269384608838254 11.745359257984454
Fe 12.83652601811979 8.82653529671868 12.47710211061377
Fe 9.619353624482319 6.592414069935078 11.75638821686897
Fe 11.934309248586274 6.44172646944893 12.54503051866827
Fe 9.608074027667213 11.99412633378688 12.438032183122559
Fe 7.593664193854805 10.899515659477562 13.265539438566188
Fe 11.554850388939577 10.789962164729088 13.277557667245427
Fe 7.963882585581526 8.37964557064131 13.040265442526715
Fe 10.638622454917064 8.227271050084003 13.423347357421479
Fe 9.517358247039557 10.126249119532838 14.320647117356204
