55
Energy = -386.0543349 eV
Fe 10.760182256560448 14.443203366146747 8.282544275930135
Fe 14.338485148537401 11.21880975030625 9.278942359980933
Fe 11.49858224849249 13.620495761165982 10.303498084364474
Fe 12.179123411183285 16.014861642304172 9.272426975828889
Fe 13.168167943333046 13.890212538117348 8.65785560588762
Fe 9.863639229701885 15.534460194727439 10.226758737183788
Fe 15.621457559684647 9.632848546700165 10.194776723194446
Fe 15.957174126200352 14.283501762553064 10.996088252772372
Fe 12.179453139188336 11.290272433318423 10.220280486891786
Fe 9.251030279843151 13.081013188290143 9.678726429698132
Fe 13.344637726056549 9.248158740145003 10.939979048678774
Fe 14.03264068621693 13.057601108391205 10.566517148248648
Fe 16.213486056246744 11.729950978918684 11.241230559868429
Fe 11.317853324464988 17.00035799899681 11.348739968640086
Fe 10.050261107945218 11.475486409612538 11.351505640229746
Fe 11.501062394563965 14.963807180405624 12.618380952319182
Fe 13.323041657334722 15.246896545827743 11.18651991235764
Fe 14.156661317911833 11.075933430881177 11.952789754179562
Fe 9.527824556222967 13.796976647549053 11.879716172600448
Fe 12.328625652106403 12.770297858708377 12.290843109291076
Fe 11.769220659537009 10.306669461396107 12.63571646658135
Fe 17.42169182281771 15.63017570234196 12.574698100393364
Fe 15.932155902380165 9.46257875903407 12.454151027976451
Fe 17.5790529490336 10.826845757316836 13.22140807195973
Fe 17.105212544553325 13.269679120290169 12.901988365222888
Fe 13.101831408421404 17.226335971214137 12.94437150880812
Fe 15.147739444987575 16.09015539566208 12.262196071288098
Fe 14.643063014992787 13.412376887645618 12.817945704731871
Fe 13.820525857570829 9.318640113446161 13.520379173460658
Fe 8.341850299004921 12.2444061336153 13.049649945892053
Fe 15.390562787533701 17.06376393820535 14.373485169003573
Fe 11.218637852006564 16.28536819019799 14.49294707447015
Fe 9.44090109867377 16.173996761562652 12.699223250138964
Fe 10.486700633392465 12.100985737419789 13.69147361073745
Fe 13.170913674645439 11.533539472150975 14.243468921001204
Fe 11.825063918527258 8.621022317915907 14.278935505788118
Fe 15.663801920155171 11.658803020647392 14.001579442944674
Fe 9.460729912212553 14.333089469980692 14.260265019364654
Fe 15.77965064858488 9.532412966969774 14.868049250634765
Fe 16.01923635214917 14.839163764944473 14.162609283293328
Fe 13.56908739949746 15.266107624928091 14.019853462726338
Fe 11.070327946408899 10.53376145861572 15.32105111918022
Fe 13.318302578695825 9.747558804621043 15.896806162703461
Fe 11.864519543870799 13.72084341325126 14.75440268720962
Fe 15.094633259437312 15.32452604268699 16.248675620360142
Fe 13.325908951399883 17.105185200389112 15.467302137395308
Fe 14.363430917414254 13.383024049838626 15.25040343514631
Fe 15.053337858018741 11.307436328649537 16.269364498485434
Fe 10.338581613877551 15.16495510697604 16.330768758460867
Fe 12.676796270685918 14.868239678630065 16.527319759176322
Fe 16.599406887195524 13.23238171083258 15.690168795604771
Fe 10.188663142093171 12.799833552307023 16.138019209782424
Fe 13.654112965420435 10.878351528541415 18.062218587794995
Fe 12.54531688070167 12.210225696800551 16.535855492831157
Fe 14.456093256756331 13.202866772357677 17.595581105753755
