54
Energy = -381.84799654 eV
Fe 5.215355827059357 9.099922655305427 7.886965388654899
Fe 11.787803711800013 11.173350578567709 14.137495338274034
Fe 13.340909385754797 8.047738680770571 9.245616187652315
Fe 9.633283253438966 7.535656966267784 11.847650677945353
Fe 6.180536782580563 5.490332509650632 5.7851199805882505
Fe 11.087356945065764 11.812778398878768 6.960057808184354
Fe 9.899609447546746 9.952889807116108 7.536218228741718
Fe 8.659749686188992 6.066731129051859 5.868059545566378
Fe 9.42562979837141 8.531936438069028 9.611823525137654
Fe 6.482630024929861 10.049153810592356 5.799051391983095
Fe 5.148289897674081 8.021582402992426 10.274797229077215
Fe 8.860291120916632 14.354913127633088 9.836607294801995
Fe 11.417754186633774 9.477232234356602 5.857869381799049
Fe 5.9545036643985165 10.37504450047517 9.774679042056404
Fe 10.932556360097486 9.131305869707841 13.277171161820695
Fe 8.94348042691948 7.478620182877897 7.64412968561961
Fe 10.795856808582299 13.48396562648285 8.698790477301177
Fe 8.84768081943332 8.74562420375971 5.653955060527747
Fe 7.399045950799824 5.497937314344963 7.919029271006837
Fe 9.484363404777206 11.389698522607347 13.375421014833337
Fe 8.671528818477759 11.254646617178956 5.982640510638371
Fe 11.185828880164392 8.060586901419853 8.091670747643168
Fe 11.644317015489836 9.016073275879199 10.49417952833006
Fe 8.277980552179827 13.507744619277894 12.294049715748796
Fe 8.302839566037186 10.648206783184223 9.650020524028537
Fe 7.45931456899227 11.295830714746822 11.969198739524984
Fe 12.142298247828942 7.310340381640568 12.015298203307282
Fe 12.580487770489468 10.052153357181181 8.061425086454193
Fe 5.167509695330392 6.67920820896212 7.829191395918844
Fe 12.431477565259174 6.1696665210750234 7.729400076959111
Fe 10.043972458723777 5.512381885353775 7.938470945376001
Fe 11.57370578983399 11.111051795787903 11.822984335428087
Fe 7.596112899083798 9.654811920125487 7.66488388097934
Fe 7.028040453041071 7.822595998090293 9.091715509415032
Fe 8.388426668337539 8.955170126711453 13.372510146807924
Fe 10.976033039124426 6.678879725366935 9.962325834842115
Fe 8.84183099615775 12.395131166988376 8.171650670711289
Fe 7.385040175756624 8.984655867179548 11.21951354806086
Fe 12.213277598674054 12.916016872649502 10.558187296158197
Fe 8.619635957544503 6.2138627919085945 9.895170692688067
Fe 10.900838916819632 13.192093358381191 12.797279367454095
Fe 6.807762282005899 7.623851601994071 6.485807003147704
Fe 9.601012739743311 9.972220412297263 11.49532112488485
Fe 13.343880091448582 10.863808512115112 10.241638932237613
Fe 13.509496698327665 12.091118858804359 12.373545358856113
Fe 10.895694935203986 11.114873155789484 9.378934059344054
Fe 9.645297123613759 12.445089969499948 10.879971930778227
Fe 13.25682662915205 8.152840535789634 6.701899776044745
Fe 6.004604260811652 5.753871691279669 9.888834913694907
Fe 7.196714465378688 6.772511546124635 11.697314940268836
Fe 10.910552756594006 7.105327766573541 5.991826442340352
Fe 7.149136823117974 12.73974604003235 10.014719592572392
Fe 13.13522913206769 9.424499792974594 12.383645455901343
Fe 6.5220439940936465 11.698153336003926 7.76970308975638
