52
Energy = -366.46675868 eV
Fe 14.970924779141878 11.608298131174514 10.605376711714309
Fe 14.676590142761375 10.105717403039774 12.469018733995577
Fe 14.28683670004341 10.611160125554493 8.616037425516915
Fe 13.66139214857765 15.165666577452404 9.315497918632666
Fe 13.386429426067822 12.241015920317151 12.406718652787681
Fe 14.622135210396227 12.967007120469319 8.303172182392762
Fe 14.180999506376958 8.995031419417934 10.409589062622455
Fe 14.005087110841746 7.502577684645004 12.366156272062726
Fe 14.40051171006548 8.698701447788187 14.440244371004402
Fe 14.644467657140884 14.078925081304604 10.954066142015476
Fe 13.05093039478954 10.751132892207178 14.459853758236012
Fe 13.389283621548856 14.425720512572227 13.250813137917438
Fe 12.972200164256224 12.802363549164854 9.84913951771973
Fe 13.712510907990808 6.235110910148211 14.250756481777792
Fe 11.88643807784246 7.968885192502339 10.725109664250967
Fe 12.621229689814491 13.96082632714364 7.430631199844566
Fe 12.532321589028333 10.695323229155669 10.708798750978087
Fe 12.292921164308 11.702206218014698 7.898373285970836
Fe 10.703465558166474 9.7787955865199 15.005226226720353
Fe 12.170683093735255 9.369122019431318 8.785802981080336
Fe 11.058449057032895 14.037998980499399 9.220951410868178
Fe 12.223301136755856 7.936722045450635 14.627977789365179
Fe 12.269136967315053 14.808905959574549 11.24069126745563
Fe 12.449511941961871 9.285573451708657 12.672611091360865
Fe 11.017828628608997 12.684526804716247 11.305693211650716
Fe 11.806308451041106 6.537849408445303 12.667044450666985
Fe 10.273077239550428 9.840295193505037 11.094418677208745
Fe 11.860995770090849 12.914396098252366 14.226357914780204
Fe 11.043362113501097 15.027766019756985 13.236778092016724
Fe 9.634491490147154 14.677315062143522 11.324132968259022
Fe 10.998947103335798 11.12020768321027 13.04246059867285
Fe 10.21522760313112 8.314144706901544 12.984885466010482
Fe 10.76680111937446 10.027970391719409 6.947429670522739
Fe 10.233440177369765 11.303686146076462 9.143123222161586
Fe 9.916212868831751 11.753266278732815 15.261415193528494
Fe 8.769538619239377 10.266872711011887 13.527574068080725
Fe 10.182069658641511 12.85188046783602 7.30253169941476
Fe 9.943887679087162 8.750218359495493 8.965575785548166
Fe 8.068036089893013 9.018878723803768 11.648917771304424
Fe 8.803276303531614 11.731089878600176 11.58063594177818
Fe 8.768695037552199 13.214036859978261 9.658009038444819
Fe 9.547517353111656 13.190261125632041 13.330824283567855
Fe 9.633497426456467 7.281067890300832 10.953040255182461
Fe 7.41224492288635 13.612614503737863 12.00200864074748
Fe 9.050228728887147 11.229060164817428 6.011457082271867
Fe 7.497869862070515 12.211215975710713 13.924416431843337
Fe 7.8091402732310975 12.009611741476983 7.867933219048148
Fe 8.298096575226669 9.646355118428525 7.51782162511885
Fe 7.962289419979159 10.483769605098255 9.743069622781597
Fe 7.7311323375359935 8.061801810121178 9.462204909081999
Fe 6.577522011474028 12.376878232766266 10.125684954899041
Fe 6.628436275234687 10.976900144636287 12.06602881679389
