55
Energy = -385.2241356 eV
Fe 7.805547197286941 10.40567733348387 11.166093989528786
Fe 12.937871665313073 15.788981467634455 13.03593459937634
Fe 14.890260721637306 15.213649899657014 11.736287588799309
Fe 10.65224234936716 13.997789193266291 15.823030869073389
Fe 11.325495723968114 14.940520545318531 9.411024666718415
Fe 10.224880799820793 14.451373160357516 13.180363367677298
Fe 15.973939670854378 13.143484866710676 9.793447336490507
Fe 13.05139509664702 11.21776155215893 13.967818827819732
Fe 10.914659478740473 11.60550938606998 15.066772489082084
Fe 15.7676013578682 10.395249900991162 8.454992158097518
Fe 9.66242928008899 11.061180872411436 7.564212183640332
Fe 8.83443658047421 10.963015612210404 15.987793918756246
Fe 8.69817491496911 12.028682076001923 9.545692838578331
Fe 16.664732307699634 8.669498122409552 9.917962238090691
Fe 12.400680915619175 9.327966076279347 15.191088814499306
Fe 10.150123323950256 10.761987013100262 11.234416336537207
Fe 15.105581595404244 12.245617205836384 14.517873560001284
Fe 8.774760028654187 12.674721370120286 11.97438851568397
Fe 9.294830597108916 8.748861272127046 12.05543671927601
Fe 8.981678582652874 10.693363126486089 13.470998521056122
Fe 15.028927099678839 9.809322432344578 14.441424871293174
Fe 14.072655797197317 11.504677725862516 9.575820713889923
Fe 9.93430685783607 9.083329324716141 14.990063889002695
Fe 9.300696638232935 14.740353540271531 10.742006603835414
Fe 9.930000539478176 13.375023705670367 8.198687778290484
Fe 12.498578822997636 13.7219489797568 14.462862409918278
Fe 11.214459379721928 12.342255155719878 12.774738094165485
Fe 14.807198396888671 8.25175014890212 8.436666857103848
Fe 15.947329441954995 8.932637514407741 12.251363687681824
Fe 10.93005331558883 10.202160460571626 16.856147690274046
Fe 13.524527641143838 8.904128930503935 12.820090189075543
Fe 11.288486458023895 9.790375756783025 13.10206521333235
Fe 8.842755603048701 12.916952369241569 14.459857405463332
Fe 16.929036894269903 11.032068909035365 13.24538757736319
Fe 14.74188296208736 11.056427607685908 12.199619035434809
Fe 16.53897791936598 10.909046725867086 10.691150936620913
Fe 13.746686087342715 13.66650123115215 10.297730176641684
Fe 14.775754039787167 16.917649319391913 13.781415319944314
Fe 12.558539243279455 10.862739569272193 11.294693051225822
Fe 13.434139810827162 15.715924183096735 15.39617158739658
Fe 15.046677425975824 14.538388311101366 14.000959256434687
Fe 13.603389994563393 13.072844444160124 12.519771470778982
Fe 11.388631185895745 11.328245859202891 9.039290331431385
Fe 14.366670838118495 9.304428272667662 10.471500808466876
Fe 9.44638170969917 9.558728963509935 9.43922165708355
Fe 17.173713356453426 13.28831534382717 14.120093982879501
Fe 11.081942335190265 16.10061341554437 14.511430378478279
Fe 8.728347216433942 15.229690728205444 15.093303644950993
Fe 7.7993304708227615 14.73426893306787 12.8926015231654
Fe 9.050506168227558 16.72902625609462 13.217944245141682
Fe 13.063623659777733 9.8135443235692 8.336282836588122
Fe 11.9694825658595 14.400642683852846 11.600223743568835
Fe 10.796635644959176 12.90073986446121 10.433735359099547
Fe 16.093576975865318 13.089024218987047 12.089042707061266
Fe 10.788205091117455 16.39476451470196 11.674435203970965
