55
Energy = -388.09320068 eV
Fe 14.733227115408907 12.733068821766393 8.563248859206888
Fe 16.868483636203628 13.880180842601865 9.170308970974311
Fe 14.703815644164669 14.08376504031038 10.43083881643271
Fe 18.552184183012056 12.651279130554164 10.764179805805888
Fe 11.426437095775539 15.158554980500147 11.342942477664174
Fe 12.52793536726808 13.91556339866177 9.628665667381672
Fe 13.49765868414537 16.076436055971506 10.915503582010057
Fe 13.620160402471237 11.960110547356651 10.500386618785104
Fe 16.121787946238793 15.963551761518648 10.337549952530924
Fe 16.181009177781103 11.883537760271347 10.377546982712495
Fe 16.892293203716843 13.96919970982634 11.55253145657755
Fe 13.005397685699464 16.108993880715023 13.354591448465495
Fe 18.57800176564622 15.263111483148228 10.41904219114545
Fe 14.92098551230598 10.265966173239347 11.645688609819604
Fe 12.072493515549638 10.149834924445038 10.819355079364831
Fe 13.045725589776056 13.755071504852207 12.398208270623773
Fe 15.160096713095916 15.297920479587454 12.409695461167859
Fe 9.340918617041588 14.234495035287576 11.357466093374418
Fe 15.185997626953561 12.584394187042708 12.648901558672872
Fe 17.481219010285326 16.19979406935111 12.473964728034089
Fe 10.73140664070535 10.32076245139458 12.77174436993329
Fe 11.144523462211476 12.558521477612972 11.246655141755372
Fe 17.401681563013483 11.850604308588728 12.784692279430045
Fe 11.31625043540382 12.432241224825253 13.74029731297253
Fe 9.173039278597505 12.49310877076031 12.949336557107333
Fe 18.90784800983585 14.192780303429451 12.765268604252757
Fe 10.441797491152478 14.82588612986348 13.435560240176176
Fe 13.619802797957023 12.352652767727287 14.748151943206818
Fe 11.105461093327525 17.121547118089936 12.52066297120721
Fe 13.056219261929575 11.254835647799988 12.658534186827401
Fe 9.82436641667935 10.931136922964972 15.011616766576749
Fe 12.96139403449274 8.9735547575378 12.903168823584423
Fe 16.04165067282402 12.159226600928767 14.915755414694909
Fe 16.871446793316977 14.167632761595856 14.043962155906584
Fe 15.5937225668833 16.748463585814655 14.15606526023836
Fe 18.09860775084689 16.05132495117222 14.66833834846294
Fe 12.282146692750427 10.276797434283647 14.83202918934318
Fe 9.520869666902058 13.358521606813026 15.291586094004522
Fe 14.587087736433048 14.427791029767072 14.42515855615749
Fe 14.76925120898746 10.375562326950886 14.13370663939467
Fe 12.245834825846034 14.315796540523545 14.814362530483768
Fe 11.3539545715978 16.74288024791886 14.975480207964443
Fe 16.158189050147808 15.716408986578184 16.08220101620755
Fe 13.682850214710692 16.080061709119988 15.864793909478559
Fe 11.45890895953131 12.173839066321964 16.183512093333807
Fe 9.958406855914214 13.225296220991913 17.908981014424242
Fe 15.207263773368098 13.60118654042983 16.501601532691463
Fe 13.752569933559377 11.291102959935223 16.72649580305879
Fe 10.863527800167862 14.950693788373991 16.476453555668247
Fe 13.044859464325894 13.779242585405326 17.07867397505714
Fe 12.007300664612172 12.132110988398429 18.4535405071537
Fe 14.286698635394341 15.500696464993197 18.06071543824705
Fe 9.834111276316113 15.519429263977568 18.44167768023039
Fe 12.099776398620255 16.584477000373898 17.59487753609148
Fe 11.899669814615077 14.597319977246908 18.94205001944316
