52
Energy = -367.50476429 eV
Fe 12.632853388085614 12.968376700407285 7.810111547959037
Fe 10.808629897898776 11.978994039149363 6.35385413657603
Fe 10.416507049236628 14.110040059864865 7.533435295857651
Fe 10.300061450345703 9.680813865218797 7.138056506574301
Fe 7.943943164034756 8.872980371378596 7.430199324914512
Fe 12.226950939698678 8.100313154992062 7.8215956465166325
Fe 12.484599520114681 10.644046977762383 7.453813593085547
Fe 9.851505051180828 7.617734733454991 8.55693605574294
Fe 8.317628633180906 11.374171369588456 7.506897671577778
Fe 14.636958065849894 11.844648130324922 8.804319144948598
Fe 12.281010031653677 15.290883934016222 8.286965963433504
Fe 8.461273748658781 13.770993636309749 8.702909253323481
Fe 7.860525073286573 7.7413196149612125 9.946148060640697
Fe 14.180020793628058 9.510629248390826 8.563309785971278
Fe 11.614538426499713 13.679659615401482 10.094406832220368
Fe 11.452704907453072 6.6066013929252705 9.783479624456747
Fe 10.32746321310262 11.909977020264183 8.65039760562747
Fe 10.11190244651557 15.484692082052135 9.625600971983134
Fe 6.671724007799329 9.862280940708704 9.094185830245497
Fe 13.896709534541575 14.123612818034426 9.665919230978497
Fe 9.089703900786784 9.811314386829434 9.219907551951405
Fe 11.380719614193621 9.587552970405717 9.31983322412331
Fe 13.038518666981034 8.332692137435542 10.24242395169617
Fe 10.140926769170045 8.527570600344399 11.117315494724352
Fe 7.90291067559207 11.86383829061736 9.885174294713481
Fe 12.573392661480645 11.483700667091583 9.87732710118827
Fe 7.846115716420934 9.86903318283973 11.237758538846803
Fe 12.339163221649656 16.174072139567514 10.507787009063794
Fe 9.343178557000977 13.461195545758454 11.002418747919274
Fe 14.578708519348286 10.245709989370578 10.829760383552347
Fe 10.759054109655944 14.904318904731158 12.101808872374356
Fe 13.094159033962695 14.544343786589204 12.049818319290502
Fe 9.506261733080175 6.309620309524378 11.303821704360805
Fe 10.156043855630825 11.193480005539746 11.035490527899091
Fe 14.059600898664344 12.46687670387516 11.450304241320964
Fe 7.921283269708136 7.857328360160221 12.402332385722326
Fe 12.139492609622618 9.999610074561712 11.846607687228358
Fe 11.966665701987464 7.183214658436288 12.064323873224657
Fe 11.8407884265866 12.561779998026392 12.299579376768074
Fe 9.591334578062286 9.880999867768995 13.070091076389655
Fe 7.038666115362259 9.896371393388002 13.565666408520324
Fe 7.8835061456224995 11.887423890027788 12.428967506533084
Fe 14.05234163756426 8.649231601647251 12.521992341235988
Fe 9.763433776974557 12.720755221467465 13.382087505812192
Fe 13.708188531259774 10.906877394417007 13.33287490875198
Fe 8.369430525449317 5.868926628040072 13.63982295022617
Fe 11.32064386239629 11.09579621210543 14.211725226564836
Fe 8.661066722537663 10.993888131039105 14.908310047329923
Fe 10.133932938561571 7.4532494141919905 13.529834689822758
Fe 8.290507207211343 8.291930271464404 14.753606047795214
Fe 12.0740803427916 8.840318132167974 13.891844572259748
Fe 10.277325259593164 9.282864353039795 15.465496277829898
