5
Energy = -28.96373684 eV
Fe 7.397794543633791 8.703911161051671 6.711620757936386
Fe 8.854201020526768 7.58431236364344 8.050691818637787
Fe 6.947895629091009 8.644978318166503 8.969454933211747
Fe 7.9427074130761115 6.5534210233970915 6.120127387758767
Fe 6.849459484928438 6.505435224997652 8.14016319371167
