51
Energy = -358.08526064 eV
Fe 10.833655395858294 10.726533711844853 17.52195373865901
Fe 10.019303552636622 11.972905660704948 15.973040457304421
Fe 8.758514517602512 13.645531834977744 14.55374450596011
Fe 12.483788105368328 12.004982800913945 16.11994758446014
Fe 8.267128197250859 14.804376507914597 12.439770921914898
Fe 11.27394431014714 13.535129913621915 14.62738696724278
Fe 10.235167559342381 15.454367260237419 13.701598833506395
Fe 13.646404851324412 13.384412215673319 14.483226361596522
Fe 9.87942059523439 9.578439678290191 15.455771226915655
Fe 12.206036271129847 9.71015711552943 15.939197968667244
Fe 12.661314201904647 15.552023758965614 14.429359906574593
Fe 8.838374943710708 11.301229449384854 13.943062010058771
Fe 7.376780504437866 12.69798409195561 12.618342094255553
Fe 11.25590137627075 11.072824190222095 14.127566847375089
Fe 13.85838747461884 10.991665899863031 14.373449470206461
Fe 10.224613715582276 15.198586446910154 11.25892296592339
Fe 10.05834802068595 12.996065983735898 12.580461054510883
Fe 15.811198970161517 12.163745758290727 13.543724639568731
Fe 14.026724057014158 8.648545395526376 14.647877436870122
Fe 12.538158796642076 12.3584843157605 12.558839666751116
Fe 9.734576225247725 9.270170995287602 13.018757221653175
Fe 12.209470288569035 14.657031639275536 12.375112296573777
Fe 11.711563270570206 8.397432317762865 14.048540985297139
Fe 8.404699771886808 10.958032439298327 11.522691123010203
Fe 14.70587933422865 14.228432984710821 12.616501302776559
Fe 10.879058637263022 10.869078482380484 11.709560489986458
Fe 12.347262284877024 15.342489990946106 9.831906864036252
Fe 16.177792110295986 12.984004267502339 11.066660747862723
Fe 11.169460025744321 13.119431273385153 10.438699677433327
Fe 15.371257787293331 9.561263586851815 12.822932303871896
Fe 10.187587221623163 14.920229609363986 8.98171990353917
Fe 8.780950074148802 13.182050024696078 10.445465387316531
Fe 13.815040239312781 7.695542529225604 12.517089825639568
Fe 14.589810914811068 11.4879389966352 11.720620459680372
Fe 12.825839364198965 9.894272146170705 12.566690850055748
Fe 9.487979387049563 9.022231013157118 10.575910237216563
Fe 11.53219805966686 8.056777334572022 11.652596819575379
Fe 13.68645586522155 13.586349668792922 10.653309158517617
Fe 12.721968515779913 11.341136787857018 10.22695814696108
Fe 12.537790247798213 13.211720906768056 8.499492351664257
Fe 9.976127638294804 12.953552187779476 7.920956197537624
Fe 11.729554522161562 14.916989059091982 7.259398815127989
Fe 11.661473251365106 9.311784992210209 9.67539005494675
Fe 15.905433901119903 10.482459685176359 10.151819890663718
Fe 9.982091099808576 11.234620979473782 9.59789048929733
Fe 13.96656832948787 9.190044051433908 10.632098543937609
Fe 14.880193497084136 12.292495039186266 9.038759481168528
Fe 13.736027788234965 12.076907834760302 6.875711628242332
Fe 13.857795220264068 10.220558059738341 8.477039825275988
Fe 11.658528614376792 11.05547609894457 8.011244601989345
Fe 11.553513413442191 12.727460059993454 6.2238025035879785
