54
Energy = -382.34791014 eV
Fe 8.487546110585573 10.622783638245943 4.412493890000653
Fe 9.802865828636895 8.470551267855896 4.911524288576533
Fe 11.119991760652072 10.509702535016702 5.4001936309397385
Fe 9.381327069267597 12.3309299375961 6.246285052220006
Fe 7.17584305660885 8.770036258644751 5.442348676644705
Fe 8.755475137637823 7.419827866776759 7.05891099614454
Fe 6.948796933929488 11.335303925056069 6.248385950338179
Fe 11.924005538746005 12.481013740782938 6.744012199205475
Fe 7.8741284543626096 13.678435632031414 8.150851627198922
Fe 9.030182666124823 9.897556159972332 6.455050950060684
Fe 10.366140712814545 7.159595152287919 8.977495565260739
Fe 11.154376237147977 8.483560230489118 7.113226209903034
Fe 10.154866916580099 13.216406328880119 8.592178986655473
Fe 12.927979674612692 10.168812158099014 7.345424399880112
Fe 7.794186931324021 7.454579290824906 9.379301934953778
Fe 5.258857355204099 9.643679541044506 6.7057079295858735
Fe 6.484409499360471 7.3236240924879175 7.422010140997367
Fe 10.71707088741677 10.920200778492445 7.763500510549178
Fe 8.33283120386759 11.45465959404609 8.219080130375566
Fe 6.0860820012477905 11.315836742618773 8.749240038657202
Fe 8.909402597172807 5.454990582890899 8.72787058609876
Fe 7.14136038298924 9.343005328467418 7.908812551291046
Fe 12.365346134062989 12.005427685295984 9.16464791431677
Fe 9.137442350118816 14.678123227016703 10.209437134917724
Fe 12.829403190092735 7.3993969373754815 9.288357060572677
Fe 9.342651032068161 9.237181322501879 8.645399063432746
Fe 13.930048308710107 10.11380682806146 9.552657942653566
Fe 11.26567601934419 5.35610758363347 10.11827815622648
Fe 10.071073144354637 11.075964106877331 10.008596044113538
Fe 11.68955800086314 9.34631536779479 9.56418554827925
Fe 7.424785441309793 10.129390508575845 10.410652972243343
Fe 8.090983798500327 12.599487864004752 10.321885832628878
Fe 9.310041520456739 8.729688919682852 10.868984719713916
Fe 9.110512889971282 6.20947196751703 11.066760361314644
Fe 7.0784026364199715 7.725244312589668 11.58435221117059
Fe 10.659879947272215 13.06282590859748 11.135912104243793
Fe 11.281706257296173 7.433318712907526 11.21486920540582
Fe 12.518139886310554 11.262461775619343 11.380867194447926
Fe 5.65763590089189 8.719549318236096 9.549204699211515
Fe 13.316615080601077 8.829596962807992 11.510556255729194
Fe 13.169540445952762 6.391095558159108 11.901723028573857
Fe 9.159174910525746 11.114569050118261 12.07593828651078
Fe 11.025682185325943 9.631938657525486 12.145977539594622
Fe 6.818889288556616 11.754122381966344 12.211232859589622
Fe 10.850455636224492 5.70453161761237 12.737946743147516
Fe 7.668876489675422 9.528433055304118 12.995607405648196
Fe 9.36874191490765 7.712217794178133 13.01754654645428
Fe 8.732720403399423 13.456685169099476 12.552174738640137
Fe 10.896126857685129 11.975251609844477 13.423438763751367
Fe 11.840212978769008 7.7995368800528615 13.640342401402272
Fe 14.162903254399561 7.95600186814031 13.468458796248365
Fe 12.759068278484907 10.040341408730336 13.638017649815978
Fe 8.437347014886381 11.621872238380275 14.204828812142248
Fe 10.043841275936067 9.786162048849278 14.258465191983413
