5
Energy = -27.96518512 eV
Fe 10.287203871651954 8.148239781651927 10.16379027657179
Fe 10.029610976015732 10.353290817959175 9.117753904487227
Fe 9.067158957706859 9.728584841028585 11.257510953117023
Fe 11.204430938685862 8.58584613067294 8.269089794502586
Fe 8.653622803584385 11.660088148024125 10.39041587381735
