55
Energy = -392.19484981 eV
Fe 7.413893634292747 9.088144532314104 13.472666336766437
Fe 8.963058585645976 6.724587408837353 9.797986519364533
Fe 7.560371846674812 9.004178169433988 10.653613833514985
Fe 8.939243036501068 7.4884740749238325 12.26792369300928
Fe 7.0146056436174105 11.104792127216445 11.97987398986585
Fe 10.93127474585323 6.892655219435908 13.619797678922742
Fe 8.9787959009821 8.946555712784793 8.128670518041996
Fe 11.082977475833124 6.616864123463833 10.988560544934915
Fe 9.855285056729308 9.007500662241789 14.431770452544736
Fe 9.11775921207326 9.952881696928166 12.18045863106716
Fe 8.622897988087033 11.131603989277895 14.305237961180591
Fe 9.89054095493679 8.784898747559513 10.264484519549328
Fe 11.030627733542728 7.436217613298441 8.483417047036994
Fe 7.4304337184239895 13.173058590489925 13.389543934398276
Fe 8.838368162527074 11.111206350720735 9.692390421888753
Fe 11.116883552243383 8.731275328243678 12.337785195791659
Fe 7.565954797090115 13.204687943999886 10.651540887864972
Fe 9.133022259452945 12.245232110385123 12.139760501367697
Fe 11.295802372489474 9.047046158254206 6.5556639221299156
Fe 13.108690525977796 6.755293067212427 9.573183285601958
Fe 9.77702842413885 11.07277680091906 7.00828381131535
Fe 13.187235134343146 7.519666564442767 12.221435258818085
Fe 12.384380515449633 9.016099231120917 14.363321835687263
Fe 10.970606888786536 11.134474039999805 15.6249939577631
Fe 11.144310353302751 9.963254587201464 8.656895054192818
Fe 12.355325056764162 8.740340783089504 10.278397332445966
Fe 11.112760450317742 11.089624986854778 13.401407791445155
Fe 8.959550498625035 13.187994935310583 8.14048143755364
Fe 9.85310177374158 13.230046616397656 14.411648535219477
Fe 11.12926858913659 11.075425428061115 10.946074943795054
Fe 8.986844013402672 14.735213256661833 12.285998530083077
Fe 9.897629518000523 13.502915766152944 10.279462407622054
Fe 13.293622055753454 8.880824607982802 8.091517802401334
Fe 13.124360935924845 9.951183459992631 12.17030602518125
Fe 11.105105696054752 12.250952678964767 8.709183072159838
Fe 8.852062424873706 15.392857086838921 9.728593519153364
Fe 11.116714068526221 13.450532040203532 12.332393286682468
Fe 12.574163009862387 11.12324925182734 7.08763886531291
Fe 14.630088736621277 9.034995401646102 10.500768448595721
Fe 13.679582357902584 11.10657122962124 14.308759749707901
Fe 14.837556362774409 9.14038747658295 13.332489700561549
Fe 13.35855253438086 11.112300843593237 9.72029272459768
Fe 11.16953513846892 13.126760582376487 6.5848956297733015
Fe 12.360756599120473 13.16531601619104 14.360370754848404
Fe 13.096495535199482 12.241573795224806 12.18539941799233
Fe 10.97338021057255 15.341067757947231 13.5601350264926
Fe 12.366687118894458 13.470557009923196 10.296413069630669
Fe 13.246693793124901 13.312850627862458 8.11659750137735
Fe 11.06987334701433 14.759863074152012 8.508371957868494
Fe 13.173316408626981 14.69068902281373 12.23823689288774
Fe 15.233847540693969 11.096724131047543 11.85711737653569
Fe 14.890848269546073 13.05345340344395 13.247735599159308
Fe 11.089695794636102 15.583710695596661 10.985026855544755
Fe 13.120291954705866 15.481121869057231 9.636018919092338
Fe 14.666854187736579 13.196083813876665 10.587619533658255
