50
Energy = -352.27614274 eV
Fe 8.68870942259116 9.164834811874883 5.117504550577097
Fe 11.230687976180647 8.34976956715996 4.894876251167545
Fe 12.741489837155218 9.644520262742683 6.444609257310717
Fe 9.542111648171225 6.992842386214735 5.910966965401047
Fe 11.973240111616686 7.273959733478827 6.82993951529098
Fe 6.230238597327803 9.969094879483517 5.482331332953529
Fe 6.9176895452479386 7.783771538908368 6.112006627984656
Fe 7.883659990951985 10.248808706824617 7.05997802917503
Fe 10.263581384283695 5.765330607366526 7.89294485847304
Fe 6.11022971408214 11.75627151439472 7.348046058315588
Fe 10.320742309383073 9.391197233651102 6.750449013012687
Fe 14.070314973823539 10.626458100529721 8.377753662659144
Fe 9.794943471752998 11.815719589963809 7.54899975954622
Fe 13.408633409239703 8.3757380217148 8.533507507852473
Fe 7.837239716850234 5.6896642106507915 7.154309278260613
Fe 8.524434415764945 7.980646046310548 7.78659009755371
Fe 5.421279662979051 11.066922753685015 9.617254176956676
Fe 6.158538800459864 13.280158002854462 9.297932221636962
Fe 5.4411359443995355 9.361658307967078 7.597821240850897
Fe 10.788678515330533 7.936532200097861 8.798919296401298
Fe 7.920316047970154 11.800615153131542 8.99833387301384
Fe 6.273823904761188 7.113074310342044 8.43416223202157
Fe 7.106218341214108 9.393920971955886 9.310842035426393
Fe 9.426870927899932 10.014735719350636 8.863155990783786
Fe 11.770719212368547 10.38169010776788 8.50756379849369
Fe 12.479195980510202 6.090885244101337 8.980233932534018
Fe 4.913669771964812 8.641379305856987 9.91520546740997
Fe 8.466698974247551 6.191333141138627 9.457281877218882
Fe 8.598197995513893 13.645056332618752 10.131813853354974
Fe 10.19358412530189 12.020367740151624 9.899083838971931
Fe 12.54865867564996 12.14239182068667 9.814986835906712
Fe 9.082423841553476 8.2526651500568 10.546302859704753
Fe 6.778125784760465 7.507061501810853 10.919212033946776
Fe 10.64030496837704 6.036241637535723 10.531143300376375
Fe 13.440837643327797 10.073322836254928 10.625917467125099
Fe 6.838072347690922 12.289980954666333 11.324648171203018
Fe 10.949541198935888 9.896510124074657 10.793094825559576
Fe 8.425239442205287 10.561250508517917 11.055986821801701
Fe 12.381736397787188 7.865726815522208 10.607318074588393
Fe 6.11375736463189 9.916317105569677 11.649194619488725
Fe 11.041643301343504 13.667066413316448 11.201301354949777
Fe 8.580585919200674 6.1920055790482635 11.899808723527357
Fe 11.79750431399402 11.628655518681935 12.074881311398624
Fe 9.36668733469542 12.392298531066476 12.257196706292538
Fe 8.002970993835874 8.50986018797421 12.790537478420504
Fe 10.38798792656978 7.698577596950103 12.385076204115792
Fe 12.274036411925515 6.431442386674163 12.380734032855921
Fe 12.237218476438596 9.13208834888718 12.689987559824113
Fe 9.918111657673627 10.050891361904267 13.03237148884478
Fe 7.61894518249094 10.909953030943585 13.287147441892246
