50
Energy = -353.63812125 eV
Fe 7.585950771823664 10.689532507372684 6.413441235887719
Fe 8.150058870664862 8.430567252280255 6.986263026741601
Fe 9.786334551581788 10.277677209638293 7.33066497368204
Fe 10.789770068802866 8.286696199563577 7.583812087617023
Fe 12.06394493535546 10.071244161001129 6.360415605392275
Fe 10.982845028402798 12.299856338014358 7.081276916351747
Fe 5.8946352820336 9.499943294206817 7.535824031415764
Fe 13.355135351969935 12.16792237663866 6.982786327611594
Fe 14.315698728440578 10.0472094780595 7.29325167420173
Fe 8.486975483582414 12.463277916844472 7.607378821822143
Fe 13.080021293459222 8.010904436558294 7.892717863991198
Fe 8.953379824246158 7.499532406799308 9.008203060843917
Fe 6.6361955673635515 7.753341825865955 8.935455373592802
Fe 11.218706848156339 6.618079974492839 9.249836214875613
Fe 7.979660992736035 10.197864074901949 8.986012132493961
Fe 6.263440686560061 11.67591298541388 8.417259401623864
Fe 10.071679804419576 11.713461633575577 9.300188746960007
Fe 10.011813766828297 13.997350213729334 8.8266610080614
Fe 10.172743177773812 9.339096418265243 9.838347633154894
Fe 12.308396251206089 12.834518756823337 9.047641313272969
Fe 14.501876285804611 11.725456894464237 9.099570803463498
Fe 5.484632588171376 9.476722393411869 9.950032686052046
Fe 12.215753521224835 10.397405324321914 8.687866098886216
Fe 14.521022737397983 9.317664942947882 9.490928486338728
Fe 8.181610110316107 12.78393279806213 10.143076301603873
Fe 8.799457689014222 14.644673985957544 11.144855387493553
Fe 6.628257555744275 11.17666198873085 10.782413090375144
Fe 11.358870668654767 11.38650527456874 11.172408449700555
Fe 12.383633095320901 8.403182921550751 10.123693576208582
Fe 11.117334795880963 13.778073585925535 10.87403525759122
Fe 7.792977876629408 8.688301887678803 10.896608220212654
Fe 13.600690458006476 13.117895049661737 10.969846961880982
Fe 7.219623378935987 12.662099584204649 12.46376566113847
Fe 9.93232778495147 7.318143147392388 11.253050524643895
Fe 13.509128257641336 10.739810144415674 11.155052237561149
Fe 8.975634539846041 10.85741071938526 11.435968355335952
Fe 7.935492414398088 7.152787319046102 12.662012040157176
Fe 12.278482314109759 12.674813231541581 12.907574231765235
Fe 6.705510158837475 9.938743303205559 12.68000395735526
Fe 9.571396604607388 12.89172798552247 12.382905701945738
Fe 11.33375688304868 9.091778889762239 12.164563777472246
Fe 13.941369212670343 8.522543131887428 11.934221576986607
Fe 12.21593102656889 6.684198927331178 11.764939708032426
Fe 8.196146380526093 11.200452835987962 13.964923353594019
Fe 12.897871119199278 10.34025328881679 13.47006027534483
Fe 10.404800577964739 7.068970816517222 13.554677394299299
Fe 9.03551509134466 9.079149003293717 13.149934317271978
Fe 10.54711264431664 11.040707485529984 13.470371754679087
Fe 12.717146805877313 7.839398972406732 13.839983651963745
Fe 10.897899790801985 9.135194359644686 14.741868364269763
