50
Energy = -352.30220862 eV
Fe 13.976801861146166 12.33420866753025 13.006520017121645
Fe 12.243827826229012 14.24701712253507 12.315109846257734
Fe 15.046349235545046 11.788530799841478 10.325028154079446
Fe 11.477203443026816 12.201421758571582 13.274435207534067
Fe 10.46298871658286 15.34835479183066 11.159209948369524
Fe 14.00494409223837 10.04405053119997 11.810108944755976
Fe 11.9214224023296 14.179279715620936 9.67959368107764
Fe 13.051991143317629 10.392180620199813 13.85557219156068
Fe 9.832785871353682 13.965790896907057 13.130057499011157
Fe 12.818706890942677 12.381166427012495 11.032466488167339
Fe 13.157784790206208 10.519905445516251 9.578793642570433
Fe 10.345824708701448 12.84200465450558 11.107101319827882
Fe 7.603560869242029 13.278292043714 13.051645571380847
Fe 8.965917650397424 12.051993741841947 14.618262275222145
Fe 9.580606928580494 13.939899034540863 9.060608376580705
Fe 8.301241826086667 14.46236122514298 10.943087818488602
Fe 10.739354073559735 9.947635075473054 13.977642809470348
Fe 11.126316355174518 11.740812418416429 9.191066820284322
Fe 12.110135685558022 8.323614213530469 12.575819557503431
Fe 15.22811221499433 9.308148486192488 9.796530114597978
Fe 11.324009326251788 13.122664714390051 7.351651040478142
Fe 13.486835801869045 12.736024382048967 8.568265665903194
Fe 14.96349209527061 10.825014977303162 7.941095344360322
Fe 9.315234524985703 11.234966842638848 12.57284389670719
Fe 11.40656270899486 10.38033960705805 11.542040491533497
Fe 7.93493887377302 12.160907952244301 10.994821681645115
Fe 8.212374179756964 9.739689655424495 14.206092854617577
Fe 12.64460398671665 10.852767598562446 7.155205375356625
Fe 6.72539113504936 11.271771213218662 13.385193110301783
Fe 9.420759152135918 8.828851820106713 12.422165831163364
Fe 13.0019698140316 8.28968717327061 10.36772986950152
Fe 10.496060245366369 6.584166829230688 12.713873299632807
Fe 7.238353485596961 13.091532434630794 9.154289854389893
Fe 13.568756684096911 8.669696172543471 7.9287765626567
Fe 5.766737910509188 11.731226884371681 11.126431124125451
Fe 9.366483107726744 10.31790620410187 10.349772403356189
Fe 10.513282991412877 8.068147126814635 10.54640625588198
Fe 11.25494987310367 9.385520457820697 8.740443715034916
Fe 12.058947398672174 6.1372254615825605 11.044428804536814
Fe 8.786239514111701 11.781453477156372 8.417635032190988
Fe 10.385192725514544 10.835856004541514 6.794544593903043
Fe 7.266364802972385 9.67183569164887 11.717694280067226
Fe 8.308067303980783 6.898119340099546 11.926458935996454
Fe 7.046400363247559 10.389490901391826 9.461390942653777
Fe 11.892194902373312 6.873759975158199 8.702002444822478
Fe 11.409482622579691 8.503609507921293 6.664084932592823
Fe 8.143772113060066 8.118241103845227 9.981581235593556
Fe 8.985817053964922 9.428070784145946 8.187836105253696
Fe 9.79249115961899 5.875354592458264 10.235935466107671
Fe 9.701884948532754 7.209478457814201 8.136334846266594
