5
Energy = -25.28512052 eV
Fe 8.450078348197833 10.613129565422422 12.294758886069667
Fe 11.790406930880776 10.44889052349539 9.09080089751315
Fe 10.128508434739505 9.91952441141423 10.732052406023417
Fe 9.633852401746191 9.488620642540491 8.553756119018134
Fe 8.150956664067436 7.827488881210995 7.632687087481945
