50
Energy = -355.7653287 eV
Fe 8.343383738289386 8.63743700118622 5.134460701467142
Fe 9.764724882153763 10.659125036025925 5.307297986507779
Fe 9.239672972387893 13.148244708845137 5.982913632297552
Fe 10.7135509129286 8.021131591669944 5.690749203060463
Fe 6.90165319799292 8.611362361542083 7.218900844471342
Fe 8.77858627736481 6.828612925179446 7.04750885625874
Fe 7.490481112421708 11.012216959320945 6.455541768620169
Fe 9.138580436699243 9.284340474719986 7.162565490888377
Fe 9.671869719313449 11.61141246985667 7.586920938318229
Fe 11.381595235668387 6.0217448663302795 7.011242109273429
Fe 10.20033907096352 13.76428103256802 8.429330108597902
Fe 11.537469612754265 9.981830040315451 7.013552417661992
Fe 12.984848784575417 8.057765384014951 7.133843779781845
Fe 11.600333138553225 12.339049875338556 6.538211032687203
Fe 7.701507839639107 12.923956986082672 8.076923308915958
Fe 12.54319751699865 6.7320664304955065 9.20595880045161
Fe 10.77159120941366 7.887538866125045 8.1627536331469
Fe 5.621222340016137 8.965954235624348 9.087497516846712
Fe 5.765457057436712 11.43777689081566 8.478229013394644
Fe 8.542792548910043 8.146460633973938 9.390235972581912
Fe 9.791428998636322 5.912687281026394 9.076772571421452
Fe 7.77532630535149 10.50845598309829 8.860223732071
Fe 13.652776482035511 10.653472197833828 7.770107141648495
Fe 11.853156516355702 11.766088674448548 8.84397005039643
Fe 10.160144088887312 9.884738024130543 9.205658523341935
Fe 10.895661559700775 7.700986671019338 10.56445958094517
Fe 6.933829257991629 6.6500043309524415 8.800621921101865
Fe 12.554937036966237 9.28300339715347 9.35950608433658
Fe 10.597366374976568 5.733764013214845 11.65147583863855
Fe 7.334568032235315 12.597579090482292 10.403902656632873
Fe 11.700209195988235 13.603747387372593 10.396094334334052
Fe 9.653723243772752 12.0390320914514 10.032490018375691
Fe 9.067881333528305 8.133323779841808 12.044657733716122
Fe 8.310211788281388 6.139258134857188 10.98574968008656
Fe 6.03367412823085 10.624915646688828 10.83047432387009
Fe 9.431831388065401 14.069198138049407 10.97339201889271
Fe 8.340920263991478 10.265743891694846 11.212626057320987
Fe 12.760412141850326 11.229254239434166 10.976244275733466
Fe 10.855695587620499 9.985588968564521 11.387713795934317
Fe 6.77011848988686 8.180204208197408 10.987070800298854
Fe 12.902484559806032 8.47399415154271 11.62347478594883
Fe 8.614034521186174 12.221691804042413 12.472857832449693
Fe 9.31311880068707 6.148590510472813 13.533104925641595
Fe 10.967951115020268 12.2820266181386 12.311746131304098
Fe 7.131209524838005 7.002277774975363 13.051052309575498
Fe 7.261464786217794 9.47477609550486 13.179529810020407
Fe 12.219779934470301 10.168195392550118 13.299070088988831
Fe 9.735592853991994 10.176492721049529 13.48387939297441
Fe 11.076226262431787 7.984076228451932 13.224867299219051
Fe 8.813229496053374 8.236345457266228 14.544390843087966
