55
Energy = -387.42289571 eV
Fe 11.0902142388369 14.740973879724129 14.008176006064138
Fe 12.112622633212652 14.471462267719323 11.928451317636217
Fe 13.041230095113113 13.266734571415514 13.796353373147205
Fe 13.153451016079025 11.57069859058155 15.50426372001434
Fe 11.04439266663208 12.509707869191061 15.199829124233862
Fe 14.57362481138346 14.34607655270846 12.185511192755124
Fe 15.08395144585756 12.098389314520272 13.717486981060567
Fe 9.305975143102739 13.460797415127244 13.419083290447816
Fe 9.598069666032917 15.344432104024987 11.930253125507706
Fe 10.948491540393036 15.451339537998942 9.903142906621516
Fe 10.313227427689194 13.351888196478377 10.89568038117495
Fe 13.595755235571346 15.297654405817006 10.295105242134442
Fe 11.38670686994818 10.058172710025234 14.953648928079726
Fe 16.053928023098383 12.531193475015044 11.668183210630822
Fe 11.321672219483785 12.169857114817955 12.78381671894243
Fe 7.749216184878799 13.454402769904123 11.382819651834401
Fe 7.245220422579114 11.923105561453678 13.243139988179633
Fe 13.041392635527579 10.730852056204714 13.361563589648016
Fe 9.30192414443615 11.047000485293111 14.244138409302378
Fe 14.871223913035521 13.342684378365053 9.806610330128555
Fe 13.417398378197088 12.267749604695672 11.551683226891702
Fe 8.604220034924518 14.687996336915585 9.64729763690128
Fe 15.156310796524135 10.204476799922057 12.344936271468354
Fe 12.325772777490583 13.369149216709483 9.640732829589883
Fe 9.170427712980286 11.573122151424666 11.933771901051038
Fe 9.14321341665818 11.959939810344727 9.407292380461625
Fe 10.2011725910253 13.738195545461782 8.230833835687294
Fe 6.971045890415177 12.521735377744971 9.079422512081859
Fe 9.379106108800052 8.608059310275294 14.271783748412345
Fe 7.884306951555533 9.593795607093568 12.716859342887684
Fe 7.024025172764588 11.11256920305477 10.781878472412018
Fe 10.779322399590605 9.72101573997705 12.584302774861364
Fe 11.246734608264555 11.10885671574823 10.421004195262139
Fe 9.07169359109385 9.699250681988358 10.637116962052628
Fe 15.44472143806514 10.823020293921193 10.148995514468204
Fe 13.509208871884542 11.431447593892326 9.08343816865031
Fe 13.215851771747557 9.920371600777703 10.957719105555665
Fe 9.002004543404654 7.647266645280643 11.8154279067241
Fe 13.004520154621154 8.341950235596661 12.638724320641723
Fe 10.978650165594946 7.205505532186318 12.971029950089449
Fe 7.669719533574406 9.990165096056256 8.657849220211823
Fe 11.402300753402267 11.692846905705023 8.047368340539792
Fe 9.078135263891673 11.388242748555694 7.110085398202574
Fe 10.178529472292233 9.698811760814413 8.61333754390929
Fe 7.114565596846394 8.435030085737607 10.450014902650976
Fe 11.22521745202197 8.399522952303071 10.634918425707156
Fe 12.480875767310891 9.337020558790321 8.507662054598171
Fe 12.550705559082044 6.329204771126616 11.35037746823683
Fe 10.281647355778693 6.05614461119177 10.627265926167883
Fe 13.77182050337788 7.91337809329878 10.07861173781016
Fe 11.00495500436179 10.106033737895768 6.339535762294628
Fe 8.68779106013022 8.952649626468569 6.807409819664937
Fe 9.094051994090451 7.648787909838313 9.091263130006324
Fe 10.743398562894235 7.844860210371498 7.043821258939892
Fe 11.76804147309629 6.918156733093539 8.96272352800929
