55
Energy = -386.72712827 eV
Fe 16.27974109124134 14.795078050839177 13.126178690668814
Fe 11.89339043783148 11.816571725980825 16.25484879856772
Fe 8.477484764835495 13.702981469865952 16.306739680847773
Fe 14.88199392645974 16.836506524114302 12.801025050668606
Fe 11.113436951372224 10.656736839971707 14.328049458271613
Fe 14.661200135188526 13.058557394847305 13.752369827390048
Fe 11.195998889773108 11.81400324484052 12.02265739741479
Fe 15.346013265000792 14.902308916281902 9.243490208683662
Fe 14.262901202057947 10.692329700270204 9.512313868490068
Fe 17.37204580206413 12.647796805295949 13.541537213944308
Fe 10.92383456633678 15.815101712302145 10.895818496507392
Fe 14.744734609661105 14.190804645982336 11.360533077291548
Fe 14.771250251895012 9.678337711755193 11.795319923291379
Fe 9.672640531457949 11.167889730779349 10.316218933626091
Fe 12.47214208238644 8.786539901089071 13.212378978928527
Fe 10.803270901035095 13.889817220520504 15.733392807730532
Fe 16.111136637367103 13.482445078156248 15.483963795802257
Fe 10.293168409778097 13.011304083011764 17.77818188821804
Fe 11.904078214254548 11.57942511960506 9.499353507455353
Fe 13.592944828834007 12.0011553398757 11.271361138228102
Fe 9.775246442132524 12.723369942251342 13.874110781201576
Fe 9.46469200374011 11.604735410224498 16.04934251587602
Fe 13.218172473852125 9.776591895367876 15.40881805987166
Fe 18.012545671544306 11.699942887844719 11.302410504735573
Fe 14.857792427413546 8.778740047312189 13.894700892463163
Fe 13.422003812523679 15.053402731930152 13.28453865767774
Fe 15.739116872374135 10.910586801513514 14.365987921585727
Fe 16.2518341478381 16.208577778722955 11.01565606418634
Fe 15.952810357571334 12.546453072081418 9.752414076123054
Fe 12.130690671569138 16.919297416986332 12.686824641829162
Fe 16.481749473375853 10.172607350440819 10.218259045513827
Fe 15.8176384640057 11.930580289661247 12.014592781524737
Fe 9.78021619909346 13.61955586753257 11.37344618046591
Fe 14.994177276340421 15.54371907478102 14.983882218055601
Fe 13.608234564204162 16.280200216673155 10.93986505640419
Fe 13.447982397721299 10.922040205310195 13.347387314947081
Fe 13.345148010052627 14.009700901735325 15.794894430939062
Fe 12.251722926382557 13.968239860726747 11.331763233175488
Fe 8.260766601068994 14.346824535979815 13.00959571502882
Fe 10.278889589613923 9.659392320499204 12.242761529216043
Fe 12.23033508742804 12.961228949897947 13.907359143030195
Fe 12.403942647642582 9.825957787612191 11.077986017692053
Fe 14.24045349460673 11.850988980154128 15.947510626092148
Fe 8.224357755076719 11.906746115151751 12.161885665652774
Fe 12.568631815136774 15.273589135953188 9.112001820679655
Fe 7.550059135260246 12.520547123275875 14.462762762829367
Fe 10.861077392751314 13.609570866825663 9.243773563356187
Fe 12.010805218378426 15.832199764318904 15.01715711114263
Fe 13.584731636995077 13.201791212281247 9.158202449063596
Fe 10.765245188730416 14.89659477267316 13.21019345395228
Fe 8.684317007379088 10.390590761501237 13.911750870393556
Fe 17.237695726135204 14.01498582807838 11.059530314523842
Fe 8.05788656440139 9.747207168942731 11.624459336730421
Fe 17.030019759078495 9.917624902985533 12.668567216925426
Fe 9.250142175813709 15.414683151819185 14.874435201195398
