54
Energy = -383.84977859 eV
Fe 8.460027291924371 9.171649718378708 14.617465071388265
Fe 9.450808089603102 9.077992852977353 12.404375703361376
Fe 10.788572457580294 8.0124096807848 14.200085227751813
Fe 7.054142691019348 9.389880633209472 12.082920584907498
Fe 8.708689751291258 10.59665225598523 10.55643083446544
Fe 10.277888422741047 9.494733302028159 16.199316004543757
Fe 10.753353312903275 9.27355330383208 10.348365898417503
Fe 8.793349619892595 11.401406678931275 15.526075153898015
Fe 11.4025766428232 8.865828061573989 7.609377989189697
Fe 10.417946433509275 10.480883759783616 13.974790427410538
Fe 6.574722664104282 11.444554701489569 10.79716885732115
Fe 12.011419965816419 9.25225624970473 12.510043666002902
Fe 12.330677482136885 14.050498296129224 13.652141827288604
Fe 12.436580835346662 9.578878040889297 15.070615567044303
Fe 13.386590518104674 10.923884136417643 11.476183561337646
Fe 9.900262782858047 12.845077692802292 13.820745323194833
Fe 7.824650367620339 10.968199230692816 8.388307852966237
Fe 12.98313743504419 10.848407824555181 7.669011918140083
Fe 11.303214661321634 11.76128343920236 15.738952190069247
Fe 15.826807725944295 10.840946073442883 11.809673453526077
Fe 10.33954942641535 10.683183728840962 8.4133394752797
Fe 6.790249705640724 9.220864887613278 9.691655816592636
Fe 14.290897092918508 10.001348629213805 13.586955762594704
Fe 7.712243557252373 13.247211829383579 9.173489933220962
Fe 8.50702386031289 7.809134050373514 10.6604836771257
Fe 10.583938245841086 13.900384811720429 11.79265799785659
Fe 8.278840403590333 11.198851607191505 13.055412650088964
Fe 13.279693423567323 7.639143462924711 13.51519528013154
Fe 9.17661819407087 15.028649273697992 10.356682736860614
Fe 10.805840717725662 11.4029490800361 11.7181912499548
Fe 10.62606338295167 7.049801759926825 11.815915272432154
Fe 9.874514175942814 12.628640848895738 9.64812645723463
Fe 9.083358197188728 9.905522316637324 6.512101672018174
Fe 9.002089655527438 8.726805614917552 8.615098450362945
Fe 8.363641338454686 13.007946589869766 11.57970826126128
Fe 9.522276329369548 14.530087550310354 8.047602690265444
Fe 12.109279938778174 15.646364445541584 11.728497198544437
Fe 12.112910228346896 11.68544303896358 9.621751429812518
Fe 14.511493267359803 8.838475197525305 11.466223721413874
Fe 14.546398025350392 12.488082144690345 13.202471279845522
Fe 12.789294990228004 13.200490495214384 11.360931308106789
Fe 9.238149715857444 12.40565241890052 7.022176856330324
Fe 11.557252337245844 14.44588562746084 9.52102705809495
Fe 12.392839272037165 11.711094022708116 13.59968680728717
Fe 10.878452514735468 7.188748194020523 9.387481239054784
Fe 14.337438959061874 14.76827169399252 12.482871484838636
Fe 12.735357199937953 7.335427046184323 11.075456072019046
Fe 11.20235266915199 10.97861588995847 6.170220119493928
Fe 12.945138229955436 9.219989388131113 9.554373755547179
Fe 11.482089780456656 12.936089702475812 7.607298144338644
Fe 13.70763172176993 13.156229356083264 8.757086820408734
Fe 14.730561543182763 10.903775843458366 9.561191224664725
Fe 13.809062951698017 15.132356132743661 10.11019611228189
Fe 15.088676314619565 12.995113020407564 10.81653035722308
