55
Energy = -382.32893663 eV
Fe 11.378679940009212 13.406806480479252 9.921324551512145
Fe 13.695603326740315 12.710831693858854 9.694345125318984
Fe 14.918658535653664 16.88963570316128 10.66768486508347
Fe 12.899006467032843 15.246082735849738 9.497814938946627
Fe 15.2498835632571 14.388253491974066 9.321166545950623
Fe 13.674263207766476 10.421199806960653 11.384174064170791
Fe 11.578257802024343 10.645654987865209 12.742493193331264
Fe 12.717204443500005 12.497045850474766 11.76500899882299
Fe 10.534069809357739 15.496191052441882 10.541961415751677
Fe 14.398198904881491 14.753827697964399 11.33062100135349
Fe 16.83204986762724 14.663356401004929 11.256834606988562
Fe 16.355340494092616 16.682648476728602 12.607696808129381
Fe 15.619531420460813 10.30876400899577 12.602375212692074
Fe 11.975023819120086 14.765564261945713 12.047773667379316
Fe 13.850210809686828 16.195592633318114 13.166310449657287
Fe 17.52396564489113 12.780235225060752 12.460180643400067
Fe 10.276387013079722 12.67841317226572 11.98664569733414
Fe 18.467459049478148 14.968153849922077 13.008686522437122
Fe 15.22735757485332 12.507654602749277 11.708846773852267
Fe 12.644134519933466 16.888955517634823 11.25188746271265
Fe 13.571396849748515 11.476384820468567 13.849922305801392
Fe 11.584550213749642 16.104073858263053 14.079200887487849
Fe 15.345071578204273 16.93363660189768 14.955710412684576
Fe 15.91480711949904 14.559944472931807 13.517514498573174
Fe 13.573866681761533 9.242307320368518 13.663542732170972
Fe 14.57907382035504 18.246308510613098 12.867886978243225
Fe 9.45128221225212 10.583296310170345 13.670117553972934
Fe 9.782571194199743 14.781424708629162 13.107171193984733
Fe 15.944094268654851 12.17001199758678 14.047085947522431
Fe 11.720844962292507 13.284013504154963 14.031139767723342
Fe 13.852640218880511 13.729871501241501 13.449678688150296
Fe 17.47639258610553 16.00944027003947 14.754297645284417
Fe 13.128999248813733 17.59919860813307 15.125760789823126
Fe 18.885073252580053 17.49645396637765 15.73332099761069
Fe 15.771209304390336 14.788858820118195 16.154297567751417
Fe 17.661863562824593 13.54243229784585 14.889141294323833
Fe 11.331604913174964 11.044882736677012 15.036920862164258
Fe 14.548472001541377 12.75278738173538 15.881658233696637
Fe 13.416765796716732 10.699934687953652 16.169304346410154
Fe 8.343465160890997 14.334059675585573 15.021557886456419
Fe 9.515176592320634 12.635816113200757 14.25368548823804
Fe 13.352702337314186 14.988775717070965 15.332569922195466
Fe 12.073148728630649 16.1781446076106 16.810214725494525
Fe 15.367629932291171 10.128740089630133 15.024845123358917
Fe 19.446067168259862 15.238946393414858 15.686025208582395
Fe 10.553402170231552 14.598610555814938 15.622400253036886
Fe 17.312245081961166 16.274892920594738 17.084764550488487
Fe 14.48795854499715 16.561845203466397 17.103448877122965
Fe 16.707853149018522 11.998326193818528 16.28267408105097
Fe 12.23145495098412 12.97588488049251 16.41674510712932
Fe 11.324524941584265 11.038488923243847 17.340342323679213
Fe 13.661212621834036 14.412855449159437 17.70348446953605
Fe 9.7378334745715 12.534848098337166 16.50821657843103
Fe 18.00016684577943 14.038242457941518 17.170098822864716
Fe 15.850345497845101 13.442445892463125 18.012474531836393
