54
Energy = -381.5362124 eV
Fe 14.514765174655002 14.735476091795588 12.000160036583042
Fe 12.974387655869789 13.932709560697242 13.798062273728906
Fe 14.229182615475501 12.388104866537049 12.152200734738999
Fe 12.375353958870123 15.771915205137061 12.322379170712084
Fe 13.89326381432711 11.173021117973335 14.198065530114524
Fe 15.12290494377905 10.041229930418632 12.410538475376654
Fe 12.330284607197298 12.216563217049556 15.709599357596865
Fe 11.977828944724681 9.86070848601982 15.203212184280643
Fe 14.485098869930079 13.49158500925298 9.852373742269398
Fe 13.081368749185929 8.9777757506117 13.363048721989465
Fe 14.325050251573733 7.862093039230589 11.669446691569261
Fe 13.406627532489207 15.693612059007643 10.078672808286234
Fe 10.635973602857351 14.145140795359335 12.659297427274723
Fe 15.309288523025701 11.340448761255793 10.319110054212691
Fe 12.369940012416263 13.494431965943328 11.095808700329895
Fe 10.601394264126846 13.546719343367867 14.928538461326916
Fe 11.800390949799404 12.013102007925623 13.326099667901333
Fe 12.728200378074606 10.590401111865615 11.592331330405825
Fe 12.762608378675932 6.6583999477057 13.150854589675784
Fe 10.835540331618612 7.902380366773706 13.856767575367938
Fe 11.07402589809501 15.314159392441976 10.260300433436973
Fe 14.030948673646556 9.484079888763613 9.966068248464312
Fe 12.555797643071928 14.041544104960002 8.470499228650533
Fe 10.08533690164926 11.134949093208073 15.115953681144063
Fe 14.411084983923265 11.641437071252497 8.189637841527363
Fe 10.692936540632873 10.016538520014091 12.774323170955292
Fe 12.4548550761012 11.528835898806886 9.450283355106754
Fe 10.37743656632288 11.985416665412878 11.251868230312501
Fe 8.64900828764357 9.416920068123058 13.81831206070743
Fe 9.136791121264366 12.220519588925189 13.269759315833788
Fe 8.475130366912 10.385348578284784 11.647044325696303
Fe 12.015081851786832 8.201491157207178 11.22652099529005
Fe 9.09709028831128 14.040058017181842 10.753970410061214
Fe 12.101410308480842 9.173919069467464 8.757822788049127
Fe 10.51615803825727 13.010408983500112 8.974918138010835
Fe 9.578304202529544 8.218892563029772 11.735775921219217
Fe 9.701892757894935 15.11664840393183 8.350855760272799
Fe 10.333378560091312 9.860519172203361 10.047871295144372
Fe 8.542345236519473 6.992396276363187 13.395166875934185
Fe 10.691062979288283 6.2384233961075 11.997494097425381
Fe 7.163597244060541 8.451109024588282 11.933184685035
Fe 12.20658656959298 12.046080690132408 7.153603788492316
Fe 10.452024574815411 10.812434177923095 7.812368984753239
Fe 7.490275814532903 12.439022031448149 11.321290386225812
Fe 6.7804379611684 10.24473349281027 10.054414348064597
Fe 8.59215765859681 11.650814770433342 9.455557977542187
Fe 10.440028533540222 7.190542203350251 9.65548400419864
Fe 7.898136160938749 13.745064318903522 8.793131582940745
Fe 9.99721673745978 8.437901387615787 7.773001521222426
Fe 8.316145531311706 8.407427760153052 9.757425733789278
Fe 8.350979578654151 6.324675738745153 10.956231094744048
Fe 10.423768205776716 13.576400443153481 6.6319640405501055
Fe 8.770679245070559 12.2706624132666 7.063511530657833
Fe 8.209660505244148 9.901366050449555 7.9897253189556405
