52
Energy = -364.74365488 eV
Fe 9.353203488635616 10.51664910965363 10.565053760821149
Fe 6.900744264436524 7.960305911742984 11.368551302104832
Fe 12.884471399074213 8.545888338159646 12.437019235818678
Fe 12.163593682655954 9.504803160885844 14.60327485200766
Fe 8.37394586250698 6.8840044392834905 7.668672123528229
Fe 10.834132910665334 7.846984006834228 13.607799910393299
Fe 13.517443991647452 10.075630760625552 10.786858515297626
Fe 11.469926267668539 12.546687086123667 12.094319543634018
Fe 9.326724486143986 8.266741931286663 11.750595381622013
Fe 13.671726455977778 12.4767208609617 11.205098285555795
Fe 8.554676845722183 8.609221509185172 9.272225363640024
Fe 9.546928958779874 9.711312577624108 14.195192709350836
Fe 7.86638499112253 10.022114200228158 12.46215891877264
Fe 6.296143475246967 12.724396356535786 7.390223141843665
Fe 8.543804869358684 13.199238201690047 6.714527464529923
Fe 9.251881266724801 11.863977897618431 12.80973594857967
Fe 13.85589278221611 11.751463233280468 8.963862573233289
Fe 10.97158471243971 13.28646450290798 6.078505267720934
Fe 5.760259459138553 12.167337644261957 9.597516415497513
Fe 9.84424425729395 5.873376934153251 12.71117043018564
Fe 6.003635108942795 8.071914811553343 9.085493618487082
Fe 11.199510455979297 8.72294349598004 10.226982418801146
Fe 7.544878478465195 12.16552787432343 11.061800705924034
Fe 11.672239733521257 11.33985293652594 9.94104913613689
Fe 9.754218976330613 12.779162761656536 10.5308772801833
Fe 7.770709162996352 5.916271126320192 11.945929635696551
Fe 7.268771880520152 6.1888156191310895 9.620651939916414
Fe 6.8358163403669945 8.814791130513413 7.055525066672197
Fe 7.900813526294135 13.575307389043271 9.095078571327647
Fe 10.62020288945864 7.678090743089682 8.105968490576654
Fe 12.720540681832375 9.505775807202774 8.497092253760528
Fe 8.257597401646397 7.579771930406162 13.675300601391195
Fe 11.515579173618436 9.14606274401186 6.394468208193152
Fe 11.844159808785577 6.173936698232868 9.340257058390849
Fe 7.375904652519399 11.022961964862546 6.097762404091672
Fe 10.297457280835493 12.778203050877744 8.309771578557026
Fe 12.93538956278875 7.386110629937281 7.616529125453061
Fe 11.966831893782336 13.761678943643073 10.035450403515046
Fe 11.08254640560189 10.110493841202702 12.246854419323428
Fe 9.599220327760584 6.495915659648619 10.07426835381467
Fe 12.616893640700054 13.552011007323934 7.855730829104259
Fe 12.139179687499912 11.38291437091433 7.157761096798832
Fe 9.86857529960807 11.213221882359957 6.243470763570254
Fe 10.358413622527449 10.166417720621826 8.395998318972547
Fe 13.241537046715267 11.006860528228312 13.091115964682881
Fe 11.605157965629825 6.752333245980879 11.546148217835487
Fe 8.132202968319298 11.157531398096191 8.379683972136
Fe 5.568881638269832 10.46820945225293 7.997807851306059
Fe 11.099656458156504 11.546033812791478 14.30873619166414
Fe 6.812654752436211 10.05645078875089 10.136549103357899
Fe 13.44353923148958 7.756772620086054 10.070108871455275
Fe 9.092842914967735 9.027608747210198 6.710689800587699
