55
Energy = -388.93348954 eV
Fe 12.156691403354765 13.31658191104252 10.0092001745803
Fe 14.461665098909947 12.711698020187066 10.063271662833385
Fe 13.71324901074191 15.263633458681007 10.42253891721577
Fe 15.920410102020451 16.254489760846575 10.755965156813575
Fe 15.686150139835624 14.08530475021859 11.57366697998156
Fe 12.75380689425632 11.06785836200247 10.844646655161092
Fe 11.205441163330583 12.468145283001059 12.2043644041789
Fe 13.485040190518845 13.142623781241605 12.141919330644154
Fe 15.290567798509562 11.790760364256874 12.766676990005665
Fe 14.197766199443965 17.912388075843683 11.089645693545666
Fe 17.05283158183351 12.206816233442392 11.233465138341295
Fe 11.673021879361706 14.845896302080854 11.81867512168829
Fe 18.026832578539274 14.428371220769337 11.489525083586553
Fe 11.030532784656172 10.031778263985222 12.46224303973037
Fe 12.118724163573562 17.12729085832282 11.582478722464092
Fe 12.477690051494431 14.147187915618362 14.040736088439498
Fe 11.521187242264695 16.303783052763084 13.775512675636257
Fe 16.7096647247719 15.655728163650092 13.112590518944398
Fe 14.024778287427312 15.805070906060198 12.684299283467489
Fe 15.88447634359043 17.829810604830943 12.62830865525531
Fe 14.175291625164741 19.788384746713422 12.6970716178877
Fe 15.167444329466901 9.918169634924467 14.310518301593431
Fe 17.352427712620315 13.263821516662146 13.398704533852746
Fe 17.46167224458705 10.990732321351562 13.920315603065312
Fe 18.731087112735263 14.749475059233497 14.549576651902749
Fe 15.018444728583917 14.061558393724486 13.871783826452544
Fe 11.267688125911423 11.755143556879386 14.484969779315442
Fe 10.207849757668612 14.052108207940107 14.242680029247083
Fe 13.733033836508268 12.224065421872796 14.5834256558477
Fe 13.23334760559863 19.81182548542492 15.048027811846222
Fe 13.433605323365096 17.86121942909824 13.747505645665203
Fe 13.077540426019791 10.673577509916557 13.10076352792718
Fe 12.938578100921088 8.569105608964573 13.843609901393629
Fe 18.18309285199683 12.772982275682 15.81922873701384
Fe 12.113515840567935 13.272721364287843 16.242682609040056
Fe 15.590172299399338 16.66183122932661 14.753733946356952
Fe 11.781115771378317 17.82550157755797 15.652922649786376
Fe 16.597636655469643 14.755057516796876 15.426172998633756
Fe 17.971129797534598 14.724069485491272 17.17543724726924
Fe 15.48466529691941 19.22010897415336 14.558336544545547
Fe 15.991377223077501 12.152137450985176 15.227703819073142
Fe 11.185561779685166 15.416011741307354 16.174365843027523
Fe 16.1900928751266 13.25667307565922 17.51702565597701
Fe 9.857979962585139 12.829889026479028 16.213641609460545
Fe 14.44890930099477 13.901280715589396 16.11403217126801
Fe 13.316300515052934 10.146050924742044 15.687071255199601
Fe 11.0599115026534 9.478549973286087 14.848756379264032
Fe 11.457589583838203 11.041931246432059 16.841802987248446
Fe 13.453735387639101 15.886736335137536 15.385207448577587
Fe 15.278205081986163 15.87766321822285 17.218775640983143
Fe 12.704275682569827 16.836521616466726 17.630944414966073
Fe 13.939870288669496 11.866689685073569 17.231032699698222
Fe 15.706231055342045 10.365849104320278 16.604274275497726
Fe 14.23293663405263 18.012851761897704 16.27431381490953
Fe 13.278635976261906 14.595967449943961 17.915334004079213
