52
Energy = -367.66862253 eV
Fe 10.748933181325135 10.792644713450125 5.504555130789448
Fe 9.046533646991625 9.25186651353791 6.3484227850025805
Fe 8.764787769004922 11.552904287152366 6.94090360683717
Fe 12.84135259584525 10.954970111984863 6.681896118506019
Fe 10.946411583021595 12.701468322163713 6.923931226046786
Fe 11.463378360107013 8.58423013794777 6.419963756831266
Fe 9.437194832246881 7.895023497004119 8.197458413687125
Fe 8.94455708877379 13.748328692674033 7.724656631263995
Fe 14.494433998445869 11.348810173292831 8.729705018404552
Fe 10.78030538447421 10.21608395796637 7.879179212894142
Fe 8.288856434304698 10.063279629113934 8.726049135018616
Fe 7.5990553557033005 12.37459463939707 9.159442419842282
Fe 12.404357266910225 12.285116692270867 8.707555251977226
Fe 13.02177031113677 9.440062308287077 8.587146104067335
Fe 11.763167750005811 7.503157102913116 8.605245579723928
Fe 10.792636964753774 14.269926238372939 9.018771600133134
Fe 10.372475992722988 9.331832808772097 10.010128024598625
Fe 10.173294608626934 7.023838389519404 10.458926682178104
Fe 7.930411753633105 8.216624737317437 10.212676318893925
Fe 10.019007302444424 11.869876559742293 9.346464435894363
Fe 6.349700996281473 10.46938843711138 10.35918825547455
Fe 12.254646712726469 5.793448246421852 10.25282949717953
Fe 8.296457588553643 14.738509610652867 9.75554392028806
Fe 14.037730133193461 12.178619782167214 10.99118302369616
Fe 12.222785449156797 10.771052877374727 10.459487359184154
Fe 14.602517810583016 9.774699759739757 10.467917402812784
Fe 9.23820742473056 13.173378664606725 11.059301610117393
Fe 14.211618666252507 7.322123733906781 9.709564833085306
Fe 11.776821232180462 13.23472322878457 10.93799419495679
Fe 10.271492234514366 15.275860931691795 11.184470117026994
Fe 8.564466281779502 10.493835018871472 11.250575536459497
Fe 6.875053690422558 8.912528482889128 12.241796687711785
Fe 6.191699147284629 14.174774682785166 10.485582662896874
Fe 12.55721975054055 8.214469362243817 10.959366002547878
Fe 10.587396544994338 11.37804161110686 12.171862602616514
Fe 6.983665365078512 12.396976599727793 11.425037914699706
Fe 10.846844325349519 9.013854562740358 12.309720746880746
Fe 11.191255998364912 6.5125782920683095 12.521980397246457
Fe 7.771243675832963 14.486699196432452 12.265503880075958
Fe 14.812323878367641 8.1654286355271 12.153353883978426
Fe 13.608907340479135 6.249229666660673 12.09025385738433
Fe 13.237176801900233 10.097529942402895 12.487340469984044
Fe 8.88419613194832 7.764569119228521 12.45835535120818
Fe 6.672325749278962 10.931119653895387 13.21243576739883
Fe 10.465611503559138 13.819502627949321 13.073412490443944
Fe 12.489683005336195 12.297720206710514 13.166160450100831
Fe 8.536119157107402 12.28566182467761 13.182786117211155
Fe 12.762434299675107 8.062536046476502 13.61034721806682
Fe 8.964588719125437 9.925147558541163 13.678604704275047
Fe 10.362088160774618 7.966772399925189 14.403100231435163
Fe 11.588307244040214 10.127878042784 14.30083441642666
Fe 10.380877123971727 11.99508600487943 14.619415268401028
