54
Energy = -382.15655439 eV
Fe 10.661817297345019 7.536373147873952 4.856849901990969
Fe 8.258355771115093 9.763775755822058 5.1017067852119276
Fe 10.517420280565865 9.487410337459991 5.857455875139073
Fe 9.702945116144969 11.739275366017417 5.977999359150288
Fe 8.636025325202136 7.657508403167386 6.247392071013279
Fe 12.70392651321528 8.38047097742265 6.226671439083099
Fe 6.715235799098704 9.14786378264619 7.0205019432656135
Fe 7.365828668690989 11.552026332820693 6.640713066899735
Fe 12.324379277413275 10.850224861130137 6.339340747063621
Fe 10.86141522350944 6.980738558905607 7.116551673508418
Fe 8.849157649145292 5.633834614586094 7.626294293411918
Fe 11.527658881816963 13.100445921571463 6.782160403036415
Fe 8.99264286664535 9.738298829185752 7.453594488871926
Fe 6.988319626623953 7.065463393443304 8.189511489714976
Fe 9.215280521354652 13.29961375848888 8.018757220824751
Fe 11.221173198127723 9.04673948128253 8.040808037005752
Fe 10.671424011811036 11.464372157254616 8.19949419258085
Fe 13.603684287147223 9.556935185447234 8.19115276034276
Fe 9.359592610316254 7.771986126194816 8.686903666251846
Fe 5.065896656610412 8.497648482315258 8.800337757517799
Fe 5.5945789472936 10.840062295177725 8.448722819317595
Fe 12.82768780977017 7.200927161864328 8.550338100310194
Fe 6.6503429823686195 13.161545229152125 8.472401297808592
Fe 13.039204911339656 11.969175801741306 8.391277996531763
Fe 10.831672809371991 5.868955150946568 9.275858739322837
Fe 7.355479017851056 9.169754218744625 9.482895897483514
Fe 8.127066514153569 11.441740447913404 8.85846529027279
Fe 9.715848934869262 9.832800185267894 9.657490580962783
Fe 11.27237110676472 8.127036419811898 10.349208183654733
Fe 8.13979284846199 13.329251174335857 10.399236611904861
Fe 13.639420277938065 8.380077894544682 10.499577082590228
Fe 11.979395827848938 10.516400269195707 10.09717292281714
Fe 6.646891598462708 13.376998428621414 12.238081882456381
Fe 8.387004516512063 5.899555894699702 9.986669776596925
Fe 14.274253125189269 10.672837434022366 10.1700101892863
Fe 10.186597810127811 6.236607095354535 11.658012412932914
Fe 12.542612830101664 6.170057398272018 10.895510820640565
Fe 6.146292589982962 11.767974246947112 10.510539180953664
Fe 6.42797235925737 7.25129026523395 10.60385170402362
Fe 8.061476155580378 10.681596428632394 11.26960575395002
Fe 5.484051752250366 9.557596310148199 11.004089508847354
Fe 8.880175407461818 8.091365066821334 11.089960471019635
Fe 10.140310446681056 12.159512295045747 10.48898079378515
Fe 10.270363467576441 9.898668657737476 11.983492531230933
Fe 11.8310058495481 7.816082735641425 12.66186765004422
Fe 8.872094858115544 12.360746817389794 12.670958001180079
Fe 12.798047067086967 9.878312614085083 12.231408594691162
Fe 7.872667147866879 6.423449081668565 12.451295770750074
Fe 6.568000913456766 11.014271689456573 13.001579017437868
Fe 9.52964194185255 7.9818208230242735 13.539827974931603
Fe 7.1985342757023965 8.728965604443417 12.605036168953294
Fe 11.257480543028104 11.749564881524206 12.811961406726207
Fe 8.828980316113007 10.329281735883116 13.858197583748845
Fe 11.182558097480344 9.646767412980626 14.214274750317324
