52
Energy = -369.02963748 eV
Fe 9.10586878653514 10.224767416931645 15.299071825080937
Fe 11.560095632374985 10.501392849550482 14.94941337088237
Fe 10.063599290689384 12.476809919032567 15.355591707805482
Fe 7.366006511992736 10.349340647801439 13.610377822811515
Fe 12.891967552622008 8.489568296777582 14.867627849528425
Fe 10.471042434931844 8.401930000176218 14.218896755120731
Fe 8.089802107395256 12.532354335314063 13.948205478903642
Fe 8.917898070794925 8.928107159191097 12.462293588829521
Fe 12.218674410207873 12.807039941205723 14.232188902291805
Fe 13.763083198623322 10.654782237001983 14.02623629639776
Fe 9.962930059115685 11.016316140502123 13.243287310832262
Fe 6.241103291283109 12.287133282000697 12.299030368332733
Fe 6.391300571614755 9.942646704878722 11.466570112132464
Fe 12.172771554687062 6.989993672907404 13.028024700379499
Fe 10.228834269606676 13.547831181348071 13.12449149609285
Fe 11.977876922369193 9.281850474989767 12.621884662638731
Fe 14.428450279567599 8.432297514369308 13.02085066466742
Fe 10.73582974165894 7.803200815906217 11.031900170281647
Fe 8.241968829692171 11.34064755756667 11.437020922176451
Fe 10.324544781412445 10.171846796924628 10.906713506037415
Fe 8.045095327981866 13.852261009027961 11.78812162024781
Fe 8.353082779955658 8.871790614491351 10.065537340922507
Fe 14.194052520573704 12.702207101160683 12.67572978013146
Fe 12.066399502431741 11.613522147401461 12.209293924927936
Fe 6.670852753319535 12.46595823033739 9.874791981933235
Fe 13.375950719342823 7.647467087886145 11.04110649626417
Fe 14.141783356378523 10.392704312961135 11.681047122448971
Fe 15.41453828526113 9.062726069463224 10.494027904643035
Fe 12.508112399910637 9.589434210745445 10.13483229242009
Fe 6.722767869075807 10.294786021545592 9.116950398297499
Fe 11.9950534528629 7.450531552125872 8.969982863544967
Fe 10.281874420113667 12.595212272347158 10.968676167398725
Fe 10.366633707385647 9.070041717843601 8.712214310877195
Fe 9.020758961589058 11.210229074310686 9.111868066086402
Fe 14.188672540083513 8.2791309341882 8.65303965240774
Fe 15.59251711079839 11.903950956248764 10.72873195497487
Fe 7.827754817971834 12.088123418338702 7.448974133179711
Fe 12.33827366055828 14.123482949271617 11.79693968594045
Fe 11.451898094257482 11.38618880283658 9.033218719937457
Fe 13.243663758594195 12.420390102705985 10.275181707192774
Fe 8.775001027852241 13.626466714836559 9.499751761262909
Fe 14.307511218066029 10.756054668624278 8.922602179352728
Fe 10.23551002721901 15.008317730067784 11.081469478975603
Fe 14.718612837424285 14.289653220377149 10.894090864534835
Fe 12.461248217115328 9.752230266745528 7.623861116436552
Fe 8.385141440220831 9.62025541990754 7.4372948270493415
Fe 11.399641446075709 13.793829597739865 9.313502035161658
Fe 10.074194709714137 13.043816000020003 7.513329027824582
Fe 14.781744780469708 13.128317900117617 8.653144940877857
Fe 10.31306716287182 10.846328537555104 6.8392614494662975
Fe 13.200223215760479 14.956740032245925 9.353497326894413
Fe 12.793547401376577 12.494984122134474 7.585584340347646
