50
Energy = -352.0902287 eV
Fe 14.86816399035987 9.319939376792812 12.06681211008055
Fe 15.343790032859935 11.600458575714027 11.58749417855682
Fe 13.794899997040012 10.674711344260746 13.748127205334804
Fe 15.038278975645115 9.668411424897675 9.775988075799889
Fe 13.07223903679488 8.368459406727522 10.470117264844168
Fe 12.493546038451298 8.995659673872655 12.640390022406496
Fe 11.599680365253631 9.88075298704407 14.805076713439869
Fe 13.203371332697849 10.967609390075772 11.09039276149125
Fe 11.05281264995999 7.4080725877156235 13.870411861345849
Fe 11.930913912019662 12.396004378013126 14.707828822132974
Fe 10.838594901280615 7.489173859401985 11.375542850453085
Fe 13.824920600073336 12.839205518911273 13.111943835091672
Fe 12.882407553750152 9.969327162052453 8.670123465576768
Fe 14.687264933185395 11.871124857338508 9.223386443541695
Fe 10.960719027127636 8.299071201786065 9.126140914905799
Fe 11.502733059200843 11.392453233580248 12.770793124370934
Fe 10.145782213733682 9.275962104466922 12.803721784670051
Fe 9.233820515670836 8.536366922852952 14.838630786757975
Fe 9.552040691837988 10.967478918326744 14.491897241589465
Fe 11.06473492311732 10.106601253847964 10.681433127419023
Fe 13.472430835058828 13.37200769999067 10.762351980815241
Fe 8.623210982931893 7.349726955519678 12.470690890420498
Fe 12.023085510680225 11.138477920537472 6.627429847332951
Fe 11.898780607443124 14.112484988579556 12.410446785374488
Fe 9.921848664597851 13.212735130439722 13.243653949624479
Fe 9.099829946941641 11.219855701943235 12.145148253715538
Fe 8.885790997533979 9.207303149457694 10.670485582572645
Fe 7.721729636504529 9.422749047179575 13.098452226099793
Fe 12.370846684115149 12.343209694822805 8.89701760574704
Fe 8.740537507120868 7.095315008900253 9.776690608845099
Fe 9.899105611606728 14.926278326335183 11.396744912632867
Fe 9.684461428438526 6.977378327417296 7.5851808331191135
Fe 11.156110855996136 8.921230417747152 6.840374847692195
Fe 10.7893034797229 12.587136010420428 10.738053792401844
Fe 11.526984686401592 14.52548643149061 9.67749517748656
Fe 8.822531151381021 11.438518255991914 9.860305892426824
Fe 10.595243080229041 10.90899566395163 8.407917966262195
Fe 6.787427427701581 8.343875926746435 10.829693637488498
Fe 8.316776211819521 13.25325279806202 11.432337476472203
Fe 8.949701132361009 9.306768948765944 8.230434480981906
Fe 6.895907501617527 10.746086388675357 11.231898668497767
Fe 7.284137222143551 7.763763923176553 7.9235681331166425
Fe 10.486524281821083 13.058549283405032 7.475055997699334
Fe 9.1858911220103 13.707399757870359 9.17466936983651
Fe 8.877373988964523 8.467559186879182 5.900632905362389
Fe 9.598143489931369 10.733794730829617 6.088999161110751
Fe 6.882984972494199 10.15338211350756 8.969942063823597
Fe 8.281144652491918 11.793410829725856 7.640125179155557
Fe 6.946226600988609 12.662435533674895 9.449034390825753
Fe 7.160280096942928 9.893141138823507 6.61385800783706
