52
Energy = -364.43037077 eV
Fe 12.450792183005893 12.639680977202278 14.226290475077992
Fe 9.116061499202358 12.569993747729068 13.60063989606388
Fe 16.035911726577837 15.174476546061195 12.249127811424973
Fe 11.420294904116709 14.043341813787453 8.088517890902562
Fe 15.699960664647165 11.474832885188063 10.478206973706387
Fe 11.310343172334306 16.624084915707158 13.460556623815902
Fe 10.752878298492627 14.254522425107643 14.245732908415151
Fe 13.048983681037413 11.35737560039802 10.704326496749118
Fe 14.358556344794563 13.836719730690021 13.450309355187164
Fe 14.109820664894654 9.26174032439536 13.599059317379826
Fe 14.128437692430907 15.676013594059826 10.808457372352859
Fe 14.35005502377596 13.381416777079538 11.175069608184875
Fe 9.478729777318282 10.896919622598299 11.874748720198417
Fe 11.956155398645986 10.55960566657092 12.712651913232897
Fe 16.485617272878706 12.826711018204485 12.262451462828876
Fe 10.152491476245219 10.19004765227969 14.170138375464491
Fe 10.172294039831447 12.258575541178265 9.69429038893073
Fe 14.038531062030469 16.444805930783975 13.109070527492445
Fe 9.429722527630503 14.908682647079594 12.465169890487724
Fe 12.035843516999574 16.027196203028726 9.610175507809291
Fe 12.104598117669653 11.61167208036653 8.4248321225646
Fe 14.012054808146106 14.689645369899463 8.661910320387534
Fe 11.129911254106263 8.228697995453325 15.627609229795828
Fe 14.332045762952413 12.339813625250752 8.749300686619426
Fe 16.233350823398197 12.881086655598118 14.591353149209656
Fe 10.40620464536297 16.748119804615932 11.24046260454994
Fe 10.506147616270106 12.160509316482429 15.529166629357892
Fe 12.358742687836932 10.17581445037491 15.058193320433757
Fe 12.166373595552939 14.88369987140913 12.137238852108466
Fe 13.868219875697854 9.911422248879127 9.210370104579699
Fe 12.620828201472053 17.476183469495354 11.503989210722782
Fe 16.070279889346146 14.029682808697135 9.924583621540997
Fe 12.855437551682348 8.819452766746307 11.28611806623362
Fe 12.867006217287619 15.288791987443364 14.749015625372666
Fe 14.14206437628518 13.630132685485219 15.941533504744951
Fe 11.080106227717593 12.709851992845318 11.99892640444027
Fe 10.218230098607393 14.549394072594717 10.284582753815663
Fe 11.771555704325321 14.046483382884183 16.470208642158326
Fe 9.465116321760856 8.07767832192039 14.01881545546994
Fe 12.420321899077999 13.56790573643246 9.97730778175816
Fe 14.46874431032388 11.37600835949973 15.039772688194477
Fe 11.973852542235669 8.133519637319607 13.478747275052825
Fe 14.222194454172142 11.46406441134352 12.749317483947326
Fe 8.570004753813224 12.999562868878652 11.265994317259056
Fe 12.747840878252138 11.792320347747427 16.828965772111044
Fe 10.662484381966564 10.222817803609116 16.841627431705287
Fe 15.465197615325147 15.338037903662462 14.738163653308023
Fe 16.260064347483162 10.617594755767083 13.200982087423533
Fe 11.184498634852655 10.16821609775674 10.277070228204373
Fe 15.112650434371934 9.454724758411075 11.296394657186564
Fe 10.69480108814678 12.373579113091104 17.846649663519432
Fe 10.316411918464167 8.665586498414857 11.90461281467337
