55
Energy = -388.13267618 eV
Fe 14.39110800343805 9.355093549901246 9.409494811595993
Fe 15.279575289971072 13.475984164772692 13.922496832158489
Fe 11.121690207317254 11.24243746678291 14.149770237049063
Fe 8.356818632569563 13.238370263792794 14.263780482283616
Fe 10.451495429631139 10.26966744182626 16.404305540872162
Fe 14.850809733031664 11.698846393261121 8.457542929683324
Fe 15.753869945999472 11.15244049089219 13.144847806143671
Fe 12.261309942825743 11.927289139472965 16.230691899702006
Fe 11.913798160065014 14.274695178430655 15.58670439794599
Fe 10.81710600010752 11.05474898761112 10.015374621813002
Fe 13.74493138039596 15.092299068569881 10.244230700488469
Fe 11.342296672025212 16.162276520554606 14.08364121930299
Fe 12.094519078962966 14.717988484581532 8.36755469529487
Fe 10.943949429056424 7.346213558117425 12.473278405867685
Fe 8.648011967031424 10.463582767666574 10.711790243132862
Fe 14.510550323491495 11.500931067775058 15.182244194955098
Fe 8.960839954516233 13.92266616483573 11.867013732301752
Fe 11.212375173144512 9.832114235028683 12.16167375347375
Fe 12.990909061947027 12.80367023129228 9.761381254924382
Fe 11.754142991062913 8.965142969412227 9.007252134603304
Fe 15.484043670981189 13.431761385451859 10.026671624175707
Fe 9.059125689329006 9.239005662921668 12.8181270208332
Fe 14.195240315381854 13.835116622360996 15.95460766063031
Fe 13.668998457691547 15.326204540411315 14.120926089805742
Fe 10.474498323234567 15.794423058856875 11.991133497311361
Fe 8.823084624917819 10.793265983267915 14.70323135388832
Fe 13.099758945622831 10.683293071776463 10.824002704307489
Fe 12.689045807257148 8.33932766666979 10.977627473138838
Fe 10.900216842112606 13.95739796276406 10.372451981086686
Fe 9.013630772358285 12.7041510148479 9.864930763982633
Fe 10.871291944256416 12.679246434946796 8.233479369168652
Fe 13.384163773867842 10.721518284072037 13.21214750952789
Fe 9.974287599748964 12.658846051989833 15.865658276931871
Fe 10.04133761257953 8.513620237482792 10.567204649878017
Fe 8.799264244563886 15.508046976546405 13.670274515794222
Fe 10.678491389530562 8.805279766469297 14.489709524196714
Fe 12.934085473538055 12.903844193131967 14.068667231134597
Fe 14.707905357951054 9.14472673510486 11.928938276722063
Fe 16.507380176770326 13.044433972459315 12.001493172573987
Fe 12.702362179063456 9.732090589776357 15.480014630951139
Fe 14.20956908664743 12.669334767741521 11.88119566840564
Fe 14.806986099505234 9.179603896200712 14.358873418855532
Fe 12.503694443134345 14.531524937210756 12.207039607951378
Fe 11.815999460889575 16.357408058180265 10.192795238162937
Fe 13.058792878975304 16.7709293279011 12.228340679070277
Fe 9.697690176747646 15.054609551490337 15.645689870730425
Fe 10.65926684967609 13.68754658508979 13.608161072074717
Fe 12.825509583296252 8.343502364076876 13.380856067104215
Fe 15.544898074729156 11.032087193037787 10.69127136588189
Fe 12.981100613262647 12.812181940731815 7.108790186535258
Fe 9.394243511580344 11.72857779186278 12.469432008835767
Fe 14.444932915749522 14.281730739886632 8.054953714264784
Fe 12.738727612859243 10.919747548861775 8.425974549124874
Fe 11.752041189576483 12.255812878452085 12.010868903195872
Fe 15.181326926022882 15.086444063387564 12.142490430175334
