53
Energy = -374.05463959 eV
Fe 7.76281075380364 9.57733170281295 15.100369199994379
Fe 7.725032522634317 7.754954313141434 13.185609691189445
Fe 6.2966558883551045 9.581597540932872 13.16746888748987
Fe 9.691461373265106 8.281682097281907 14.435668789306012
Fe 6.871860532693128 11.953934755128582 13.457568025790387
Fe 10.405965121709666 10.531113991356156 15.136413732464078
Fe 7.664017863977563 8.965195489075688 11.051220434798324
Fe 10.966613453754778 6.502810813518795 10.768230872218192
Fe 8.726004961144177 10.176402757480062 13.12985699496531
Fe 9.735092217187622 8.073820635059715 11.946442125156619
Fe 6.504831808261297 10.933797456523479 11.240984859079186
Fe 8.649158514607445 11.904359924571535 15.004517107220483
Fe 11.914236414475496 7.39578077507201 12.828224787785864
Fe 7.001171185566729 13.923048536239326 11.967042016459413
Fe 11.221506606556916 9.698106878390973 13.102240466847947
Fe 13.369191233363088 7.109625174307869 10.828275943370533
Fe 8.343693359171004 12.137228825571327 11.601794508210817
Fe 11.625869018054813 7.423186605814815 8.723080802470516
Fe 9.704856194943993 8.488097786607435 9.489949811649705
Fe 8.421501309351132 10.83173994210717 9.479217221071483
Fe 10.393697239581206 12.219986226524004 12.913331224028628
Fe 11.949561338689199 8.913747329442684 10.826927380264667
Fe 9.937663057088107 10.321844390340482 11.119002295551832
Fe 10.985317552171477 12.956308718747959 15.02757495893357
Fe 13.51556527048352 9.295436255772477 12.59899949320662
Fe 12.653292028656077 11.244991624062251 14.1213900759482
Fe 8.634989008347729 13.84356634856922 13.626125744592095
Fe 12.191511230962634 11.476747232838225 11.518299534094579
Fe 11.30045185616386 10.361030175301096 8.971843649455128
Fe 10.311724671329829 12.428508076441899 10.262130762774511
Fe 10.966434432376733 14.684776640019319 13.359102386190646
Fe 9.571477696809906 10.021101335932908 7.452891198967736
Fe 12.945414319921792 13.297138748074879 13.1609506797022
Fe 14.56100285059137 11.386616578261162 12.36756950334866
Fe 11.713126536299207 9.077178005980361 6.958774780846717
Fe 15.066221506307588 9.042499528216455 10.801644683751386
Fe 13.566948696405465 8.621203951755684 8.804355571326358
Fe 9.79861017777845 12.440529044524784 7.966323369870833
Fe 8.22565856527801 13.460432987102115 9.683534894626645
Fe 9.498442518882264 14.441196160239706 11.488113924574092
Fe 13.704219930532783 10.69838286491161 9.999908284213038
Fe 11.924667229862784 14.006288337094643 11.146280767543571
Fe 12.35241790539442 12.509988146856191 8.939136859404982
Fe 11.487053876642985 11.568802410577458 6.643354763786734
Fe 14.122349299441135 13.100755179952833 10.751289741323674
Fe 10.66796451435879 14.530419713409445 9.150540645703714
Fe 16.02530269078687 11.397190685468107 10.494118292427254
Fe 13.51347851596652 10.696508338449306 7.503677563782624
Fe 15.581301180070149 9.993312900075143 8.524834294451148
Fe 11.479084595392925 14.003875317377865 7.017014365005145
Fe 14.930131197647377 12.431160465831908 8.599324913659085
Fe 13.255892859531412 14.561216920951654 8.83076548783496
Fe 13.588859016900223 13.036545632368485 6.757691731913772
