53
Energy = -376.76075835 eV
Fe 10.058598066402011 10.103350261164815 6.698665801337386
Fe 11.63117865133659 11.667632034980562 6.9529126116090465
Fe 7.653470881314946 10.673338377413572 7.11913563812401
Fe 11.359445293315135 8.353670141531591 5.5034870920876475
Fe 8.408475010267033 8.238372232297255 6.2191810590611745
Fe 9.985432119490225 6.180865469603336 6.1363030648665315
Fe 11.059675754317293 13.664399154860241 8.01149261794835
Fe 9.158696982369797 12.581459858540123 6.826580054026376
Fe 12.581379972967875 9.37471422814536 7.348259648534806
Fe 6.421570354809366 8.396807102841716 8.131766231376497
Fe 11.061576600132025 9.634883288667474 9.141990000762137
Fe 12.457808197013419 6.626408517568849 7.043730943554357
Fe 8.715943165385251 9.12680838460033 8.429277755089615
Fe 8.358725184423914 6.586281608395818 7.99013052078636
Fe 12.286388584666016 11.726842531147923 9.197739717696878
Fe 7.144642657919698 12.470544283936258 8.618146832899223
Fe 10.533164099088449 7.881226055300915 7.500793589745551
Fe 10.672950921611083 15.474254802306808 9.732110607669858
Fe 10.831589968663778 5.572621758530661 8.464907951184816
Fe 9.564813153680847 11.48782201039287 8.855615983888912
Fe 13.040868112743533 5.4611295287091925 9.496746735644882
Fe 12.800562418989154 14.03116187076378 9.75201256573762
Fe 8.827334801308135 14.030257748401487 9.02667483885416
Fe 6.266604378417972 6.243141370398603 9.28223827259212
Fe 12.420285047267383 7.652714774969171 9.195721010512797
Fe 7.651689148291019 7.846402169308882 10.17480465580983
Fe 10.676971852793272 13.120172728710322 10.338439919379022
Fe 9.945248067421552 7.414349189884913 9.720054241814312
Fe 8.606434352907629 5.498070957499469 10.235762436060497
Fe 7.0639259721885 10.341539591396627 9.653478502304194
Fe 6.9231738366680045 13.79866470265109 10.717592591805396
Fe 6.84002714499016 6.441422793682531 11.745783979034373
Fe 13.209005595376736 9.809666064599211 10.406859677763553
Fe 5.565963469746056 8.630877697753249 10.591262686001528
Fe 11.285890196115782 8.477731562370014 11.273132599008262
Fe 11.321767397804287 5.969000509301902 11.012292382209658
Fe 9.059174052074422 14.692792441054047 11.437411579684321
Fe 8.54290369137543 12.151359998317883 10.893022341776932
Fe 12.701536987014787 12.324298508536918 11.746020117543024
Fe 11.698137193003541 14.701404588892643 11.807239336673899
Fe 10.925622057271406 10.939315389233952 11.353817399697862
Fe 6.651842592372525 11.111636737202074 11.825631721480324
Fe 9.084179767672623 9.625089964734666 10.877498483751838
Fe 13.418687244982042 7.4084578867966 11.384065356394443
Fe 9.256159050570314 7.178240676348576 12.069502593220918
Fe 7.419381800722616 8.889133227393033 12.409850914651091
Fe 7.783620814076103 13.212409174854496 12.95027127397085
Fe 12.716489022592185 9.635959602608747 12.735762785403585
Fe 11.710098584248763 7.1802028552133725 13.154060754165934
Fe 10.224678861449766 12.999401210157908 12.70869927021483
Fe 8.84608838567654 10.998688625131324 13.077545721339964
Fe 11.39492627931413 11.260539415665544 13.787907739271555
Fe 10.225078080107089 9.152346211959683 13.28648967070511
