5
Energy = -28.96232862 eV
Fe 11.433364877314274 9.194936297839924 10.963684774584344
Fe 8.952025760955417 11.168194878679149 9.094858351533837
Fe 10.459826834474743 9.444509311140223 8.885560175115007
Fe 9.089545299865856 9.431482502925329 10.701737479962771
Fe 10.436380133144734 11.267359101089111 10.850410048474217
