51
Energy = -359.10278587 eV
Fe 15.085894217922853 11.939435167007034 7.904062823941102
Fe 15.296418760841721 11.793677295038604 10.238248657528624
Fe 14.59305295133416 13.93589871086634 9.401718998716241
Fe 14.664582281686158 8.48337500914545 11.022724247145375
Fe 14.17376947213855 9.891154301534632 9.189069280575294
Fe 13.086566989773047 7.6889971811040185 9.074590554582622
Fe 13.241696765309136 13.454875082323275 7.389020266638498
Fe 13.673632340214922 13.004951072577827 11.652551917268479
Fe 13.315580275392733 10.632288689915871 7.11414372864168
Fe 12.936746948081947 12.206909981060617 9.30167066064741
Fe 13.468017972980835 10.60965100876288 11.373462820040139
Fe 13.218155870631884 6.644960245049521 11.267493291063438
Fe 13.372447799295273 8.765509767110784 13.00682408121259
Fe 12.280509687636464 14.323270864627933 10.200994976516695
Fe 10.65774599364734 8.062777210761757 8.637145800526493
Fe 10.935060919945746 13.98498822146463 8.243329923298578
Fe 11.2105456752082 9.820959918290747 12.929508842179533
Fe 11.986968747065958 8.702051064503358 10.862370882304585
Fe 11.739749799685642 10.185312313943959 8.997895061188938
Fe 12.670052591573011 11.607635741660074 13.453910591225506
Fe 11.350419205303247 11.836423037861788 7.265394783436594
Fe 10.876708441379158 6.590037760351647 10.450932478877737
Fe 11.470223778198852 11.91925303243066 11.268103210692402
Fe 10.578734810192111 9.710180283616172 6.592311932212644
Fe 11.589303221763474 7.196020817260345 12.896263778589525
Fe 9.958286346441092 10.02926159847081 10.686180011211373
Fe 11.558787408017116 13.948301346179422 12.522726717243385
Fe 9.310313327256178 10.130288963780247 8.407057205335397
Fe 9.133882189657331 12.306193101198945 6.86846935052474
Fe 10.363939432592906 12.325832636670368 13.702242018241254
Fe 9.58916306255123 8.016973391370907 11.91634341881605
Fe 9.915576456781922 8.243257020644258 14.434838468727117
Fe 9.991897949315941 14.10967093951237 10.733424814346613
Fe 8.541927000236491 8.153952303490405 7.182975693574835
Fe 8.575708524398738 8.089933764284904 9.774594999584245
Fe 9.785340804114895 12.264136027542406 9.256401143247118
Fe 10.377503344546609 10.503016834851543 15.100749786610939
Fe 9.160831944233587 12.028540236486204 11.725736010863516
Fe 8.76609329699222 10.062471347764637 12.932970335751907
Fe 8.031194770022507 10.272954972133387 6.519483868546175
Fe 7.717428848117188 10.68533285993219 10.219829932781973
Fe 8.478617799859899 13.877993685130171 12.791649053357354
Fe 7.002802952572393 8.899809296468073 11.535897885153775
Fe 7.302286120577816 11.882906474015138 8.26877196694093
Fe 7.806105041987609 7.806773986648159 13.535922033602537
Fe 6.959228342447223 9.312147220123414 8.316779287259942
Fe 7.726475404411162 13.211686695549506 10.278552341613286
Fe 8.125346306587012 9.624012332770201 15.307369739711117
Fe 8.048072397140787 11.851712448277139 14.285873400805466
Fe 6.767866490248299 11.673221024941803 12.148707458885754
Fe 6.41741110437963 9.887256745453966 13.698353532619725
