55
Energy = -387.87960978 eV
Fe 17.673254845758937 12.60379731509587 10.433241657029717
Fe 16.35134431715258 14.418024781730283 9.401511013057505
Fe 13.960138656355607 14.364768596685785 8.769667082403913
Fe 15.304471656149445 12.290305943612834 9.084798015237373
Fe 16.46118941479227 10.581021449942247 10.08627382118744
Fe 11.94882089992996 10.532756564321215 10.249364824836432
Fe 14.60961503776655 15.051042347733086 11.023873844564044
Fe 13.402267555461254 12.732728420494528 10.399071992190752
Fe 12.26151967089913 15.013419001321683 10.354836422603698
Fe 17.169177979238846 14.944473866864588 11.513658667028814
Fe 11.016526236719885 12.9737194698767 10.317778800826892
Fe 10.647461969530662 9.713159866234443 12.286695249069073
Fe 13.19200019510424 17.027209783723386 11.416062753186836
Fe 16.683882346938596 10.797516359285426 12.40027774986397
Fe 9.777577020224175 14.811552196478761 11.10647840907331
Fe 15.66087952530652 12.811135719876923 11.543062872712474
Fe 14.35406278908871 10.724423220357853 11.117683300232137
Fe 15.709088545127303 14.45879099081219 13.240209345624324
Fe 11.427458211257724 15.84767720480068 12.386447160575447
Fe 14.07940297688895 11.972584073881418 13.141331277782987
Fe 15.4903566187589 16.7919366615046 12.542678060887745
Fe 11.891788847362939 11.705575597574569 12.177500279083715
Fe 10.467514756875678 13.583788034680943 12.88303193375204
Fe 9.50204098403376 11.780917236728243 11.698833015354445
Fe 15.489174509924824 8.717945372505827 11.46707432089994
Fe 12.992849489272114 9.01680760447381 11.853560918398895
Fe 12.96288466482082 13.938949372820906 12.5914220943718
Fe 17.767029652981535 12.980864239883187 12.890939637391018
Fe 10.03675692315572 11.361953287354982 14.118575066111223
Fe 13.648468758910093 15.976677484649535 13.568494784550957
Fe 13.678648002136415 9.135620855849941 15.626311560781009
Fe 9.480621352414277 15.659381841811312 13.709093708996335
Fe 14.714594162428604 9.773046063607422 13.502184011108916
Fe 11.652973065281952 17.180996381246914 14.219801764559014
Fe 12.080845844384356 12.453439219309907 14.583197697722458
Fe 12.300884086810456 10.072552902687141 13.893131459653304
Fe 16.84332195292771 14.035266387358798 15.326245277852308
Fe 15.997376231093579 12.020849771254396 14.414101599004882
Fe 14.177854105005622 13.811429965076314 14.936506306675174
Fe 13.882333276451543 17.990917463350485 14.864146464275391
Fe 11.704832156665606 14.747983929573797 14.589211421390617
Fe 9.080179870789841 11.271375867481812 16.23296987556696
Fe 12.26122098531379 17.85400919430536 16.63645168881251
Fe 9.707889552162536 13.69225159482954 15.337594430371336
Fe 15.475492027785252 12.549504334046858 16.717072854809217
Fe 11.021518720935717 12.385580083897652 16.727319834713462
Fe 13.860895632057161 11.210598139704608 15.570752221826856
Fe 11.323891514134154 10.21362323934909 15.967164268913756
Fe 13.188125352140169 13.417082832800386 16.96356655414113
Fe 13.110555790501392 15.808289191129651 16.13941792653208
Fe 15.543419277946809 16.094406532744934 15.08084453150912
Fe 11.192405357477767 14.773226528681034 17.2446099548595
Fe 14.71627502566037 17.412214318943047 16.952168111132313
Fe 10.159886592930667 16.274129834295437 15.878018120681554
Fe 15.182248207167197 14.91399465974828 17.100977182614432
