55
Energy = -386.09952155 eV
Fe 9.710935277106676 9.365886323623693 12.416726990780488
Fe 13.123200706360759 7.004271239548818 12.831174127456322
Fe 13.475420564275284 10.045123586618452 10.364925362350764
Fe 13.084926566011847 17.738877489927855 14.982957242707107
Fe 12.4865810654285 13.211080507825635 13.986922790922865
Fe 11.218719963914909 14.328680961110722 15.653600070118843
Fe 14.833947422487913 14.267331861239319 14.91573325244135
Fe 13.139764450402001 15.398789319433916 16.385954611804504
Fe 14.384048246153036 8.0035008229504 11.151254956211218
Fe 10.772745146338492 15.181409445527674 13.337530723196167
Fe 16.768511451248898 11.609939563987588 12.558793760970275
Fe 12.287744162796836 14.67103456828859 9.722047676527795
Fe 12.469746408128456 10.560166937310699 16.70733187805208
Fe 15.46010405639703 15.655909855254672 12.849752232714987
Fe 9.099385676013616 11.804639339439108 11.743655468227546
Fe 13.049663133961198 15.62312507499526 13.986539736057226
Fe 14.63208185523856 14.150623713653916 10.082163694089726
Fe 10.940229886230652 11.331619761154634 13.137589606037603
Fe 16.794313032493957 13.724327059078355 13.716203350739983
Fe 14.667036162580143 10.020326155781817 12.73449862326197
Fe 13.308719756055105 8.492533942007796 14.608066103116375
Fe 10.649052967737454 15.666995136626644 11.021710555617757
Fe 17.115935644276043 11.969825051684976 10.175129936031688
Fe 12.959311910046589 10.8030489866294 14.453500355615839
Fe 9.056800278539946 14.122034117280625 11.6798815768593
Fe 11.02655206976858 16.673738503206575 15.194977335752629
Fe 10.97030816427243 9.504625975499168 14.80883760660654
Fe 12.254712550331652 9.343023831497751 12.353334877051365
Fe 13.415999516449986 12.714213062581726 16.117383804293887
Fe 10.907607004265408 7.570184513529775 13.5372307424692
Fe 11.719876274389906 13.0891584477622 17.58875540771252
Fe 15.094307279303349 16.588972991592996 15.052736630087363
Fe 14.64316071638004 11.481941620857159 8.745447363084605
Fe 16.641453197854577 13.953311075929044 11.391267392406546
Fe 15.322698211406665 7.902155606231308 13.256359852000962
Fe 16.02127479593597 9.802328449190119 10.809948004058228
Fe 11.551479000829945 13.456726082632885 11.744603768360504
Fe 13.02848262574293 11.645097810610403 12.126291693245161
Fe 10.930366693162082 16.472587847197627 8.907217453232446
Fe 10.266746092142476 13.161204151327848 9.787311866383101
Fe 10.887314983766544 11.885229359768026 15.615338841218293
Fe 11.160384485065487 10.87874385533204 10.800841403975557
Fe 12.279030499584742 10.728302526456137 8.480717195034787
Fe 13.221889174663191 15.466863089551055 11.633251420301733
Fe 13.979391495958293 17.554900785807416 12.61498891089046
Fe 14.976799603321616 11.982239488338635 14.242875425999708
Fe 14.399546836306412 13.622087519161472 12.546702709328082
Fe 11.612996456862454 17.280481966717566 12.724499898222547
Fe 12.71339725569782 12.467052971427856 9.78420943424383
Fe 10.20741695248475 17.87186417927876 10.752782100798886
Fe 12.515926443820515 17.370602619292217 10.452977488310227
Fe 15.004131338513135 11.949565114046493 10.920304172936445
Fe 8.891934160125048 10.903903893280168 14.270474924090548
Fe 9.735752205457125 13.190911839045254 13.853985594372533
Fe 8.88265762375935 8.489399499718553 14.433221499468821
