50
Energy = -351.55522691 eV
Fe 11.804001287437393 13.03410555806463 5.939440791234308
Fe 9.590566949082186 12.29721179268993 6.193140434530389
Fe 11.576905755021041 10.686379521080442 6.559188402522002
Fe 13.40263108270397 10.18846995444939 8.087237021368825
Fe 9.372888592575215 10.266840079236093 7.451921566401104
Fe 12.41590332664778 14.527686598453704 7.5903225237478384
Fe 13.615542343352258 12.364106654985354 7.302805703769051
Fe 11.24424727870917 9.422163559524195 8.753519188314092
Fe 8.336762573012665 12.443117685676874 8.20238403019208
Fe 10.02816326011916 14.229547316064656 7.576217157533049
Fe 11.182516029446248 12.216900395686562 8.364255516100291
Fe 14.790537605066229 9.083654525789592 9.320071179755342
Fe 12.82207748091931 7.8280259804699135 8.396744946994316
Fe 7.4495185300900095 10.171543603848173 8.995768061546233
Fe 9.111660608928542 8.499189270434853 9.398574510999365
Fe 13.20783586650067 13.192787510236723 9.450185194884568
Fe 12.658295149824589 10.875530880252139 10.067695646606687
Fe 9.570701429012725 11.0412069861327 9.762505731872317
Fe 11.243364744358528 14.641428903784613 9.659522549787726
Fe 14.913397192156214 11.546703574971371 9.490230231229829
Fe 11.08280069397347 7.208768459026823 10.081231211592398
Fe 9.372537730721508 13.45121072624916 10.12854433058937
Fe 12.90569900571129 8.564288378820303 10.730359658957898
Fe 11.455694796043813 12.518872926870015 11.099272036093788
Fe 7.400200432231035 12.004732961290376 10.537227872064737
Fe 8.181097272134405 9.73373700348416 11.379848132757623
Fe 14.554955365300371 10.13084154165987 11.47379120753183
Fe 14.028906976352932 12.45863536436807 11.616180277791392
Fe 9.29528866383047 7.648295889235495 11.770670728728453
Fe 7.952689630777479 13.77758791357966 12.048220936684663
Fe 12.746973564415876 14.510425815052724 11.483208713277392
Fe 10.660150310416363 9.54104174673001 11.1471212463463
Fe 12.239432400749989 10.58914775627695 12.478654822950979
Fe 9.418184918585473 11.688213041317521 12.187207110674189
Fe 7.138908823931432 11.442828840720388 12.862250419578716
Fe 11.601658298688072 7.793173957679426 12.608892492717084
Fe 7.830067022228399 8.964342385697494 13.406048552244487
Fe 13.62917781996025 8.896232766135888 13.373217502967801
Fe 9.762082562749962 7.113415094567639 14.059999275162934
Fe 10.408477658847417 14.022158702938135 12.54483969323445
Fe 14.428757031499083 11.206652934104378 13.641676374327723
Fe 10.168010517935578 9.59880316010809 13.552932227096509
Fe 12.664519220676187 12.995652747136218 13.411573974704883
Fe 8.634914520447092 13.211346824363483 14.184398709563006
Fe 11.560627065914641 8.413322914549402 15.077537051589276
Fe 12.499685829051272 10.625797413057303 14.796026167830076
Fe 8.555491439530122 10.927647006285506 14.726519582410978
Fe 10.696855786585706 12.030050860162277 14.143011732833799
Fe 9.114349381867969 8.683011413472698 15.650469667903174
Fe 10.484637848833575 10.503512778184708 16.047687575360754
