50
Energy = -354.66711069 eV
Fe 9.48989676498233 9.634789446837548 4.714746022544876
Fe 12.424314525668397 7.289247740614671 6.715262221491896
Fe 7.528186261098463 8.581437171677504 5.6352918216501084
Fe 7.925611228740006 10.962898694021215 6.310208705884691
Fe 10.020168665755653 7.477492152104701 5.555392145377215
Fe 10.44125595534375 11.445455609760366 6.246810515398534
Fe 11.714547459137515 9.376238046556523 6.010202728977315
Fe 5.8053297962605495 10.173815936592739 7.166897600971653
Fe 5.611947385890327 7.793661199799238 7.009124797987373
Fe 10.434770066291884 5.26440553513873 7.045644638989456
Fe 8.25903252580494 6.718900974895308 7.031254951624367
Fe 9.50453110229534 9.305957378366367 7.084883822140242
Fe 6.673191484524963 12.659787151574433 8.023911200157107
Fe 8.955470275084252 12.974382929568408 7.312101515087854
Fe 12.775019052027755 6.7422446383385015 8.989770322444816
Fe 11.309366064584921 13.164392091925407 8.305474772054275
Fe 13.75059074410715 9.052131456565009 7.839293634577582
Fe 12.643046235533056 11.199349158602072 7.24865180993321
Fe 7.4135010921989295 8.518237953991544 8.141485613799704
Fe 7.885642811066177 10.85900502986573 8.663933868895807
Fe 10.38312753888823 7.172727956877083 7.987957653308586
Fe 10.344310080352496 11.158595865666866 8.6318286771885
Fe 11.629131374725365 9.08567674836205 8.45954540911864
Fe 5.375511683301811 11.113756694928448 9.385538496117032
Fe 6.252736579406824 6.846543650366226 9.371493324217228
Fe 12.871001645547528 11.04141279559164 9.519747083243864
Fe 9.325600771962165 9.022512501923265 9.395068858920448
Fe 5.010430297315837 8.818323341140824 9.258435548292056
Fe 10.904931145034436 7.606929594585468 10.300499938682018
Fe 8.717714305569217 6.742749039751301 9.538091434682034
Fe 12.459069930115094 6.294947365013616 11.449728650394743
Fe 10.825418402565562 5.3626724615379775 9.728399777851347
Fe 6.972707589474194 11.929123364589598 10.841792065171754
Fe 7.140248678506847 9.191031845863222 10.558290876087897
Fe 10.955152088953625 12.35427429276833 10.714068382536233
Fe 11.294157718540495 9.915144976045024 10.834987377319528
Fe 8.850579176687415 13.042030312522272 9.63296350361875
Fe 13.220807326373315 8.531324791081083 10.470902383693826
Fe 5.208509612355801 7.823528910135185 11.481553118743921
Fe 9.08899768423571 10.834129013219101 10.817665324755461
Fe 9.175786980296587 8.50909431051303 11.77385863210861
Fe 5.431350618815846 10.170756340905326 11.766271406190166
Fe 9.953124078685459 6.212380445355605 11.901477092015641
Fe 7.3459082364434485 6.780910807157028 11.537048712359338
Fe 7.801093402517515 10.532489888279953 12.837317099836179
Fe 8.966708773480699 12.691586106179312 12.199730552514083
Fe 11.489682105508043 8.28568916470992 12.632292407764949
Fe 6.947409233266127 8.425892175680872 13.125053625074463
Fe 10.329649341857401 10.639666243014702 12.935746975412684
Fe 9.323315451326087 8.829860047945441 14.021894251298836
