50
Energy = -354.51231569 eV
Fe 11.72498654518083 8.120561581049376 4.579986155071676
Fe 6.598596944569026 8.325578406456577 5.014218019425765
Fe 9.19934407280035 7.958761868587967 5.288486179959603
Fe 10.888941344602582 6.092597888398362 5.590366516745902
Fe 13.229314620153687 7.0315789598679626 6.253708613382156
Fe 10.674812986684634 10.111406587140896 5.633821679012163
Fe 13.072969553589664 9.625003659702637 6.249454833073481
Fe 7.56465275176747 6.119676550428323 5.902406266666233
Fe 8.035405825048478 10.16843790615298 5.742934422327312
Fe 9.37449140440684 12.306658354467759 5.530770929247748
Fe 11.344570860631602 8.10378796791527 6.8465234382043105
Fe 7.306352928952143 8.020623511547413 7.1255010828549725
Fe 11.705274274146483 11.981667557520701 6.888216762181971
Fe 11.856703974428902 5.949003137340851 8.008142527557327
Fe 5.365220691270015 7.005258067964706 7.492967987741579
Fe 9.408177767381197 9.01751488403953 7.493403746243398
Fe 5.636832877702947 9.771512163606674 6.834348147166267
Fe 7.464902462584382 12.405183661224916 7.153598572168441
Fe 9.445764193250211 6.571603707325357 7.44529323246023
Fe 13.227976542054526 8.142720480864275 8.469436600417001
Fe 9.604535416359377 11.305427841432378 7.527336567589171
Fe 11.699311586775252 10.047500852714787 8.24047498871999
Fe 7.555107343612172 5.640041590455363 8.513793677094663
Fe 9.65576732519152 13.559238891506412 7.913798337379849
Fe 7.449496526901927 10.27240483057769 8.149257745840496
Fe 5.832269715775384 11.356337053866229 9.44203108263217
Fe 6.785322056885779 8.124797521431889 11.294338522456147
Fe 10.725152361027133 7.913005372321595 9.237658184375439
Fe 10.951895787303384 12.133023616970874 9.438724129696832
Fe 5.796046795754714 6.457254187898579 9.809182507306602
Fe 8.164508033780212 7.932003401719478 9.28360312566384
Fe 9.647925538541745 10.141275489599582 9.606032921747254
Fe 8.337597562280383 12.291576092303714 9.549245360197556
Fe 5.658204881139795 8.847649950618326 9.20365486949567
Fe 9.975816885528289 5.716168452373812 9.696511041913938
Fe 7.4808835325084395 10.194703207048587 10.54746447211008
Fe 8.025335937170428 6.088163022402955 11.019814269511127
Fe 4.41924346366347 7.910507317324798 11.25298400474008
Fe 11.495988415994416 9.219971638262175 10.979511652041243
Fe 5.979042858163087 6.209709634696556 12.407390566433094
Fe 9.159478718828456 8.499697284645915 11.326915273335004
Fe 7.064331160762121 12.039984356700673 11.735111439451092
Fe 12.438087741444901 6.7522355671262195 10.27223851950943
Fe 9.498605302846624 11.049400467780767 11.806173183811852
Fe 5.360350350891557 10.062259954142487 11.708016808713994
Fe 10.54898968690478 6.819508158629041 11.799694730243884
Fe 5.795463350702731 8.388545464403874 13.45708322022457
Fe 8.158595147369821 7.3718773394554375 13.22146603191537
Fe 10.102869215596252 9.182938478832599 13.25885135990891
Fe 7.701805850094506 9.836977232158366 12.951376865037552
