52
Energy = -368.47345698 eV
Fe 12.537063323821096 10.762869808293676 15.391474907606096
Fe 11.517159900779799 11.665823394279482 7.241994979566542
Fe 6.992157415233175 11.147040909612404 13.022517596832106
Fe 6.868527871899391 13.746485937184618 10.162222802747154
Fe 14.822134509719701 11.343678486882997 12.297518388976862
Fe 9.124282940548648 9.205746724137558 12.146900386455926
Fe 10.09125424948593 9.61040504103755 7.3262954873169575
Fe 6.658741949521047 8.915045745026816 8.833555990571597
Fe 6.716529186495644 11.36881039054085 9.216376848538568
Fe 12.556210528214924 6.892277902780257 12.285293625885862
Fe 10.646048750325448 11.122209973359382 11.262470649410153
Fe 12.621799364231443 12.703397950817923 11.754462095602184
Fe 12.321247166631144 14.423924297198514 13.32711016756691
Fe 8.646786427652259 7.893681980267553 8.056065984739279
Fe 15.026143416416142 12.482632317802992 10.322395809701396
Fe 10.352373600959195 13.802755403065245 7.741823084366283
Fe 13.487736209027739 11.863979499096247 8.674951109882704
Fe 11.295589101691807 12.373894864277727 14.042289679754676
Fe 9.329442157603122 11.95320718416149 6.3688407222410985
Fe 10.564320937343645 7.534815304544467 13.80327433325572
Fe 14.053474858353 8.925373143089216 12.169228357854042
Fe 11.677911662137383 14.814508416486557 11.023076429987798
Fe 10.178566880697653 13.248076643598958 12.076456629290972
Fe 11.493874361464039 12.823098744111944 9.550338039433498
Fe 13.446922384718782 14.190562464657749 9.627109714105577
Fe 7.855547947803979 13.131829667280924 7.953864562933511
Fe 10.556626867069918 9.85631327403367 14.086632947692102
Fe 7.826890281644609 10.35563839155967 7.37780731683713
Fe 14.353980726489581 14.13964330358221 11.937514341247423
Fe 14.572790339030856 10.162153335778893 14.31248357960997
Fe 9.450207335962531 11.6952526208412 8.757843709013008
Fe 7.705713493801 13.447574584234978 12.398736066908977
Fe 9.298707833635271 13.839379480378225 9.95550118384394
Fe 10.07026348627789 6.822202399612923 11.721272714758419
Fe 11.351625257190333 10.147233666217405 9.179701772640728
Fe 6.8473716964323055 9.761227264191348 11.170107021211587
Fe 10.298035237907799 8.056142736049269 9.796383826920252
Fe 12.671961227356766 8.52638280014674 14.123444521808922
Fe 13.06295595738696 8.264950195609893 10.006306982793237
Fe 11.4742980085585 8.95450423867656 11.738707742888796
Fe 8.748650656956418 9.779095779124672 9.735741018857325
Fe 13.091502846669359 10.673800763760726 10.667606023502467
Fe 8.3153502544085 11.774255636377339 10.990058249549035
Fe 15.029338429212762 9.871098792636875 9.915962219801528
Fe 11.87325957481239 6.327161313179164 10.062695261797368
Fe 13.235849345052882 9.560372261040204 7.97697892327317
Fe 8.054808875585952 7.630170940405293 10.518885938634105
Fe 9.268898967653268 11.503927933818245 13.20367719613047
Fe 5.74546381913206 12.027718867517702 11.294993489727938
Fe 13.777009717004418 12.57601624471688 14.054901605349666
Fe 12.479572025799595 10.675357158537928 13.011345386230609
Fe 11.578627917828962 7.758604311818419 7.964474972578164
