52
Energy = -363.82600278 eV
Fe 8.814832342238716 13.39724795644086 7.830421344888244
Fe 11.098044403646417 12.709092580487637 7.014709957949256
Fe 12.996897189230776 11.693526041780366 6.0676231517968615
Fe 9.070370350874228 11.2833707546207 6.831003882445277
Fe 7.84749306891548 11.110987422552732 8.922359142732452
Fe 11.213530287146593 10.168511487865626 6.602611851456432
Fe 13.14589540617261 13.19207000391657 8.236944900184634
Fe 6.3941939390249685 12.647299395773135 10.832887045617946
Fe 8.461205612340803 13.123857189741578 10.09843712316262
Fe 14.807258407844028 11.327305306487139 7.440504918253329
Fe 9.820376033318514 9.527470838649242 8.478347272001733
Fe 10.360452802700301 11.755775890666186 9.004684476687812
Fe 10.746872603324698 14.060102410660845 9.221568753139538
Fe 12.57486556111439 10.901756236522816 8.463639376644881
Fe 13.504951393906916 9.35089128298617 6.819496208393714
Fe 9.317954284606031 10.54396118364954 10.83467981290945
Fe 8.117889043415333 13.979539929298555 12.482479480647582
Fe 8.030257233126889 8.600787200243579 9.842134825234757
Fe 6.559029336884871 10.276660264085635 10.774039733282178
Fe 14.77861073459515 11.833961196336857 9.668835235559786
Fe 11.9565031121255 8.331379197416286 8.337450419972397
Fe 9.49825367817271 15.181265883017241 11.026188319525495
Fe 14.15298731092067 14.186097928288053 10.445764005289048
Fe 6.630295974510097 7.727115779149463 11.492022834968651
Fe 10.271977971225903 7.667173321955098 10.083880466386308
Fe 12.454742213228242 12.451615418927869 10.412938073243252
Fe 7.996206043108521 9.281513616181703 12.409230498902865
Fe 14.194349849629411 9.387560761436921 9.192970744713763
Fe 11.603680039952518 9.828999267353533 10.297179522739993
Fe 10.263243986847842 12.858840436735452 11.468475828620821
Fe 8.787949245476986 6.903103768837747 11.820120769389458
Fe 7.920189694346895 11.696160294211063 12.36934301198961
Fe 13.836325319566761 14.758671078887462 12.729862672953088
Fe 12.768096457218933 7.863312312017814 10.644520393402804
Fe 10.487018826257692 8.751146537768582 12.16480680154012
Fe 10.475760156687281 14.63126991471371 13.174972763227597
Fe 14.611420144722437 12.599276215023798 12.075459340052225
Fe 8.544318106522391 10.459846027892965 14.462647274352566
Fe 11.345718301461604 6.5946331694279605 12.127425984378686
Fe 13.617982115366472 10.50460732030832 11.281636885977397
Fe 11.94791370439364 14.748858750005937 11.244472581983675
Fe 11.428136654866616 10.994848832369222 12.328761700111045
Fe 9.162603932934493 8.083638186310958 14.003324006181744
Fe 12.806506699465436 8.810013631687317 12.874210103579696
Fe 9.82919678611281 5.808729889904251 13.83262353793478
Fe 9.821364200429231 12.327274377586095 13.749697670280353
Fe 10.857817484213783 9.962526095935665 14.309549807934943
Fe 12.32772253182537 13.07382598535423 12.945444153707244
Fe 11.490724890202715 7.576224504061398 14.35584721631348
Fe 13.551593607225897 11.01903694167952 13.738593727921765
Fe 11.798703367312772 12.045063551879485 14.997352554172807
Fe 12.833539065121084 9.44828546761317 15.28356351817273
