52
Energy = -365.49545456 eV
Fe 16.95015279464583 10.308561199277523 14.671357465986564
Fe 16.61604227496972 11.904969093846887 12.990625199655655
Fe 16.638865772415855 9.478841036922615 12.579807716491812
Fe 15.369543262000198 11.746512917746713 15.420335570276759
Fe 15.367257460815923 13.160475908109222 11.359926148475235
Fe 15.285633153349828 10.595356668293006 10.938870854552952
Fe 14.938455631016476 9.159212109684782 14.833316592368584
Fe 14.943575567143244 12.370480464752307 9.204178562158521
Fe 14.672699712839314 8.285220957789132 12.458892308577287
Fe 14.553625256270383 13.149124821583339 13.73644400792414
Fe 14.550117565669634 15.110823517333335 10.003004545241007
Fe 14.385661717436495 14.167950488669836 7.7874674555043715
Fe 13.045873212004372 9.602278426916403 11.406409114265632
Fe 14.45861980625341 10.753252895786972 13.210431688738698
Fe 13.50970404371723 13.46334562596862 15.891180324401267
Fe 12.756291253086923 8.868862997635283 13.805349369676952
Fe 13.130440354191485 10.804756725540663 9.33005324113727
Fe 13.29882218747741 12.071060967513365 11.550011089110967
Fe 13.455118953359412 14.496784238813696 12.06997752559152
Fe 11.623045095143969 12.313352566449307 16.704764648434466
Fe 13.184881849347116 12.1524911777962 7.3908122341963365
Fe 12.754115511512044 15.86355522960799 8.502295499653435
Fe 13.06411934449956 11.163580262821391 15.114966493014146
Fe 12.81896971543609 13.515979328421228 9.610718845667215
Fe 13.248431532205545 15.282909320904801 14.408710461411005
Fe 12.368855852761342 7.384524785495921 11.810639937054152
Fe 11.20235231267468 13.322583882393326 11.401661510998789
Fe 11.952298515998102 14.11268559745284 7.204149373879364
Fe 12.139620781083462 13.14532856766816 13.62791727647017
Fe 11.176209555253031 14.29992392693914 15.388363273048782
Fe 11.716986157705653 10.952479305635782 13.102184611260823
Fe 11.14406107600872 9.811030572721245 15.361173204545452
Fe 11.329432246928002 15.461191984785804 13.002602255888387
Fe 11.042886779739822 12.246465329316084 8.6030534599329
Fe 11.243042764342428 8.84426618746882 9.95813754895637
Fe 12.007117383414286 15.719678974519994 10.729265180883619
Fe 11.099431596450785 10.995743968846206 10.617527347220305
Fe 9.452914250040193 11.593643109238506 12.250706401022386
Fe 10.375265901564124 12.00927457829986 14.837720801590555
Fe 10.747585865336 8.935871340087221 12.36904344507872
Fe 9.617772930350231 15.102270145471305 11.261085222466155
Fe 9.21601030798596 10.69223277819103 9.114253567818126
Fe 10.608125503967724 14.636618785475656 9.113608450379521
Fe 9.706601351514019 13.74270265305107 13.380910381928937
Fe 9.244064103188007 9.965935101987013 13.979424282662936
Fe 7.782944850664526 13.61429750425769 12.049565128269636
Fe 8.847092182266794 9.547997185366471 11.0623479029585
Fe 9.209632918670506 12.891341336050015 10.145614217977231
Fe 7.278485174333532 10.296639383769502 12.712688330098654
Fe 8.083169013892777 12.087155108122642 14.138253892758698
Fe 7.378050519611872 11.50935899563055 10.745614486284776
Fe 6.111117293435937 12.391127536230837 12.743045434612265
