5
Energy = -27.97211789 eV
Fe 7.009780630659227 7.5436389033634805 9.164609432203015
Fe 9.300311207081613 7.763959230746525 6.0399004176485676
Fe 7.905030157747794 6.671322116441607 7.275732853663093
Fe 8.614630087850772 8.899892929582306 7.927120391786777
Fe 7.639505225578141 9.460543265176177 9.91212005987726
