50
Energy = -352.0618588 eV
Fe 7.024932205219333 11.369336468214538 7.823987537828944
Fe 8.95342973030731 8.938763711473467 11.976163839438817
Fe 13.964077345571857 7.939007033666015 10.856894837636096
Fe 14.406204300634753 7.874921741796768 8.346064941782743
Fe 9.552147020125691 10.677706190422718 14.046997434363659
Fe 8.147216688199427 11.19658118748297 11.64758893606714
Fe 11.92066845956319 6.694852065657992 11.999702394948079
Fe 12.699014307437253 13.684791620694 9.596919915122786
Fe 12.308568201642233 7.131803629913008 9.372368604498822
Fe 10.915409642936519 8.773477123837326 13.427016059280128
Fe 8.42422972329723 7.666178798211492 8.658902147439228
Fe 13.65582138045077 10.285574388980814 11.449199214399004
Fe 8.043371602140038 13.75477263472166 10.997138192851793
Fe 12.955466783548902 11.840974309402622 7.605280661370089
Fe 10.690222043565415 8.178464347061551 8.055682894730253
Fe 10.074524192515709 7.222404542947748 10.43379143784856
Fe 9.154802848575763 11.828753936048566 9.43310748550945
Fe 7.354861754859368 9.983619649150754 13.652696752553448
Fe 15.365771169038778 9.567279574631836 9.762563325100563
Fe 7.343411210082997 13.368734457266582 6.392686877307158
Fe 8.981584789845336 12.89329256686714 13.040173070223554
Fe 7.69031716487731 13.619323917079086 8.610454686918999
Fe 6.367588272789423 9.35435954287997 11.600237973749445
Fe 12.271617754506194 10.82619126799829 13.485813816579931
Fe 12.95435026791137 12.550954459447084 11.761063454834456
Fe 9.854824329989698 14.970662523771784 12.161723208927585
Fe 13.219352067256777 8.489445722501861 13.174513291023885
Fe 7.598594443251459 9.724656140370547 9.687778901762528
Fe 8.757921026214794 9.753646473088079 7.520663117092646
Fe 8.967873943221953 8.257840849470904 14.557745060566411
Fe 9.198465159711196 12.110678998198146 6.838257012269678
Fe 9.420188103568883 6.680846850308413 12.724688967708932
Fe 10.601997725821915 13.25933184863572 10.960763045785363
Fe 10.845513126988209 13.139133749192252 8.280660036806267
Fe 14.24722189651307 11.747883078745685 9.600617535399788
Fe 11.262599904176842 6.706179923003954 14.256277079271921
Fe 12.869894969687325 9.5513324782379 9.147268442688889
Fe 10.038421973142178 9.611669103847742 9.764067068536297
Fe 10.522066028401692 11.019894016612538 11.954911824966139
Fe 9.702884220067807 14.822615259885078 9.480126103609734
Fe 14.723678560808661 10.225697365622313 7.58094586214612
Fe 6.5702999786624785 11.931309539810423 10.06376909364671
Fe 7.172101458240392 7.5868565585225305 13.173077766822638
Fe 11.268878332667011 13.099266373143719 13.320189847186663
Fe 9.303467050065535 14.58382337890561 7.1056632039213685
Fe 11.712364176795475 9.002274355704696 11.240115569725976
Fe 10.945292729311152 10.682740390486948 7.7625272748179865
Fe 7.560833667617276 7.338886853704926 10.831827294494039
Fe 11.759152093579889 11.447300976345723 9.889484763894028
Fe 12.694050285712558 9.071454137146125 6.927388245663761
