50
Energy = -352.34305836 eV
Fe 9.924934963169639 9.598917537896979 4.901547673435184
Fe 9.899799920054944 11.946627214538927 5.654598682025353
Fe 13.290086477249403 7.123142683101046 6.2228060943480825
Fe 12.458871238834991 9.419077544546512 6.125689577822361
Fe 10.697184003765496 7.484717709262954 5.831214444182214
Fe 6.267419286954225 9.006306276210184 7.521650481209904
Fe 7.873924436033301 10.432783004054354 6.092491209138886
Fe 10.591726386624837 13.454417204289966 8.058194674061761
Fe 13.422060692873533 6.385537852502817 8.616746834520749
Fe 8.591346671148282 8.2456189713508 6.8635647820186065
Fe 6.254373244188282 11.336863302460477 8.303961296496082
Fe 11.8375259526057 11.789998147663837 6.983122143152861
Fe 10.26764337716051 9.959627401562294 7.1253377549686965
Fe 13.951806744274727 11.101613525144765 7.880917372532822
Fe 11.555175209006508 5.564548273484445 7.20090198678419
Fe 14.07492109582319 8.687438473925592 8.070638769062885
Fe 8.584403280087741 12.219699305972332 7.533458268881447
Fe 11.742978928303152 7.804687304229604 7.867731576443913
Fe 5.355797819189627 9.257872163384238 9.798430712876721
Fe 7.550309831636297 7.806305507944475 9.22546636963855
Fe 8.170288921242252 10.02041539103127 8.573242681500703
Fe 9.438869386808209 6.371866207688341 8.091552554332857
Fe 12.110875737453648 9.964067523301004 8.666169804475055
Fe 7.81706611119789 12.501739873550894 9.86133241786838
Fe 10.00094551695765 11.293291996371693 9.2382076318121
Fe 10.035888357715564 8.474774252882565 9.194644758705621
Fe 11.194443255544398 6.232089052879238 9.761615930430318
Fe 10.37037792579189 13.254535081201617 10.556468645573801
Fe 5.250607074882225 11.66279678881818 10.53961412248128
Fe 12.694291458507639 8.19302581661307 10.24170251284712
Fe 12.171082988739311 12.15695638415689 9.45677395678731
Fe 7.180817364545695 10.424279361070429 10.658282304568116
Fe 9.012875856794986 6.65268096475285 10.7279778787323
Fe 13.715616672002563 10.479757373322917 10.294500865519296
Fe 11.216933786811207 10.038979368409557 10.838530680926771
Fe 8.999985986182033 9.091212475507731 11.063633346079314
Fe 6.742195985607682 8.115408094139426 11.583627099197216
Fe 9.33577037919267 11.481681016939667 11.637760149581911
Fe 10.898344861965871 7.724463253494528 11.814318965989688
Fe 5.353979420037695 10.028825635829083 12.412800259899766
Fe 6.930601012782621 12.177683780020175 12.39402401972883
Fe 12.729093087340852 9.516572165636603 12.396842065531565
Fe 7.854258151104716 9.921992238246295 12.874101069394278
Fe 11.838914147133751 11.889477888409473 11.955300162833115
Fe 8.748856268796619 7.682541424926621 13.025930626291386
Fe 10.343301579477078 9.728365988405486 13.150749951945341
Fe 6.367345270954792 8.46566493874337 14.02857537326388
Fe 8.820034636677697 11.71064538886292 13.934775500448264
Fe 6.3164636177682745 10.932603019117924 14.422621120896327
Fe 8.412039908641987 9.450262139788025 14.990307126400857
