54
Energy = -382.9374983 eV
Fe 15.352762742029375 12.828048180726098 8.36678642334953
Fe 15.876451187304745 13.266854725654857 10.735111492896413
Fe 17.25904095702352 11.348559638404913 11.446783914424966
Fe 13.691308973268157 12.835177493447434 9.831447510032318
Fe 16.085294666982158 11.863173135613968 13.38429286671577
Fe 14.72498516743177 14.044209095018989 12.98243283415968
Fe 14.271299761956918 15.137938471674346 10.923185436760768
Fe 15.504067810990973 11.062777069668545 9.88647941322677
Fe 13.757986809071534 12.21481679747574 14.231047756003901
Fe 15.576441855949257 9.839056153148931 12.233092188321752
Fe 13.335117836235145 14.849613758308758 8.788734435379657
Fe 14.369417612670823 11.845583237143924 11.759588053830306
Fe 12.818222319210099 15.959160324452466 12.728224845184355
Fe 14.384524153892212 9.718093759364956 14.442112172172829
Fe 12.57117310079886 14.382146908651752 14.39585205629275
Fe 11.863296586014876 15.392300534491723 10.668963344070377
Fe 12.063916998089578 11.204653617076413 10.738580197382833
Fe 12.03902622838774 12.706422131701995 16.050141587362116
Fe 13.433596650264585 10.876652483334704 8.508135363401792
Fe 12.75003897141067 12.92372381964344 7.507671684640391
Fe 11.363895139082775 12.381147972781175 13.641623848559389
Fe 12.8637622300607 10.413194799338441 12.848386134476375
Fe 11.016818371197884 16.150506067265933 14.337095745312709
Fe 12.620560816774862 13.471929292609296 11.947059087527734
Fe 13.76731656130115 9.518251057162301 10.574496950864566
Fe 12.063334011611168 10.487555131938954 15.165763419435596
Fe 13.840691162020232 8.10098245341135 12.57835305975875
Fe 10.183371523129944 14.033819651485501 15.127301873943996
Fe 12.861066012372907 7.354533624799024 10.361026321999757
Fe 11.771184751107715 9.101976188039997 9.129447910672765
Fe 10.430675421922498 14.634749629951854 12.672300796125636
Fe 12.023991140290558 8.397699463867063 14.12364508566961
Fe 11.097217739546762 11.371246981227047 8.463187437607294
Fe 10.281289669033548 10.347772844959891 12.970561891170968
Fe 10.199602903131355 12.545203339177695 11.43429863557925
Fe 11.346112442752645 13.436272843399948 9.469330734841119
Fe 9.527319670233478 14.828070835419723 10.101429521608242
Fe 9.847815863500033 10.202046568121885 10.392249637602134
Fe 11.539857115884722 8.760512785637076 11.682091962795912
Fe 9.866902151493706 11.466779411302465 15.402476435375357
Fe 8.890701376045508 12.624911330947374 13.587476978648596
Fe 9.950772487875014 9.063374454422723 15.167043382475553
Fe 10.186058610094461 7.603622316394662 10.175483723374303
Fe 9.421331328614453 9.61972187791162 8.17550934031375
Fe 9.890379064121404 7.782821157563195 13.142081309459034
Fe 8.856072523564306 12.346745342657279 9.396605611608846
Fe 7.4267448314969675 14.204010166161726 9.218537900557513
Fe 8.073320682236131 13.849953918961296 11.628295384108151
Fe 8.169964643441533 10.068701978539014 13.908241081673504
Fe 8.066346702284664 11.300784378692102 11.762898865728722
Fe 8.420384943399032 8.881271239903064 11.702192218603486
Fe 8.09640118983371 8.204976438204097 9.435702702700784
Fe 7.408805931228321 10.409563323929953 9.60344000842905
Fe 6.491110647241095 12.526052780915915 10.441036701611555
