54
Energy = -382.73792936 eV
Fe 15.628538403802919 13.757536744243074 9.822549987161569
Fe 15.396920119439576 11.861899260612939 11.378125444620128
Fe 14.9257284129487 13.955333380317985 12.429839643965373
Fe 14.84781519666599 12.005010662975309 13.970775918069059
Fe 14.469829734609606 9.924009955326555 12.867385511497758
Fe 14.55383976764436 15.669518879334442 10.759277227618055
Fe 14.503391883272782 11.704986236724128 8.987345739599105
Fe 13.748260986113278 10.154150920514073 10.478741227631671
Fe 13.516557832634183 8.081910873992074 11.480121524700998
Fe 13.698061231925248 14.845243166769084 8.607705826144208
Fe 13.391620893956127 13.438060929076956 10.39586773798801
Fe 13.033355700191558 8.189930561908438 8.844689008594935
Fe 13.179462347256889 11.96904093982837 12.243763009534524
Fe 12.826956571886317 8.544784011829067 13.882117822890358
Fe 12.892149784686604 15.214249070485472 12.508625090510083
Fe 12.841159759095483 13.410871253103764 14.068785426721819
Fe 12.667954534539797 10.910498366509437 14.622063142553015
Fe 11.994641573695523 6.586828739217938 10.220517291439062
Fe 12.704940919935247 12.759164932024506 7.877753742958493
Fe 12.466605799935836 10.411163253966624 8.328962597114296
Fe 12.017068263161612 9.974468865527074 12.355052240975967
Fe 12.136001674511807 15.696967171277429 10.341345694355121
Fe 11.743730063442122 11.602769126360904 10.210807247569946
Fe 11.178399703834675 7.631258012283536 12.241820809410763
Fe 11.54130173893562 9.15281531829092 10.297519747199257
Fe 11.347748876258118 12.812360370938025 15.788507526449822
Fe 11.269071531813466 13.659400943972532 11.669080060566179
Fe 11.183948868712118 13.962066639437618 9.096035928143229
Fe 9.546249514104314 12.492608816540331 10.212449868379734
Fe 9.745155401986207 10.149849275757548 9.142816137017775
Fe 10.88400711590666 9.316268929539419 7.190852656449289
Fe 8.867272750480053 7.071896950334637 12.848645983949977
Fe 10.128941668928693 9.259806019160541 13.497109504717598
Fe 10.28541473999264 10.778182937830413 15.381836822806969
Fe 10.868751590275602 11.923979267954914 13.372831411023961
Fe 10.398059168764473 7.689123825522082 8.860169051915461
Fe 9.410210500339895 8.396106463351918 10.857936357557964
Fe 10.652317492056621 14.445529620283505 13.859966156987136
Fe 8.861864653517461 13.888673153679187 8.355972412715037
Fe 9.50939574948278 6.082463801511575 10.842224867363011
Fe 7.8207147446544205 9.23404124091953 12.342190875218446
Fe 10.41482628373733 11.964332039703386 7.81175052007713
Fe 9.494020464269003 14.930204330119677 10.618318045892824
Fe 9.149345965154176 13.050166576693668 14.94651472122044
Fe 9.886129224913304 10.57456754470042 11.567570206391165
Fe 8.338282109475198 9.052021234450471 7.762001876109177
Fe 8.47939828799134 11.156263520274996 13.67998517737006
Fe 7.163778147709484 7.245579899685872 11.187348992289085
Fe 8.140090988589842 7.033867487579667 9.08317457023373
Fe 8.884508988500059 13.197632932647174 12.421062763367804
Fe 7.345280373611438 9.325781590843505 9.885329294984132
Fe 7.431667407893433 13.650162026354533 10.319587014505787
Fe 7.902112898168419 11.588100678905484 8.78104527990153
Fe 7.53189094211523 11.392400530812411 11.287075079672354
