6
Energy = -35.45850789 eV
Fe 7.111656779714295 8.640548050043542 6.702862631262522
Fe 9.243411445157097 8.287089024647088 7.340318919587472
Fe 6.885195391315011 7.8180887432149415 8.786036988020019
Fe 9.015532055713642 7.479910591391741 9.425087696599947
Fe 8.129579594185442 9.691411736091323 8.699481296094296
Fe 7.988739676305298 6.426828687579845 7.409612101718312
