6
Energy = -33.43497028 eV
Fe 11.073903033947435 7.7431965109076435 8.702531516695881
Fe 9.675620513052184 9.39261009322421 8.965677009272506
Fe 9.315004703893514 11.162859567821954 7.763514313308581
Fe 8.369732470127037 11.306682047593343 9.738748378974911
Fe 8.426185148885422 9.24499607380673 10.706142651834524
Fe 9.55876858299003 7.310209644742478 10.219781027163133
