6
Energy = -34.72026545 eV
Fe 8.803807 10.792711765277444 9.076874479715649
Fe 10.277508522802844 9.384288861934657 8.160398861194588
Fe 9.973313700494698 7.303703410643661 8.729537327404731
Fe 8.803807 8.654145689565809 9.966095143086216
Fe 7.6343002995053 7.303703410643661 8.729537327404731
Fe 7.330105477197161 9.384288861934657 8.160398861194588
