6
Energy = -34.17101087 eV
Fe 9.513900425520937 7.347623710298149 7.953382745459312
Fe 7.972079514092636 6.8590674009609565 6.349494543986704
Fe 8.511346982863316 8.057169638164108 9.996568714152675
Fe 7.448912981556732 8.290590757262759 7.827815644463256
Fe 7.280532606259265 9.910259287486193 9.425446537456981
Fe 9.35870649825306 9.63067410826683 8.54460497325093
