6
Energy = -35.44966701 eV
Fe 11.748588600535944 9.756763496256267 10.853674647889726
Fe 11.779056861189249 12.005768580249816 10.771681573578958
Fe 10.925248449060843 10.574285307996265 8.929280217428376
Fe 9.57016662861158 9.284173281999886 10.574562464009876
Fe 10.438203536160898 10.718251620966358 12.403609789713483
Fe 9.60650427905838 11.528660097118584 10.476725547225703
