6
Energy = -34.80390404 eV
Fe 10.053114082448863 8.978717 9.639665830111039
Fe 8.978717 6.994350679948292 9.674705596478995
Fe 8.978717 7.865280750401761 7.621779573409967
Fe 7.904319917551134 8.978717 9.639665830111039
Fe 8.978717 10.092153249598239 7.621779573409967
Fe 8.978717 10.963083320051703 9.674705596478995
