7
Energy = -39.99746557 eV
Fe 6.382153928595647 9.451656101518633 9.917561395535822
Fe 8.5053905292474 8.799646957802645 9.387436424022395
Fe 10.411279808011631 8.951582028742612 8.034483451016118
Fe 9.956940299569007 6.990618920338886 9.227530340728993
Fe 6.622970537006866 8.476420959794128 7.8748035912111805
Fe 8.772007486146121 7.485783102109413 7.272859088191133
Fe 6.970302565942515 7.451377795739342 5.880419423540153
