7
Energy = -42.90677993 eV
Fe 7.550882508889341 5.9344222029232645 7.5925042563709875
Fe 5.910088553251171 7.004290828984692 6.3866681968533126
Fe 8.150373629766685 7.616551991427859 6.057643339706763
Fe 9.168761510001938 7.739549876219591 8.17846667969732
Fe 6.6126694214237425 8.331500622143006 8.121968278012181
Fe 7.568548305343943 6.973614936571582 9.652379499019768
Fe 8.27731385583653 9.638707326243225 7.249007534852889
