7
Energy = -43.05508631 eV
Fe 9.12617569945115 9.910849227628468 7.399213094595577
Fe 7.19208541832043 8.70121882574089 7.5871052474568215
Fe 9.446513517091718 7.612007722269039 7.318181213201567
Fe 7.878255797327547 7.309308309686373 9.568246794477128
Fe 7.471387426159052 6.44132907431502 7.476577169440547
Fe 7.549522931718349 9.601552627266964 9.665255944553529
Fe 9.687179796940644 8.774854800102414 9.33654112328384
