7
Energy = -39.8951847 eV
Fe 10.082707658914712 14.176230824702674 9.833220436755425
Fe 9.684150070412423 11.982003610363126 10.479962447798135
Fe 10.209712406356072 7.5323189789054315 12.212131949311823
Fe 9.756517901946477 9.57817188866009 11.414991934813996
Fe 11.471014243411489 10.445114201861765 10.306333259452796
Fe 11.876753912996417 8.320645219219779 11.096121669636506
Fe 11.576949282401738 12.697539980122627 9.376323652762208
