7
Energy = -43.51502715 eV
Fe 11.209039479892043 10.867029471734304 11.28105801132452
Fe 11.791868312940199 10.128062814234617 9.162843398521934
Fe 10.453987010937674 8.784507057025007 10.565576414568943
Fe 9.683889660058316 11.092331124842989 9.24707381189459
Fe 9.805632068187709 8.97373883655054 8.30522591848158
Fe 8.947138745673476 10.746955078151158 11.385742417331738
Fe 8.223102523702355 9.12397880937066 9.978762352877855
