7
Energy = -42.56542256 eV
Fe 9.86518596896219 9.342745203982085 9.045975190287331
Fe 9.662806902674106 10.211622202653759 11.289353351314634
Fe 11.88380605655882 9.878886396343056 10.0906276614444
Fe 11.427349511077717 11.886322923415369 11.212773461398331
Fe 11.722519754794925 9.962273590412696 12.367360851003108
Fe 10.190339846075508 11.653722963092521 9.246584564834665
Fe 8.129200245086746 10.708923645763115 9.585749085863663
