7
Energy = -41.21155413 eV
Fe 10.233009692703172 11.056570268433312 9.456252412368501
Fe 8.873696045112844 9.177281996503654 9.263385957933227
Fe 7.21657694135218 9.364465457624727 10.828176527490578
Fe 10.922604438939803 8.918657158164418 10.322759771512318
Fe 10.881024956604803 9.309740324584203 7.961071628311909
Fe 9.049873111334072 8.379880423448904 7.125293616901954
Fe 9.197997800031555 10.16818735731896 11.417843071559929
