7
Energy = -43.20505025 eV
Fe 10.663844616518363 9.25698089206511 8.320984528236314
Fe 8.91790445539742 9.61687266014193 9.704383859450312
Fe 8.757985155660924 9.263815812098011 7.12487834522387
Fe 7.459789805293739 7.355101793700407 7.605232057699622
Fe 9.568342476957488 7.316648465345774 8.65559262576123
Fe 6.879184459028013 9.420302099285617 8.538190517365928
Fe 7.606397084727302 7.671726643661735 9.916118228601475
