8
Energy = -47.60669299 eV
Fe 6.551413384573093 6.551570887872498 6.551407453003893
Fe 8.83957754615386 6.555492885415423 6.548643034005086
Fe 6.553493572367793 8.84160008547815 6.5534905440832425
Fe 8.843518898927279 8.843654143711426 6.5514161628576275
Fe 6.548640255720444 6.5554890143692575 8.839572582346063
Fe 8.852634121384428 6.542404374054346 8.852635931907448
Fe 6.551410481288442 8.843651240426775 8.843516838404135
Fe 8.839571739584558 8.846397271956597 8.839577421153743
