8
Energy = -49.91989396 eV
Fe 9.706916066687214 9.04578540548032 9.312773494136161
Fe 9.745695612828799 7.385708524767097 7.66634210944381
Fe 7.783426947728207 7.676173877357755 9.258931724217742
Fe 7.67811644564395 10.118061509728458 9.387353141530975
Fe 8.277496461901801 5.720413930329665 8.165120772181053
Fe 8.542725425058052 9.522329039908195 7.31270776271828
Fe 7.548133451299483 7.341578205796869 6.743055091708437
Fe 6.3301013013519185 8.960404780140292 7.921926168203896
