8
Energy = -49.96370253 eV
Fe 9.571209725056441 9.130489270045711 7.051387440919293
Fe 10.142040602261739 8.798261482964696 9.24511971308081
Fe 8.230073498015804 7.48002780481809 8.139515849112321
Fe 9.574428818618873 11.072609099269975 8.312039988174979
Fe 9.489526243622846 6.7214880077750925 9.947538527773627
Fe 7.778312326798709 8.28690875571543 10.230163792896446
Fe 7.7023145614069 9.82744483355082 8.389977790048233
Fe 8.939634637904375 10.344014568071236 10.420721009042518
