8
Energy = -49.13907714 eV
Fe 9.511815288167355 7.32160615032634 6.598375642566466
Fe 10.161398466540595 8.6607835563634 8.181387452366229
Fe 7.426869843143291 6.733612880592519 6.4870988956057225
Fe 8.32391290788029 7.05722234988213 8.80564563764214
Fe 8.741759287546584 9.385072971011894 9.65532627830772
Fe 5.999043478272546 7.482415702561112 7.942284576201384
Fe 7.839188081286963 9.065107973036962 7.326775920574556
Fe 6.655459126327185 8.794114770704752 9.538388584956301
