8
Energy = -49.56716601 eV
Fe 7.118401118661216 8.738440167094993 8.075851950045521
Fe 9.028298330209145 10.420352535161005 8.467744301798021
Fe 8.195719318001549 9.8743134572229 6.443523201244247
Fe 7.966112640163999 9.251678712264898 10.189346684917098
Fe 10.333434208321412 8.701087572136133 9.370087827488339
Fe 8.428169707920805 7.0263613575560795 8.986200180367259
Fe 9.477701212776944 8.196260966478349 7.253396034939985
Fe 9.250691104715393 7.590032872855962 11.012377459970113
