8
Energy = -49.00184356 eV
Fe 8.901897952878755 7.586755827259614 6.657692845715874
Fe 9.282153004112201 6.5940995435101994 8.747040667473046
Fe 8.889563436417314 10.036400210762393 6.392758372439514
Fe 7.211547884088492 6.292184642116184 7.643987700129713
Fe 5.590936387884557 7.572565606370983 8.575409669009238
Fe 7.506286521141294 7.763499093934861 9.764890409174031
Fe 7.0443359449691405 8.862306608878738 7.4878604400019695
Fe 9.178851167547686 8.930127813995458 8.58490732450316
