8
Energy = -50.38638413 eV
Fe 8.480893672137416 9.754853703505518 9.147189734698788
Fe 7.1023974880647875 8.894298341301175 7.175402107655298
Fe 7.794425455196287 6.962198577735126 8.69614850822201
Fe 8.820228267432851 7.360046813939765 6.673517940008107
Fe 9.35915375737301 9.558614305160908 7.028270523465607
Fe 10.15510450935948 7.9257313216611704 8.531170273976677
Fe 8.857712637893096 7.936783323709679 10.434730681786716
Fe 6.5061722125430705 8.68356161298642 9.38965823018656
