8
Energy = -46.0080095 eV
Fe 10.332182903685414 8.512902908232418 7.03383268710251
Fe 6.938395936608256 10.304093059484705 8.959409785835984
Fe 6.709884871013578 8.163260480064487 8.201117012957885
Fe 8.976016693175076 9.050975474720973 8.94307816724369
Fe 6.634215910849177 6.297954571004093 6.9224685058243
Fe 8.611576719397808 10.748323346444788 10.434325538685975
Fe 8.743112608531781 6.860135101643088 7.696704319505955
Fe 10.632256467355743 7.365289345918277 9.068122171060539
