8
Energy = -50.38322703 eV
Fe 7.145957361830675 10.020781322672295 9.1709394371954
Fe 6.948436588720754 8.058723734642335 7.989254398947161
Fe 8.790554628332254 9.796480734148778 7.634634575228131
Fe 8.93697835858277 7.667174864138885 6.783492406579005
Fe 10.374924605158657 8.044967730765121 8.60412556062562
Fe 8.580997453236332 6.526378241527641 8.733953202771024
Fe 9.783586976358308 10.0065599008525 9.649975465389138
Fe 8.328724679782004 8.34240790606516 10.115746498617606
