9
Energy = -55.77529729 eV
Fe 6.467018731788122 9.49558661692641 7.922707612396959
Fe 7.367484395526218 7.31532681758402 7.986724025958436
Fe 8.409197930273974 8.97264749492184 6.666179726712816
Fe 8.73839101912723 7.187338944965029 9.9089831252256
Fe 8.488649881560265 9.500874436574222 9.073003419719798
Fe 6.66682443188826 8.360456616789662 9.977661701397158
Fe 10.346346233955183 9.831715651831942 7.728660090803577
Fe 10.560360004162503 8.711782719813606 9.789667420823896
Fe 9.869295371718248 7.537838700593387 7.859980876961633
