9
Energy = -52.73155426 eV
Fe 13.747721762400984 8.989912195203962 12.190331611633233
Fe 11.533850248024804 9.168535230214326 11.87768079587279
Fe 9.280925249538791 9.943544221546194 10.97626414487077
Fe 11.29609551940073 9.967427231005749 9.680215167868797
Fe 13.22465660039734 10.658756851712132 10.847369487926974
Fe 9.63786072794259 11.71533177195041 9.53391919494216
Fe 11.08019452336845 11.465326661919642 11.42766547399724
Fe 7.427068974009693 10.90524535249146 9.928740022126977
Fe 7.809075183404733 12.525001556351361 8.750406551607954
