9
Energy = -56.52018763 eV
Fe 10.555440454120879 8.877622420570525 9.670728054268803
Fe 9.03829965761192 7.129270020348178 9.618612046299713
Fe 9.422144720038846 10.422485763300307 8.448481274428042
Fe 10.11460819530434 8.17393978623448 7.5420926906344175
Fe 8.251927444973226 6.903351920677928 7.486380656213271
Fe 8.39593684827819 9.183948953731619 10.44329235264861
Fe 7.005208676215265 8.018265165235052 9.048182527690003
Fe 8.15593195992836 9.199092196602402 6.971250484278593
Fe 7.210853836309742 10.292205496408114 8.831894908051016
