9
Energy = -56.189972 eV
Fe 10.981843054852401 7.999178104755504 8.394202968180698
Fe 9.68546797093782 9.678960925721865 8.824177074774443
Fe 8.926226448664213 7.239973228931762 7.833514572372675
Fe 7.97017535594963 10.990363761023465 8.651364261847963
Fe 9.07151912862728 9.256255179259748 6.748899969869637
Fe 7.424877654257043 7.3406424885245585 9.594910757835097
Fe 7.160352337874997 8.985344067657472 7.990675219255017
Fe 7.8857972621546235 9.455524504840374 10.40677487741366
Fe 9.59490678668224 7.754923739284879 10.256646341976367
