9
Energy = -55.95703501 eV
Fe 8.89562619367586 6.612155521568553 7.500425390539001
Fe 10.656015694440432 8.078175057783143 7.442106329977598
Fe 10.388725512708795 9.548108251406855 9.081307880504742
Fe 8.576247896039334 8.94097492409933 7.30841913797551
Fe 9.032038438120129 7.769237059089844 9.569811952880316
Fe 8.22821318428372 10.22328699366038 9.211317660859548
Fe 6.930122972031432 7.330855195812129 8.378238354397936
Fe 6.41812699511802 9.511849855064238 8.035862758997519
Fe 6.996248693274443 8.618658817903926 10.240302055842722
