9
Energy = -56.22060535 eV
Fe 7.316171461313358 7.300983538191159 6.42408353767739
Fe 6.078428992073916 7.888508623338255 8.617180959515368
Fe 8.106733724662819 7.514948440504804 9.82543706500574
Fe 6.451883574867897 9.361191446251048 6.898996845275486
Fe 9.030908955083467 8.823198972564203 6.443265593974158
Fe 8.089916447576995 9.346998311892662 8.42161623845878
Fe 7.299316472072406 5.939381131043483 8.280548901881883
Fe 9.323235905962095 7.024822475453493 7.852087769499878
Fe 10.271481760506093 8.768044354880324 9.204860382830882
