9
Energy = -55.04481868 eV
Fe 7.416850207729594 8.796936356202057 8.686271608232255
Fe 9.622164586901617 9.470694077411359 10.003509140917572
Fe 8.071564417511611 7.864752886937512 10.794827559274257
Fe 8.385139463502474 10.560446383723786 7.080052598879275
Fe 9.42390763832233 8.266980147598858 7.648797721205223
Fe 10.372030812574586 10.43019431592035 7.977448657921412
Fe 10.365828593460922 7.256268780308664 9.609110731757456
Fe 8.076633044889721 11.041186317657907 9.155701696375178
Fe 8.388682775693281 6.4353423965834 9.167081744851751
