9
Energy = -55.67862405 eV
Fe 7.38598927823806 9.100280846663242 6.901310288278119
Fe 9.490839499893678 8.526833633138041 7.553668099457417
Fe 7.513923561728449 6.964588308885045 7.82680822384695
Fe 9.652647230101689 6.484366428959154 8.471607987307312
Fe 8.287790818589679 10.969771694997725 7.449151801286895
Fe 7.643341222882721 7.0642721083979625 10.103730111159251
Fe 7.472203355335467 9.120847340444984 9.202922527319663
Fe 9.5049883479459 10.219861999619427 9.062824319528087
Fe 9.656131849962334 8.127538926669759 10.064489877843284
