13
Energy = -24.11374518 eV
Ag 9.8430695 12.624059165950941 12.67365912761314
Ag 8.40766169789095 8.458294427496734 10.780327524795865
Ag 8.40766169789095 11.227844572503267 10.780327524795865
Ag 8.460137107052192 9.8430695 8.36514276700904
Ag 9.8430695 12.415542869549256 8.706655345854157
Ag 11.27847730210905 11.227844572503267 10.780327524795865
Ag 11.27847730210905 8.458294427496734 10.780327524795865
Ag 11.226001892947808 9.8430695 8.36514276700904
Ag 9.8430695 9.8430695 12.837849562987639
Ag 9.8430695 7.062079834049058 12.67365912761314
Ag 9.8430695 8.479546157669727 6.254914678438251
Ag 9.8430695 7.270596130450604 8.706655345854157
Ag 9.8430695 11.206592842330274 6.254914678438251
