13
Energy = -23.98198513 eV
Ag 9.727852839003363 7.8451151702720034 6.5627196724174155
Ag 7.85261367134183 5.837845426358084 6.236511697709756
Ag 7.3503609228243505 8.401572690452163 5.008515975304852
Ag 8.520661031838417 10.28801421090377 6.871937882197429
Ag 9.270346155831083 6.219957469582482 8.82785195492365
Ag 5.809815136661596 10.31200618827149 6.583765791976307
Ag 7.012975662585747 8.069685488097841 7.708708666610103
Ag 9.58972791050102 9.013289343015874 9.142215573104059
Ag 6.54249520683073 5.637139678078705 8.829448146348751
Ag 7.089167445744191 10.394595178748427 9.325044268856749
Ag 7.367629846429225 7.6777977880846615 10.4862913801011
Ag 9.981237689810342 7.28909511477731 11.315627949945123
Ag 8.596865135522316 9.832084976334023 11.634299330440566
