18
Energy = -33.97923756 eV
Ag 12.171633 10.43131938414974 13.378907906516917
Ag 14.373094130966221 12.171633 13.394199347437407
Ag 13.622939099753086 10.810375143531996 15.774709348368086
Ag 13.622939099753086 13.532890856468004 15.774709348368086
Ag 12.171633 10.499190009273455 8.703449327498634
Ag 12.171633 13.911946615850258 13.378907906516917
Ag 9.970171869033777 12.171633 13.394199347437407
Ag 10.720326900246917 13.532890856468004 15.774709348368086
Ag 12.171633 13.844075990726541 8.703449327498634
Ag 14.353046752672682 12.171633 8.414442287065626
Ag 9.990219247327316 12.171633 8.414442287065626
Ag 10.720326900246917 10.810375143531996 15.774709348368086
Ag 12.171633 12.171633 17.712913346641447
Ag 12.171633 12.171633 6.545856123377345
Ag 10.682950308926703 10.812056786606187 10.987447349867836
Ag 13.660315691073295 10.812056786606187 10.987447349867836
Ag 13.660315691073295 13.531209213393815 10.987447349867836
Ag 10.682950308926703 13.531209213393815 10.987447349867836
