17
Energy = -32.91105355 eV
Ag 11.001547959557003 8.921998349857843 6.598778615076062
Ag 8.690789938339648 10.527602373410074 6.684581397690693
Ag 8.556386267561596 7.722149238063282 6.872884323429282
Ag 10.992999028341023 11.455808273597025 7.9213930983382355
Ag 6.827374238123427 9.3914107908882 8.398010210342061
Ag 10.782348023808922 6.82269635003136 8.892318481783484
Ag 12.600856441466243 9.165606010413848 8.791793632239566
Ag 8.416602748953059 11.682940323570449 9.281649964861122
Ag 9.644270199411462 9.209808133262275 9.22171254506007
Ag 7.860412393846099 6.829255745135583 9.35366725445088
Ag 11.677016835545635 11.136839235285969 10.561487087781911
Ag 7.206984299926378 8.947623971007367 11.079925187915626
Ag 11.79337275385404 8.466192782836151 11.310168809573579
Ag 9.721744036177835 12.79843038057045 11.466958616640998
Ag 9.367476337902879 7.272091090202548 11.592781595276481
Ag 7.2322967995798795 11.573581614870045 11.793851822914796
Ag 9.595785593133499 10.044229232525767 12.146301252153533
