12
Energy = -21.45955295 eV
Ag 7.3617157009296985 10.452948015844214 11.47911248323721
Ag 9.184687204978259 8.477793081895799 11.18131871245014
Ag 7.61392589224305 11.676444015506325 7.725160026286593
Ag 9.495633230071059 10.948669131909831 9.692895451345782
Ag 11.363877331916674 10.146271465177144 11.676689014868344
Ag 7.190369305461647 9.252093823661978 9.058464545470041
Ag 11.498545930511892 10.85750041081041 7.6781778309096556
Ag 11.246954654606492 8.700427044252773 9.29200243033048
Ag 10.8893483006667 6.382002747151768 10.706101228850011
Ag 7.125907579577009 7.756817834413445 6.743499857375927
Ag 9.22795418162076 9.46684166077651 7.192440293503747
Ag 8.985474613472602 7.045178466252515 8.725752921585533
