19
Energy = -37.40688506 eV
Ag 13.187414409567111 12.774796452619881 10.586694742585161
Ag 11.969965177907525 11.463390432563108 12.767136832922038
Ag 13.17023505558786 9.972441780716576 10.70598101420464
Ag 10.688917378537633 11.498704618930947 10.243242755001608
Ag 10.252106367707828 12.799452496419283 7.802690599320807
Ag 8.291472166524327 13.147664165645264 9.796945503156634
Ag 12.704345124660367 11.276903558875397 8.256411896790809
Ag 9.515179505566339 12.962438631936823 12.322239464185042
Ag 9.487953331758572 10.5916847614157 13.735819021992423
Ag 8.038114606601221 10.792118523641262 11.300241392139489
Ag 8.067570646711085 8.41138757537209 12.758303997767769
Ag 8.506472855323915 10.695206484531882 8.467249681451008
Ag 10.782217928324812 9.022532584539997 11.808753058189758
Ag 11.2406040356827 8.914803884657202 8.974507990577573
Ag 10.64449989266213 10.336165053788829 6.621854851341832
Ag 8.557455735135232 8.366161892147215 10.009442075239512
Ag 9.777932877009993 6.4588079269702625 11.655058294248601
Ag 8.956639931044268 8.226806570637558 7.24893813491177
Ag 10.206542236462518 6.354604524556998 8.941796758300343
