18
Energy = -35.26875017 eV
Ag 11.285550462776733 12.606521366959889 11.979353322993044
Ag 8.094058553413877 9.985270873507142 9.565854817813719
Ag 8.916940718606444 13.775762900863425 11.356144146997572
Ag 13.791552471247307 11.780844672172897 12.620122360820778
Ag 11.41301517170616 10.231261644417437 13.335835145264435
Ag 9.21532002207251 8.599369012784713 13.568329666963708
Ag 12.093624808736575 7.4667450771970545 9.698814877533374
Ag 11.188979962185492 13.697400105917682 9.437272123434163
Ag 13.31775463761178 14.340203510417895 11.270096703571467
Ag 13.427690841304917 12.049045149247746 9.780681956370765
Ag 8.932946047942893 11.05602216978554 12.105081732886095
Ag 10.039219408591192 8.732557650536464 10.955505061513952
Ag 6.738164428223675 12.141928824354782 10.744816582119743
Ag 12.955923223278768 9.606333788057478 11.148928134448973
Ag 13.419139143987802 9.672714363111453 8.437140108459765
Ag 10.912456145488383 10.745026293777029 9.182431945847659
Ag 11.785931361230329 7.5088529956080405 12.657937996877038
Ag 8.78627752211745 12.529353180937042 8.86679095893447
