18
Energy = -34.59261389 eV
Ag 11.70996505412219 10.159919544521372 12.12445157576875
Ag 14.141047273401892 11.815517110482386 14.887871429529701
Ag 13.230924658774674 12.683516029171226 12.47852422132596
Ag 12.983495246789902 9.319920520917286 8.036091244114482
Ag 12.083839518791441 13.820885764403268 14.81530939524062
Ag 11.050535545802433 11.276846730783058 8.401823375915894
Ag 10.762804671657667 8.900722785681316 9.831637987329499
Ag 9.39337476645781 14.710161584668755 14.089272588575122
Ag 10.484491226143811 12.433035465655857 13.072065283217466
Ag 12.359846547236902 6.785366552062189 8.790329714142338
Ag 11.50383155495334 15.059920379535995 12.345607138935373
Ag 9.122688858655607 14.194833458479748 11.141917379916602
Ag 13.38892609890791 8.40460574337528 10.770705763339222
Ag 13.439197871708041 11.164141737568308 10.054408489237042
Ag 11.573524206121391 13.217390229489956 10.287824885012615
Ag 14.440355165458715 10.158730337690823 12.660667484571192
Ag 7.813491965410249 12.51237281356033 12.883159621383376
Ag 9.463301260311914 11.260158016181224 10.762581505204565
