11
Energy = -19.29755377 eV
Ag 12.363164112170045 10.36295498261415 7.990813430844874
Ag 11.420020074316774 9.650464416515195 10.484543967642391
Ag 10.449388502898756 11.872610211851 9.194139603371552
Ag 7.841657885409872 12.735652418717759 9.09454994259526
Ag 11.438214143598595 6.864301111523158 10.806234573299237
Ag 10.403565973568291 8.906834377772736 6.706707312504238
Ag 9.518261929748 8.090518955644857 9.168600244389543
Ag 9.426651991698133 8.273188720841516 11.981072594334188
Ag 8.426055510358337 10.303352109817162 7.952108956631901
Ag 7.340821889159588 9.591882455844912 13.013954978473857
Ag 8.519275699316971 10.550543547149694 10.745216852046376
