16
Energy = -29.36177889 eV
Ag 9.051124608084965 12.07055536776759 10.665575
Ag 9.051124608084965 9.260594632232412 10.665575
Ag 10.665575 10.665575 8.654844416575457
Ag 12.280025391915038 9.260594632232412 10.665575
Ag 10.665575 10.665575 12.676305583424545
Ag 12.280025391915038 12.07055536776759 10.665575
Ag 10.665575 13.61978634504959 9.11542385461977
Ag 10.665575 7.7113636549504125 12.21572614538023
Ag 13.316157422412777 10.665575 12.965756794766158
Ag 8.014992577587227 10.665575 12.965756794766158
Ag 8.014992577587227 10.665575 8.365393205233842
Ag 10.665575 7.7113636549504125 9.11542385461977
Ag 13.316157422412777 10.665575 8.365393205233842
Ag 10.665575 13.61978634504959 12.21572614538023
Ag 6.567891534388834 10.665575 10.665575
Ag 14.76325846561117 10.665575 10.665575
