15
Energy = -28.25057188 eV
Ag 10.131004238964548 13.474146436333616 10.453800213661046
Ag 6.839372008733492 11.103913982519833 11.698882653410987
Ag 6.399057064500166 9.32552825013489 9.629370219899169
Ag 9.530376470957993 11.470569785173312 12.195465568212642
Ag 8.652573238677814 11.160071242705058 9.461787721829891
Ag 7.939295745726279 9.341405818829182 7.376098947767416
Ag 11.412904218506569 11.09132714101643 10.07318096715245
Ag 10.505304958514603 10.257485485400384 7.520922192429967
Ag 8.56125538537621 8.931007319468474 11.397962737296046
Ag 11.221556674488088 9.260327813876703 12.234464774040665
Ag 9.99999011425719 7.4653598447281535 7.067566569708551
Ag 10.623653242081078 8.316358695959456 9.654861909687252
Ag 13.304119415755745 9.094433360978604 10.318085233650196
Ag 8.116811889057658 7.143017883654683 9.141379974466497
Ag 12.574769714248324 8.353815623672496 7.735957888234789
