11
Energy = -19.75740159 eV
Ag 7.3344129327781244 12.566528423193322 9.315568975902904
Ag 9.4710589219935 10.749476532080635 8.412563409512332
Ag 9.932373994506214 13.172656737522203 9.809700153758122
Ag 11.615871980680076 11.036519921683428 10.281330702976497
Ag 6.947941507241097 9.885526679648237 9.369957454572333
Ag 11.493618595045804 8.852762273265563 8.546238257846671
Ag 8.891475809260523 10.920569018534653 11.184372878254344
Ag 9.14435214716065 8.343772543993452 9.964914517917746
Ag 10.773522002655653 9.093105022469013 12.100454170635942
Ag 11.413088273515251 6.809773166101437 10.526308384516295
Ag 13.255041216672899 8.80514469669252 10.764018626165125
