14
Energy = -25.80954019 eV
Ag 7.156391808215548 11.430341413497361 8.81086328376242
Ag 9.912018162527803 11.382592413130766 9.01839109573518
Ag 11.884298636768033 13.326944427391563 8.51641790478252
Ag 8.387109715384005 8.98501596466403 8.860836527214909
Ag 12.549104378074388 10.757878758894128 9.264273348390216
Ag 9.239686242683806 6.418332006404044 8.624079190225318
Ag 8.282594868971554 10.621447801615895 11.186896361528422
Ag 11.195056881384318 12.647671957690514 11.114087418353613
Ag 9.676128577555678 11.861287316067592 13.261542623174439
Ag 11.121384834009358 8.389956376999768 9.15113954555489
Ag 8.696883643379465 9.174925941875774 13.444822819165193
Ag 10.919661562714607 9.909811938818903 11.557071114138864
Ag 9.200209654438199 7.712522254437696 11.168447785939346
Ag 13.2099786352743 8.82681426344311 7.484138503510752
