16
Energy = -30.94489811 eV
Ag 10.012602683577184 10.911708737960254 14.3800496710238
Ag 8.796338774123534 12.846148064845911 12.598302732890765
Ag 9.655266808241718 12.177236928589355 9.929959671014526
Ag 10.78129427442703 14.30209308138868 11.162233899341162
Ag 6.975621443076696 11.761341738035377 10.696832235635252
Ag 13.30391026727654 9.563232116927036 8.708762936234361
Ag 8.36951672384223 10.047816795461221 8.931456838777494
Ag 10.901955407941177 9.454587294750585 10.073060621397255
Ag 11.427335883104547 11.816553146253508 12.229637935625526
Ag 11.300436571604035 8.928188296155987 12.727628135465912
Ag 8.865219020660263 10.119269824066494 11.893142666506561
Ag 12.465142110139261 12.019528494748666 9.686652906949162
Ag 12.910097176937054 10.604654976687037 14.245756620008088
Ag 13.564774437110806 10.154973452990328 11.485487538783419
Ag 12.77781684834993 7.550751247453325 10.727968634113932
Ag 10.841247971748317 10.669040191835977 7.643191778991655
