18
Energy = -35.52989534 eV
Ag 10.708133047475219 13.462720763673913 9.786801520913572
Ag 13.694418543879788 9.786598987555543 8.7722586458522
Ag 12.76716418425317 14.58588241120302 11.441710271398088
Ag 11.151374956431685 10.781346284963202 9.217578947412267
Ag 13.326117380269267 12.38453410595166 9.766261218318
Ag 12.5116339572721 7.621905444163108 12.709250221421438
Ag 10.802003950399298 9.737184720211816 12.615124385358989
Ag 8.57684449284449 11.758617678333767 8.920512308355091
Ag 13.390658510599078 10.089564851304186 11.509429672742856
Ag 14.614700728093494 12.543948941758824 12.24340795053532
Ag 11.844633033742708 12.24915954284896 12.442003578580087
Ag 8.07721319662678 9.351017412320173 12.827005916858935
Ag 9.036463963833954 9.2653277615195 10.175658081491262
Ag 9.7947455585287 7.258887503751421 12.039650821805665
Ag 11.691510174793258 8.21530989025704 10.081116600988898
Ag 9.170671014831791 11.75868056114623 11.6682668467345
Ag 10.05029403978692 14.407756636489301 12.354840555862921
Ag 7.975361510080501 13.96574432163785 10.503227928954429
