14
Energy = -26.1960013 eV
Ag 10.831734 12.867939098556203 10.831734
Ag 8.795528901443795 10.831734 10.831734
Ag 9.424532557826016 12.238935442173984 13.184620672173086
Ag 9.424532557826016 9.424532557826016 13.184620672173086
Ag 9.424532557826016 12.238935442173984 8.478847327826918
Ag 10.831734 8.795528901443795 10.831734
Ag 12.867939098556203 10.831734 10.831734
Ag 12.238935442173984 9.424532557826016 13.184620672173086
Ag 12.238935442173984 9.424532557826016 8.478847327826918
Ag 9.424532557826016 9.424532557826016 8.478847327826918
Ag 12.238935442173984 12.238935442173984 8.478847327826918
Ag 12.238935442173984 12.238935442173984 13.184620672173086
Ag 10.831734 10.831734 15.100779162812946
Ag 10.831734 10.831734 6.5626888371870535
