10
Energy = -17.70970342 eV
Ag 11.252613289706838 9.71950391197575 8.759382828269839
Ag 12.890808042449903 9.175708912887833 10.979514211560895
Ag 8.89819851578785 9.92079415315595 7.259702520528453
Ag 9.40750914996489 11.713671114934998 9.293395771206548
Ag 11.343030705085656 11.336249529218627 11.271910766272612
Ag 10.127662412034205 8.697949188683598 11.07805933522007
Ag 9.37731963986964 7.548444211753828 8.685969039233282
Ag 8.62557352430541 10.891067873322983 11.875279579940164
Ag 7.691771511754763 9.382289179236915 9.786179791845619
Ag 6.805816796776378 8.147451940871784 7.469889954050977
