19
Energy = -37.65250492 eV
Ag 11.636187163162749 7.3850671736849085 10.66123310893506
Ag 13.12327188170399 9.550693379097023 9.607966227593348
Ag 8.816392227520833 7.483754033060135 10.490308153588444
Ag 10.32342622236408 9.529828419962097 9.349182004715196
Ag 14.083334880483266 11.226881885828744 11.631554010952868
Ag 11.810055829353105 9.726625879473902 12.116388048437026
Ag 9.103516617965859 11.403872091257703 7.631552608959557
Ag 11.85876477124427 10.896253403066721 7.442566614442076
Ag 10.087963774314684 7.710351275214245 13.015647654801608
Ag 13.677650115192078 12.260927694179514 9.096617731678048
Ag 10.156265459586958 10.304598229350265 14.245377903273498
Ag 7.508265114188641 9.636538785601335 9.291056811527124
Ag 8.760776602800549 9.912545148302339 11.841279905561098
Ag 10.9041287951985 12.496268288861277 9.501504790247782
Ag 12.547540456501723 13.556239084245412 11.433588744669064
Ag 6.460065077531546 11.97406696419913 8.167405142193715
Ag 10.158656284649581 12.320636443664096 12.222988676207416
Ag 12.411222496280718 11.971293531629444 13.776855342131016
Ag 8.25131205124864 12.168355474291122 10.245576404847496
