15
Energy = -27.29741691 eV
Ag 14.157044420000057 11.144744469581399 12.099424347665177
Ag 12.327434715299056 9.072358392988647 11.630782198901379
Ag 12.668703959803084 11.276590376117472 9.809007010128692
Ag 12.805380561565608 6.7599287357151505 10.133141983988791
Ag 10.598943903155961 11.279726666888665 8.017565301652308
Ag 11.462814532932294 11.589465128480867 12.425918464155439
Ag 11.774530943307903 8.898839690504486 8.738226569195955
Ag 10.247104922483292 7.4853185892007605 10.669764662747584
Ag 9.468901198088554 9.779941632489683 11.979930563364112
Ag 8.847157272967655 9.46749077417274 9.143576757715904
Ag 8.960191102465602 12.500864460858681 11.931029698420579
Ag 8.249159781770121 12.304617245523772 9.248839113740134
Ag 8.027504291344647 10.91454545525092 6.95382740343658
Ag 7.576004035906609 7.882515061825707 10.926212580653765
Ag 7.222614079219085 14.232265518699212 10.780141710314053
