12
Energy = -22.18989593 eV
Ag 11.08819657086237 10.361346252478581 9.799395
Ag 10.767016677375576 7.579587097029142 9.799395
Ag 9.994747222410536 9.003381484294696 12.045543205074457
Ag 8.66230371553873 11.360844975611379 11.171615383911305
Ag 8.66230371553873 11.360844975611379 8.427174616088696
Ag 8.206872405518185 8.961147180169176 9.799395
Ag 8.63989035416848 6.618573783347592 8.338412552913738
Ag 9.994747222410536 9.003381484294696 7.553246794925541
Ag 8.63989035416848 6.618573783347592 11.260377447086267
Ag 11.194001287146062 11.80157258795411 7.441203710586665
Ag 10.548769187716116 13.121913807907136 9.799395
Ag 11.194001287146062 11.80157258795411 12.157586289413336
