13
Energy = -24.10351383 eV
Ag 7.977112853453025 12.391716782586107 9.134214943647045
Ag 5.881222421666063 10.656842375577645 9.921700694465935
Ag 8.241258968732414 10.695316046658418 11.35848668289938
Ag 10.132984292882407 11.833740761279106 7.505002594888572
Ag 10.596157970941553 10.74247265248299 9.97821241492482
Ag 12.778808611505047 10.679036138621035 8.229384269071893
Ag 8.188677283947461 9.730059240288513 8.54163267879854
Ag 7.194136577680772 8.231292786688838 10.684557775973408
Ag 9.951707323675963 8.557150049895553 11.653704637199473
Ag 9.468299933497734 7.3239397739524925 9.240156318187902
Ag 10.663953922821944 9.086912547509652 7.489456785978896
Ag 11.273019936845015 6.176550272442641 11.024062595998107
Ag 12.182075758509034 8.394134945251261 9.736198229494166
