18
Energy = -35.69273284 eV
Ag 9.780530709181892 7.741382030095639 10.590781921049706
Ag 7.076437376157721 8.207628731446924 10.203341972484413
Ag 12.470329295367964 8.078652315614033 11.096212827999356
Ag 8.973581550070577 7.726202254102136 7.908479982179635
Ag 8.07042220974319 7.605947972690956 12.792352685677052
Ag 13.22333580142972 9.934042796792614 13.029831350992948
Ag 11.40314815264549 9.00760235497205 8.69951108059753
Ag 10.62122960874207 8.717038803049224 13.172120400008911
Ag 8.630003838755025 10.19087161997882 9.067047584112988
Ag 10.96272558325406 11.37463115853252 12.440981127170566
Ag 8.524733351193571 10.139087127900556 11.835488732964315
Ag 9.902480922454917 10.128369363161655 6.613837099319493
Ag 9.260333836245305 12.470822576225652 10.537710930692908
Ag 8.702799072191883 12.58715625252286 7.694041256685142
Ag 12.959402830992618 10.691345575874077 10.36160983173021
Ag 11.251785696622997 11.79760956976162 8.471199584305026
Ag 12.039786495824456 13.283498317114153 10.745449326538294
Ag 10.298949980436351 14.48046626901486 8.966054929855932
