11
Energy = -19.79595229 eV
Ag 12.33599712415124 12.162758446707807 9.268124571647
Ag 11.185417783342888 10.461946684210336 11.117102985109607
Ag 9.563336442872648 12.003231253951572 8.990709507180586
Ag 10.976397364532131 9.745781137006524 8.337894729425829
Ag 7.199901965161431 7.163107895849826 9.818378981231687
Ag 10.650902477638732 13.190064316032887 11.265357417006193
Ag 9.651827854862342 7.264532117307557 8.643093221969668
Ag 8.13817798579218 9.674501793806618 8.958156508933296
Ag 11.82613892557454 7.912226627742342 10.25332293199917
Ag 8.528635076166553 11.199418420773481 11.429656140609696
Ag 9.232786232625443 8.474379270432765 11.20869228764658
