13
Energy = -23.68027694 eV
Ag 8.426948135219815 6.529000592315821 7.599355857931848
Ag 9.278277416705306 8.622336280260287 9.070814208621252
Ag 10.904133451514129 8.000986897531 11.193074692821995
Ag 6.666846479762253 8.28090400648653 9.278937558692679
Ag 8.120879590221087 9.2787327479623 11.63041950520951
Ag 11.00835086868929 6.470162633478219 8.759754370345826
Ag 10.336012643156012 10.758572790459995 10.720923085353968
Ag 11.9738144841277 9.133060388967367 8.824880506662877
Ag 8.139613114497022 12.016481474640123 11.963923389777168
Ag 7.616173011157303 10.932756589617826 9.443166651057535
Ag 10.521526113522706 8.35685843967788 6.601212347079517
Ag 10.120545786147382 11.016190561577945 7.850328164349132
Ag 9.325593193895456 13.094544747935892 9.583770757792477
