11
Energy = -19.23672828 eV
Ag 7.950618724008702 12.85176741754407 9.21803041635274
Ag 11.84221409308425 8.266826694399164 13.294961046419344
Ag 9.52829100027777 8.118279994363537 11.991232290730913
Ag 7.326936856282163 7.850395251416049 10.489724421423999
Ag 8.49948071008992 10.445846308902802 10.5357507240936
Ag 10.613120214314392 12.243849448676716 9.808792627152803
Ag 10.35573612710362 8.866943668186169 6.4818206337638165
Ag 11.439930139963694 9.91015611306928 11.115794407740465
Ag 9.147310087263147 10.910779049075044 7.777153395796086
Ag 9.758946510632276 8.471565671427102 9.147953829907195
Ag 11.848869121378746 10.30248137508561 8.37774828399654
