10
Energy = -17.69767692 eV
Ag 10.120904039528677 10.605772877996936 6.420728900446241
Ag 8.04673971702875 10.293167147474556 8.102331974594797
Ag 10.638391378821918 10.841963710926901 9.133070610764447
Ag 6.303786108449752 9.89002998985452 10.105546805491622
Ag 10.233805956233912 8.283316957902876 8.090250977468314
Ag 10.91905204235653 10.599842207571863 11.85371178699076
Ag 8.847399886494905 8.803381613066636 10.392781813652672
Ag 11.540407839000956 8.247912857013608 10.552476253738359
Ag 8.542949652143655 11.552069632846694 10.749196763310609
Ag 12.949623272680322 9.025602898084081 12.742964006281692
