10
Energy = -16.1920376 eV
Ag 16.843470894761285 13.487850639511677 14.843801034078817
Ag 14.21927377144457 12.873877308818008 15.2084637301467
Ag 15.487812960515436 11.835229513271848 12.95466556379279
Ag 17.405205149572872 15.634146866885862 13.151281452219433
Ag 5.085073324953237 13.665962812958458 14.128745685090067
Ag 17.92818648285881 12.898273412722169 12.353979283956091
Ag 14.845085645619974 15.326868920277397 14.025244900437734
Ag 15.657760521360272 14.257422733532634 11.48884435115248
Ag 13.282948657076071 13.526679212640229 12.576217062272523
Ag 3.903779645306021 11.396550540252784 14.317454086802828
