17
Energy = -31.86862698 eV
Ag 13.176050190211209 9.938524675783897 10.040532131342667
Ag 12.19204877154193 12.665181794899338 10.10483233298969
Ag 11.348635483407671 10.962130662768692 7.90647571784925
Ag 14.052110110713123 9.045715688994298 12.516882903038326
Ag 9.022328619774317 11.844901763002355 6.675670950605771
Ag 12.36334926096219 11.287340648334792 12.58796338736106
Ag 11.022738931926579 8.271398029517961 8.987457790342198
Ag 9.506310461878103 12.913132424053453 9.241291170967642
Ag 8.64852380662329 9.722312342223654 8.441556596341348
Ag 10.503654614464955 10.51485320054527 10.511008239289895
Ag 10.005121556116361 12.761972919885547 12.0281681046767
Ag 11.51505395439846 8.10609237623615 11.764412309298944
Ag 6.977848622410742 11.982565991705375 8.512056688599937
Ag 11.991309912130681 9.100180243985136 14.33095346386015
Ag 7.838973233164368 11.101025637674812 11.000375063903828
Ag 9.684546330420842 10.065224468210124 13.119420950598357
Ag 8.819928154737122 8.359471166658041 10.912347342545912
