19
Energy = -36.94763981 eV
Ag 7.366456126419783 10.32843498440934 12.80164388871664
Ag 9.679564536524722 9.129918482380745 13.669114325200317
Ag 8.63913560809095 8.830301091532816 10.916468697215516
Ag 8.277467039630782 7.858822093436793 8.310102656314921
Ag 8.716316824839302 11.677660512136635 9.417747472582402
Ag 10.298245392593962 6.7356606773104275 9.772668328777126
Ag 10.117460316631453 11.155911854319799 11.738493356603692
Ag 7.836580693859081 12.824708012444972 11.848818010630895
Ag 12.209456462488523 10.446070877629332 13.383339189767245
Ag 11.401706945699624 8.392241669455517 11.66632298516916
Ag 10.090319380577446 13.907589374325559 10.771984680544389
Ag 7.797239468256517 10.316257009896166 7.246543871859153
Ag 12.46722947896915 12.800016015550426 11.780449575482612
Ag 13.037323953403105 10.360509885833808 10.593235355047682
Ag 10.481465623132083 9.473005817999736 8.95751165299231
Ag 11.558330237756998 12.246523605724676 9.191154125571538
Ag 10.30517994437741 11.367813913984234 6.901948565321855
Ag 12.846350962207634 7.894249023698182 9.333593834077078
Ag 12.80845438411163 10.247366841955982 7.689875967256565
