15
Energy = -28.42832355 eV
Ag 9.825979932651942 7.844913901004285 12.399535927367062
Ag 11.778590160192936 8.88067025657694 10.601944497476412
Ag 11.584528800066892 9.815785036775425 13.297903462947948
Ag 9.28910343930495 10.579312782925914 11.870106161229815
Ag 9.04363882033661 8.717920206551991 9.742331325242294
Ag 10.831743550140366 12.510674420061786 13.422487629030988
Ag 11.909802781464998 14.317221675371828 11.479019434996308
Ag 11.105986126132217 7.930435403810867 7.973451222767566
Ag 9.25359351730839 13.268005806914186 11.26838249904223
Ag 11.888490885900197 11.625373693616645 10.996908918266065
Ag 10.904170043624006 13.379766715142262 8.998325188699834
Ag 10.646211732651668 6.382904169338175 10.201220368840199
Ag 11.26659854527712 10.643093053695248 8.482969134512583
Ag 8.722037514405127 11.481452760318561 9.252485679356953
Ag 9.030164531332183 9.703110498685929 7.093568931014077
