16
Energy = -30.34738741 eV
Ag 9.230203965742296 13.110517250518559 14.735114115467573
Ag 8.253318776888463 8.717504069862292 10.113487598504394
Ag 10.566996668044245 8.989517524414206 11.533520917982027
Ag 10.601180674413289 13.296118454459034 12.361446411682024
Ag 9.114546089623788 11.383214638005803 10.828271952273989
Ag 12.021314514155057 12.341606299844289 14.566225141593065
Ag 11.87819913779088 12.09191316843505 10.125031051315881
Ag 14.620080896988886 11.391513569981667 10.427965027372911
Ag 12.776934451344442 9.469718069123651 9.699309687851745
Ag 13.522952584345521 13.16240223355092 12.332373760002303
Ag 9.917870270264231 10.817444879238371 13.428008006298784
Ag 12.679121952428156 10.571840250410313 12.46180854316784
Ag 12.097620801513152 14.807768443304008 10.650072149342204
Ag 10.353679988832246 10.194572344421667 8.622754636147029
Ag 7.718771413837172 10.873115392896914 8.48818295286304
Ag 10.715966461269819 7.52443613982341 9.241601446738489
