12
Energy = -21.99398029 eV
Ag 10.316187795625524 7.138055128310932 9.513726873233981
Ag 9.347945864182336 6.826129311605851 12.04755621290088
Ag 11.818857088425764 9.232370275281792 8.624973150758372
Ag 11.570121703243863 8.602155976297519 11.472739415241978
Ag 9.1284817657399 9.11122108478805 7.899038572376908
Ag 7.576905416813348 7.266026050102843 9.838318994824606
Ag 10.515685095249305 11.540017634916568 7.4848297962421615
Ag 6.5920289225055635 9.656416736474855 8.712452182700257
Ag 8.897653616819468 9.369434205026284 10.931811408403206
Ag 10.922347693459376 11.176695841160317 10.355586867443826
Ag 7.766239138044659 11.253599471162628 6.66941493373844
Ag 8.442143024002343 11.621340722808114 9.300004091239735
