11
Energy = -19.83275566 eV
Ag 12.158183269306818 7.593157774788517 10.767092625312749
Ag 11.620377610471303 10.388974116466278 11.042271428369986
Ag 10.551274987591894 8.842885962527122 8.85665820481116
Ag 9.698579058482581 8.472619361520621 11.714545117904947
Ag 9.863853489821318 6.301226631818057 9.901308476193297
Ag 7.90262819911852 8.342119771457337 9.612833991157357
Ag 10.894056627862687 11.578477006454001 8.625094829298124
Ag 10.511642489015506 13.022944668712578 10.971184959639595
Ag 8.795465193429523 10.852507649750397 10.649888824872887
Ag 8.452658427246647 10.521159596620828 7.885176873310089
Ag 8.561084027141511 13.140644320444988 9.003296374674282
