19
Energy = -37.43014007 eV
Ag 10.505599 10.505140665192602 14.448082858355399
Ag 12.006452707973171 12.57413401961333 8.167858895336652
Ag 10.505599 10.505140665192602 6.5631151416446025
Ag 9.00474529202683 12.57413401961333 12.84333910466335
Ag 9.00474529202683 12.57413401961333 8.167858895336652
Ag 10.505599 13.129433996975056 10.505599
Ag 8.970014755816313 8.38177950118202 10.505599
Ag 12.006452707973171 12.57413401961333 12.84333910466335
Ag 12.995747388407556 11.31252319979148 10.505599
Ag 10.505599 10.504848880038772 9.191283808542213
Ag 12.041183244183685 8.38177950118202 10.505599
Ag 10.505599 7.949563361430854 8.166503089515041
Ag 8.01545061159244 11.31252319979148 10.505599
Ag 10.505599 7.949563361430854 12.844694910484963
Ag 8.07077790323764 9.718174927325155 12.842977345830278
Ag 8.07077790323764 9.718174927325155 8.16822065416972
Ag 12.94042009676236 9.718174927325155 12.842977345830278
Ag 12.94042009676236 9.718174927325155 8.16822065416972
Ag 10.505599 10.504848880038772 11.819914191457787
