13
Energy = -23.55316259 eV
Ag 10.769387533006553 7.783289642360818 12.136418479188315
Ag 8.55757077276864 7.652574304546916 10.531656036213782
Ag 12.95035977462072 8.601253508355978 10.648082578995941
Ag 8.583262167729043 9.726382559304964 12.496707358444267
Ag 11.02393760752312 7.255388757614486 9.267172768144041
Ag 7.552198772999845 10.304465421367267 9.930874256224133
Ag 10.490039399579974 10.095713172915909 10.568079636990243
Ag 11.971575595139822 9.841605027057748 8.291676976051614
Ag 8.650150227701133 12.355971745452559 11.344153559955824
Ag 9.209594096368479 9.008211448789599 8.105921950603728
Ag 11.944514531192498 12.387371747395463 9.342503546826407
Ag 9.403121523032786 11.815552751134128 8.573059675161833
Ag 9.928813496656355 14.227767266807511 9.822840951476646
