17
Energy = -32.92069947 eV
Ag 12.214216776277086 13.640815183473144 11.309387087675503
Ag 11.756988207893215 13.024027088266088 8.563727364310413
Ag 9.687034274046887 12.813075426290675 10.519248319550362
Ag 12.688016347672773 11.105745504207727 10.333982897090296
Ag 10.999776538293741 11.571982085428372 12.666956045788684
Ag 9.264109148440573 12.065983511022743 7.820075467677955
Ag 11.482096881040015 10.370985031307972 7.820009852236332
Ag 7.4227111401471415 11.40391112741638 9.740071939394396
Ag 8.192791800262146 11.377681317002061 12.420810508155927
Ag 11.589701267357094 9.803966925995455 14.63407586456404
Ag 8.740259584670897 9.353557279276762 8.395463147429858
Ag 10.78956792952677 7.710440403391241 7.613581461574764
Ag 7.706931817521147 8.916118863490558 10.972749944754144
Ag 12.293251497228047 8.996445049488424 12.086099728054975
Ag 10.211063565794758 7.92228896329106 10.370798336393426
Ag 9.59686407871265 9.045056002023488 12.91681648585949
Ag 12.789961264107374 8.508356684929504 9.425432638969866
