17
Energy = -32.89321668 eV
Ag 13.218948850122835 10.688147483795738 10.14343
Ag 12.64045015139247 8.365823531478927 8.709833223554492
Ag 12.64045015139247 8.365823531478927 11.577026776445509
Ag 10.29290824860089 7.693906086031327 10.14343
Ag 11.23553641549588 10.736293782039333 8.152312431447077
Ag 11.23553641549588 10.736293782039333 12.134547568552927
Ag 11.574739259712613 12.804164725053816 10.14343
Ag 10.283889736221363 8.12122306958537 7.377205454471826
Ag 10.283889736221363 8.12122306958537 12.909654545528173
Ag 8.126506752046815 10.346786062374166 10.14343
Ag 9.174589425393917 12.604073063572114 11.602345105536822
Ag 9.174589425393917 12.604073063572114 8.684514894463181
Ag 8.546411163735677 10.29365554157798 12.887604302260868
Ag 8.546411163735677 10.29365554157798 7.39925569773913
Ag 7.858722531574223 7.904402764456362 11.540655174927984
Ag 7.858722531574223 7.904402764456362 8.746204825072017
Ag 9.746008041890093 14.854362137324493 10.14343
