11
Energy = -19.1017086 eV
Ag 11.23590112114356 11.444953460521953 11.39638589275845
Ag 10.372417306214798 11.293544554768333 6.648498427303427
Ag 10.917336428130888 8.733267235573335 11.60619552135767
Ag 9.911743916964621 10.145005168829218 9.229917287014366
Ag 10.382617520808695 7.175936944899925 9.38223675631669
Ag 7.922503275827547 10.178714115697415 7.109432507959808
Ag 10.335611402280255 8.56534586379134 7.009399989670099
Ag 8.644104062321745 10.524153835744038 11.66862249012698
Ag 6.970074275653815 9.671234328717754 9.662736932190285
Ag 7.944502020137886 7.595977137524385 8.105917776480762
Ag 8.353123063159444 7.779524737989074 11.182642453332544
