11
Energy = -19.28385836 eV
Ag 10.401786931955488 12.667515012854945 8.796835896118147
Ag 7.848320494663023 8.74884445924215 7.986112008719093
Ag 6.652109406242481 8.572759121399898 10.398785250015585
Ag 9.870779448370937 6.962050073402744 7.484134588812308
Ag 8.313134807224545 6.380738558179215 9.69603693353485
Ag 8.912401671570503 10.323926714663369 10.14405869817838
Ag 10.688545090561327 8.05875459202989 9.860483134857946
Ag 10.392259230364568 9.903727627662596 7.777518444124587
Ag 8.1474371815346 11.54049989299611 7.710713379184857
Ag 8.927675789368305 8.05995917300845 11.902618621107885
Ag 11.713636340937201 10.651204122456539 10.114956642721667
