10
Energy = -17.6132399 eV
Ag 10.28047289307148 10.416304542541484 12.094406013823072
Ag 10.630454704265603 9.32100206092829 9.65699630290737
Ag 6.080681468934352 9.30905049656528 10.680199154229637
Ag 8.52239504772723 8.408961248555029 11.398237528514185
Ag 12.102300132042023 10.147002081951863 6.58163399228215
Ag 9.555894534633559 6.731903467801703 9.36836908344751
Ag 7.867678691963183 8.803631007761341 8.573451905955583
Ag 8.329297356316594 10.9943659194894 10.11808017644256
Ag 10.311622324385079 8.247808116047374 7.1501591194829155
Ag 9.617247379684503 10.917757814429853 7.645654660864045
