18
Energy = -34.57217842 eV
Ag 12.062184998493322 10.60082181480146 6.19543234435623
Ag 10.489701055793637 12.034272112560611 8.039061178085378
Ag 8.818521050878061 10.3353380208068 9.546424818465027
Ag 11.147305306903617 9.199723266686485 8.435280999071507
Ag 9.497509346230975 13.112900842823777 10.614484828165939
Ag 13.319501453437807 11.275298898105289 8.516134495719907
Ag 12.169082768365914 13.65180618839323 9.73279511072806
Ag 11.36379852466497 11.066654188322243 10.529375813537714
Ag 9.118686920662055 10.735755320153915 12.28152983744248
Ag 13.30004828770372 9.024920630494634 10.336047737769334
Ag 9.12325829486588 13.258088118673234 13.392731601048775
Ag 10.627185007001962 8.480513819312161 11.222811706963702
Ag 10.23139073894703 8.852349743598104 13.969257043510895
Ag 13.974932834590605 11.801674060090011 11.193003788816714
Ag 8.37340940560895 10.884241704702154 14.929692329559357
Ag 11.015101084720587 11.517357714177024 14.634944259273341
Ag 12.536706946410703 10.040331868994285 12.882979024943076
Ag 11.784781573035113 13.060393604939101 12.49065592682754
