11
Energy = -19.79543831 eV
Ag 11.234307335693831 9.51194868953613 9.50178678062034
Ag 9.988723791501291 9.689442014609877 6.958648246903661
Ag 11.403561452847603 12.085459187987771 10.56925906744009
Ag 9.481938642562831 7.530412198396539 8.591585229881861
Ag 10.11330336204031 7.608521940480926 11.265887402032964
Ag 9.81071112355027 10.30459770249009 11.86936753374286
Ag 7.775065674041724 8.902275300597939 10.47642618774996
Ag 8.144243575151176 7.5452608198514985 6.151135924680674
Ag 6.779925605483762 6.962047916600322 8.534826471629746
Ag 7.361994417766634 9.602543731754807 7.853465069526086
Ag 9.055752420399122 11.206968296563366 9.273352393020582
