12
Energy = -22.10538911 eV
Ag 11.234657115055265 11.44797380670439 9.49697328041122
Ag 11.349534222307872 7.2466922398441245 12.104241868594656
Ag 9.826413155207542 11.628593296802798 11.985526133641764
Ag 11.151870287052851 8.535452814447748 9.355634722910013
Ag 9.790069430902383 13.70396818956612 10.212253223837573
Ag 9.256702978894367 8.95551681562057 11.490432674186092
Ag 8.3273296270878 8.368100383153882 8.922771039176366
Ag 9.887710553098891 10.123030500386067 7.43651135061773
Ag 9.650941992215321 6.3234881442561734 10.140623434630946
Ag 9.276654761748762 12.767024946448299 7.669595138588375
Ag 11.970298958865989 9.868427880513833 11.664771325679745
Ag 8.374767709150916 11.059516732105168 9.671254516674956
