18
Energy = -34.9338288 eV
Ag 10.499958333990078 11.816519716562157 8.207950767516724
Ag 9.827059854198955 10.206213606998702 10.367539325683763
Ag 9.645139148864951 7.286648497992269 9.008006238747978
Ag 9.958559766155414 11.931820033094079 12.844200042389557
Ag 7.295735241230754 8.83006399231679 9.582040804454365
Ag 14.062671189276637 12.361897175107323 11.401561708594894
Ag 12.326928422739734 10.44258258215028 12.354193098374132
Ag 8.722518840898296 12.977507115774817 10.69086885264105
Ag 8.703998413776436 7.662461254565074 11.557764343360489
Ag 7.4761837235671775 11.423338800600208 8.89383153374774
Ag 8.86373500448183 9.664723000086832 7.323275773350626
Ag 10.125160341995706 7.443418685737294 6.298538560946356
Ag 10.004040935476178 9.27500995736348 13.262694806543921
Ag 11.698199227831324 8.19767880689453 10.744837988531827
Ag 12.850811643834307 10.677208323054584 9.62369799538081
Ag 11.527805696492624 9.090350877582207 7.957441493757034
Ag 11.474592045001922 12.888970628250007 10.641760455912621
Ag 7.579890924133832 10.494011075112356 11.909430936809542
