12
Energy = -20.92583458 eV
Ag 12.061535981890161 10.293656883083196 9.46853518060203
Ag 10.852633454983799 11.389028200755773 11.982758261998347
Ag 10.969637485644595 12.740548696999621 9.4481461362346
Ag 12.68428688781779 7.668147245880719 9.646280137264725
Ag 10.684309927345623 8.687376828082257 11.32365185055833
Ag 8.473607408291436 9.908853606750961 12.434043282539724
Ag 9.13596962063604 10.628055718311982 9.858606115003864
Ag 10.191957510598987 8.318229447887157 8.552435423624912
Ag 10.312835902822032 10.90360364703861 7.317308050206447
Ag 7.4491557249183735 8.564330617860154 9.202826380000445
Ag 6.075307953021186 9.18005022586118 11.438248333470918
Ag 8.41003584436854 8.990694247265614 6.61517023386508
