12
Energy = -22.08000961 eV
Ag 8.509335920088192 11.342274846229307 9.24758659994772
Ag 8.509335920088192 8.430650153770696 9.24758659994772
Ag 8.204819534063548 9.8864625 11.534824329066575
Ag 9.8864625 7.732729733636008 11.783380106051121
Ag 11.263589079911808 8.430650153770696 9.24758659994772
Ag 11.263589079911808 11.342274846229307 9.24758659994772
Ag 11.568105465936453 9.8864625 11.534824329066575
Ag 9.8864625 12.040195266363995 11.783380106051121
Ag 9.8864625 12.543566366356831 7.056052179354263
Ag 9.8864625 9.8864625 13.722763924432513
Ag 9.8864625 9.8864625 7.175926446832697
Ag 9.8864625 7.229358633643167 7.056052179354263
