13
Energy = -23.15157198 eV
Ag 7.890080079854235 7.890080079854235 11.385007175494051
Ag 9.310656 12.062042274352082 9.310656
Ag 7.890080079854235 10.731231920145763 11.385007175494051
Ag 10.731231920145763 10.731231920145763 7.236304824505948
Ag 10.731231920145763 10.731231920145763 11.385007175494051
Ag 9.310656 9.310656 9.310656
Ag 12.062042274352082 9.310656 9.310656
Ag 10.731231920145763 7.890080079854235 11.385007175494051
Ag 7.890080079854235 10.731231920145763 7.236304824505948
Ag 6.5592697256479155 9.310656 9.310656
Ag 7.890080079854235 7.890080079854235 7.236304824505948
Ag 9.310656 6.5592697256479155 9.310656
Ag 10.731231920145763 7.890080079854235 7.236304824505948
