11
Energy = -19.0870335 eV
Ag 10.791734675400413 7.267000355040024 8.221440369344334
Ag 9.70085909655075 7.180521653449106 10.981656408691597
Ag 10.121072476106352 9.529812226391561 9.62530656648735
Ag 11.748897014550186 9.791107556047264 7.325973407455043
Ag 8.027222416127474 7.462517798318032 8.730310027233292
Ag 9.137251105928769 9.054947604634387 6.714429597621118
Ag 9.726717157420678 9.630538329506175 12.42627966059658
Ag 7.423164717000764 8.9197539326669 11.03942853871852
Ag 9.640856685315997 11.610970375907465 7.903682533680727
Ag 8.5524191093797 11.527381481572764 10.66419895345388
Ag 7.315075684879202 10.154696755648352 8.532476944010178
