15
Energy = -27.95757691 eV
Ag 7.528338296352203 8.54217169430521 11.354002682046831
Ag 9.608529883944543 11.255602435774346 7.559400884750345
Ag 10.017800799919582 9.005938892606125 12.760602592520003
Ag 12.25388061527227 11.756208273695805 8.522153593655167
Ag 12.38955977693492 8.87462047085465 8.757913113983719
Ag 9.972928779651488 8.43515085119389 7.260158426295648
Ag 12.29572209625414 7.9507630850599424 11.454677810926944
Ag 9.801107373772874 11.898244496033074 12.625527445986094
Ag 11.575073347492747 10.541431198820604 10.93871560338291
Ag 9.953182842574801 8.150369453709073 10.034372303924862
Ag 10.0093982838867 12.613413757535346 9.937173098176565
Ag 7.8567793071669785 9.484048781934312 8.749380116798447
Ag 7.715108372483378 11.328614301547502 10.795726689229914
Ag 11.817209344629159 10.214679684869923 6.3107117014711305
Ag 7.63945846944329 10.382820077170324 13.373561391961545
