12
Energy = -22.10680523 eV
Ag 7.848308406265647 9.60214084647619 8.282466883307812
Ag 7.225171246018685 11.317418039517905 10.331160438061627
Ag 9.501366171119017 11.878543498620777 8.807131202963973
Ag 10.61612092147624 9.309398881104675 8.708617343482763
Ag 7.625959843887169 10.4966896461414 12.876122517190145
Ag 8.870488404977557 9.018569972739035 10.836529723492225
Ag 12.045609616699295 11.597850818654065 9.879527179666827
Ag 11.656412089345418 9.217746388000991 11.293428819852
Ag 13.371773270471332 9.398547777026783 8.806278097362956
Ag 9.830253047215697 11.550232634282231 11.5940497509354
Ag 12.370107301084634 11.505690979694787 12.727660399569505
Ag 14.299364511951953 10.374027585775151 11.17939597238836
