17
Energy = -32.88536518 eV
Ag 13.593417887914534 10.824245262772589 10.53394611446903
Ag 12.329090887823885 9.835035130433537 8.131452141028513
Ag 12.03865315359001 8.486047773185982 10.547758858775262
Ag 13.355839768157455 9.227670684853654 12.86330271829364
Ag 10.436733400612349 7.745436683105427 8.521930425990247
Ag 9.511720556328214 10.204678312852616 7.75265883232968
Ag 11.325743048632152 10.992071816140347 12.198663126544822
Ag 11.25068824448078 12.116839152816645 6.860036155706597
Ag 11.256687925583938 11.98830983814098 9.632985532474246
Ag 7.67485640073758 8.212668595112138 8.326127984368163
Ag 10.70932980565399 8.26674426474964 12.926967629156092
Ag 8.899041105563953 12.842897868768327 8.460149047567386
Ag 8.933287233662622 10.341792177782134 13.407216892687556
Ag 8.880904188693528 11.925926574756739 11.122014613205884
Ag 9.065375817904828 8.977207279914726 10.714093733331373
Ag 6.706194739683326 10.120611694731807 11.824750519801333
Ag 7.180400553313355 10.782668908481167 9.229229633170323
