17
Energy = -32.43016895 eV
Ag 9.025196306233292 6.9369111086342015 10.05213116722933
Ag 13.771806062064112 8.834605275968476 7.942380100060381
Ag 11.370356891399958 7.81055428647303 8.80527418385628
Ag 8.962681177232037 9.217273458752723 8.534352775865104
Ag 10.31946248635248 9.208204690110128 11.117956573834846
Ag 13.060085346795352 9.62268832042509 10.517387991488155
Ag 11.589854086813085 10.486050753805525 8.242132648853785
Ag 7.801193091164852 8.051935892065146 12.224309846387529
Ag 11.470717549469628 13.174190528914544 7.921833292000485
Ag 11.943192743085676 12.253701515281008 10.450396732080865
Ag 9.349329495103797 11.910519750946907 9.244780700814074
Ag 9.17739184548293 10.143323563692807 13.497278433898167
Ag 11.907477309848076 10.790159241751109 12.781519521402048
Ag 6.76084028563655 10.780153815835424 8.543658232739007
Ag 7.767398321862335 10.548965388774404 11.064342209279022
Ag 9.621356687576927 12.453942879286073 12.053007109592219
Ag 11.993970336614256 13.573013808371796 12.877642582537012
