14
Energy = -25.85381541 eV
Ag 13.017007608007267 8.115499355779297 11.120979664228965
Ag 10.241610297578701 6.9006280281394465 11.188559206921244
Ag 12.930745577530757 10.753189991676754 10.539578409578642
Ag 11.022833701865405 8.812182745520253 9.35124861098867
Ag 12.65586204818348 13.295453404267489 9.549511344895567
Ag 10.808414068898067 9.589267757706262 12.06287718980004
Ag 8.255622525433724 8.383541697961222 10.121277341380006
Ag 11.234845453662558 11.325848612026585 8.241091800739868
Ag 10.613828423789343 12.139451223153543 11.048630568901627
Ag 9.36892794739488 9.322778622245282 7.22096520935
Ag 6.739513570353775 9.05411814793624 7.905532424531492
Ag 8.564867485184347 10.996019643358903 9.20590849868368
Ag 6.131631624987464 10.293157588428747 10.374057147357203
Ag 8.336310963020303 10.807663812898772 11.93349063046468
