14
Energy = -25.96236571 eV
Ag 12.908332510350707 11.878355168317333 11.112374751563324
Ag 10.416613769293715 12.976737842951257 10.62749731369642
Ag 10.847064939387696 11.07711088209326 12.765000932474274
Ag 13.716528459623444 9.919931141141339 9.207306800662954
Ag 9.031669564771063 10.296132175240198 10.479382902598397
Ag 11.336046418919342 11.240406960713525 8.79259267858045
Ag 11.775329273493185 9.22726875714548 11.043291080502478
Ag 8.675439242852043 12.101745592628236 8.494650032551567
Ag 9.45686380147173 8.556478064854705 12.506068425863354
Ag 8.764842722766486 9.259984673471658 7.793463441376926
Ag 9.206437680477338 7.470727185937199 9.818187767737893
Ag 11.348128044394752 8.466814312354582 8.383529183505992
Ag 6.996356739458299 8.388246903752886 11.098340752515666
Ag 6.571764590505057 10.28459338725854 9.027673893106348
