16
Energy = -30.28530463 eV
Ag 9.830001 13.087575039327215 10.411720822482962
Ag 7.525621490536244 12.134380509463755 9.24741474136708
Ag 6.572426960672783 9.830001 10.411720822482962
Ag 7.525621490536244 7.525621490536244 9.24741474136708
Ag 9.830001 6.572426960672783 10.411720822482962
Ag 12.134380509463755 7.525621490536244 9.24741474136708
Ag 11.85446046228723 9.830001 7.790230361613826
Ag 9.830001 7.80554153771277 7.790230361613826
Ag 7.80554153771277 9.830001 7.790230361613826
Ag 13.087575039327215 9.830001 10.411720822482962
Ag 9.830001 11.85446046228723 7.790230361613826
Ag 12.134380509463755 12.134380509463755 9.24741474136708
Ag 11.269329249411308 11.269329249411308 11.870638074536126
Ag 11.269329249411308 8.39067275058869 11.870638074536126
Ag 8.39067275058869 8.39067275058869 11.870638074536126
Ag 8.39067275058869 11.269329249411308 11.870638074536126
