15
Energy = -27.50351184 eV
Ag 5.760479314003389 12.186682207990408 11.843128649649936
Ag 7.38076577923623 12.013845126677161 9.694824692062557
Ag 9.195215806765761 11.338998417911524 7.686576523136501
Ag 8.377573260914335 11.87528496646453 12.429123704851847
Ag 8.027676558439907 9.3810281312535 9.420812968275257
Ag 10.156496823663426 11.246287116063531 10.209853919550588
Ag 12.079215604924714 11.430661012547342 8.001336667593169
Ag 13.062795099422768 11.263398831573175 10.686028964214646
Ag 10.83095874353966 9.02014377416449 8.281761937007023
Ag 11.030046324124138 11.0487664066907 12.754668996141802
Ag 8.960589741435308 9.246202976812233 11.99629720538126
Ag 13.610576119963916 9.248152591272444 8.837698341819543
Ag 11.84437186404096 8.857192578369375 11.048858118831275
Ag 9.67668219573595 7.265108289506914 10.179466309953177
Ag 12.303591763962388 6.8179832616326514 9.191311321756338
