14
Energy = -25.78010958 eV
Ag 11.012059440630056 10.92688932148035 9.9466135
Ag 8.668387048114825 8.794679412166952 11.441190747469081
Ag 9.465875380133847 11.367011366159185 12.142526740460974
Ag 7.607586218713141 10.954552875559202 9.9466135
Ag 12.563578109127524 6.48735527497193 9.9466135
Ag 9.897176392898471 6.694411521916019 9.9466135
Ag 11.394759344805202 8.598933998368476 8.47522725456625
Ag 11.390936727691738 13.249531740254554 8.430304193682652
Ag 9.106671053037156 13.201721165489309 9.9466135
Ag 8.668387048114825 8.794679412166952 8.452036252530919
Ag 9.465875380133847 11.367011366159185 7.750700259539024
Ag 11.394759344805202 8.598933998368476 11.417999745433749
Ag 11.390936727691738 13.249531740254554 11.462922806317348
Ag 7.22560078410243 6.967345806685123 9.9466135
