15
Energy = -28.58458238 eV
Ag 11.44111708152391 12.415923485822525 8.65501278004128
Ag 9.6282881532029 11.983126350726977 10.800845043529513
Ag 8.871953443764035 13.65859131431351 8.69478515709924
Ag 12.30719652829149 11.563582774220253 11.289414739197262
Ag 13.674817865257918 10.723875979292632 8.98268870051506
Ag 14.954184523063848 10.777809312855334 11.442241496947553
Ag 9.055533687981125 10.947582111155848 8.129143594751639
Ag 7.054039052347749 11.72939664512333 9.895296815618673
Ag 11.15692278580527 9.598139136682406 9.311539603653786
Ag 8.489612198089725 9.121702234244827 10.123048218227433
Ag 13.009723539490096 8.82185410668698 11.235095644960744
Ag 7.686282403374638 10.541352942457339 12.354154387052732
Ag 10.423672314443309 9.762986690725004 12.280790703982177
Ag 10.660048864869516 7.3502735881200705 11.011299293855267
Ag 8.385736555785387 7.802932324863727 12.593772817858541
