18
Energy = -35.24142115 eV
Ag 6.621977254168202 9.66168125894279 10.749580090275119
Ag 7.651021042545628 12.23999398222762 11.726744548999191
Ag 10.011657307694458 11.711041717734277 13.381313947250682
Ag 8.349015619432329 7.520219777672469 11.84122701885282
Ag 10.24809689488461 12.565782080352102 10.609391995903009
Ag 10.422066459248098 8.794634179664707 13.489077436964912
Ag 9.233635699824557 10.048308141146851 11.372739554593297
Ag 8.628244008568178 8.420070494716395 9.122399760177508
Ag 8.18912713592962 11.251067864169345 9.037597315002413
Ag 10.92522873108599 7.8769985909587605 10.770792345223867
Ag 12.011365112591184 10.40613207222146 11.746618757115806
Ag 11.244853329545823 10.397537833266764 9.01480722909147
Ag 9.44111272073737 9.889679750149948 6.888655604016984
Ag 10.089994525083844 12.557628151371462 7.582689944654832
Ag 11.054747737924748 7.788238012791451 7.920988726936173
Ag 12.39345278129662 13.07209707617428 8.981670400349394
Ag 13.268673974526696 8.473711924358293 9.5247806709921
Ag 13.954983439049188 11.080125702640279 9.937329383491047
