19
Energy = -37.16678904 eV
Ag 10.46921 10.46921 10.46921
Ag 12.517756582861972 10.46921 12.517756582861972
Ag 12.517756582861972 10.46921 8.420663417138027
Ag 8.420663417138027 10.46921 8.420663417138027
Ag 8.420663417138027 10.46921 12.517756582861972
Ag 14.37784894227743 10.46921 10.46921
Ag 10.46921 10.46921 6.56057105772257
Ag 6.56057105772257 10.46921 10.46921
Ag 10.46921 10.46921 14.37784894227743
Ag 12.517756582861972 12.517756582861972 10.46921
Ag 8.420663417138027 12.517756582861972 10.46921
Ag 10.46921 12.517756582861972 12.517756582861972
Ag 10.46921 12.517756582861972 8.420663417138027
Ag 10.46921 14.37784894227743 10.46921
Ag 12.517756582861972 8.420663417138027 10.46921
Ag 8.420663417138027 8.420663417138027 10.46921
Ag 10.46921 8.420663417138027 12.517756582861972
Ag 10.46921 8.420663417138027 8.420663417138027
Ag 10.46921 6.56057105772257 10.46921
