12
Energy = -20.64843929 eV
Ag 9.500903842909942 10.127895691472585 11.580067471008155
Ag 11.464077784410172 8.497262572235835 10.26485430656216
Ag 8.9931087620466 7.477280453308042 10.986699731091434
Ag 10.909722901092763 11.086581332381757 9.343695411951426
Ag 6.910316382569389 9.266968934538793 10.698600927565911
Ag 8.10806549979571 11.553972123920321 9.605063382605573
Ag 11.277835745151835 8.929496399763002 7.499483978951703
Ag 10.091335038096386 6.634270018047876 8.589720529232663
Ag 9.19710502066567 10.719810356624542 7.195649743807485
Ag 7.281291439199749 7.107110514796998 8.853913735471309
Ag 6.730971256201075 9.69601086408229 7.928165281960881
Ag 8.68889488636136 8.07164046607566 6.620845036289699
