13
Energy = -24.22573984 eV
Ag 9.172957286008069 10.748551607134537 9.397120807640173
Ag 10.95700858198215 11.401294157749199 11.400928373769823
Ag 9.697008108931715 11.428133087291583 6.725141326662014
Ag 11.432934137420094 9.007136778664862 10.06645684328273
Ag 11.758103205194823 11.395578114475189 8.633545523700684
Ag 9.158726 9.158726 11.76293589075176
Ag 9.14449471399193 7.568900392865462 9.397120807640173
Ag 7.736668184764573 9.391752634027464 7.427058179568828
Ag 10.580783815235428 8.925699365972537 7.427058179568828
Ag 6.559348794805176 6.921873885524812 8.633545523700684
Ag 6.884517862579903 9.31031522133514 10.06645684328273
Ag 8.620443891068286 6.889318912708419 6.725141326662014
Ag 7.3604434180178515 6.9161578422508 11.400928373769823
