11
Energy = -19.23861888 eV
Ag 11.844823136381509 6.995678757319676 7.957623805087088
Ag 10.81654886631483 9.46279473501698 7.727282783662297
Ag 10.151821489425359 7.8870770732602455 9.87478101330675
Ag 9.581822189156187 7.631242956646896 12.608900955178884
Ag 9.788211819169607 11.827253350601541 6.825779572425922
Ag 10.160978327656366 10.127307973568543 11.46494698728816
Ag 10.813852415833129 11.767152779551393 9.359207165859338
Ag 7.721354281526656 8.781467316775986 11.001069567758263
Ag 8.455472622054264 10.363211844066711 8.88454757572713
Ag 5.828652448949523 9.86595469377203 9.450746199289766
Ag 11.84597237579846 12.220220507923583 11.798403727946194
