13
Energy = -23.86634746 eV
Ag 12.78659263122418 11.605822757062874 11.341255641529845
Ag 7.7682093687758185 8.948979242937128 11.341255641529845
Ag 10.277401 10.277401 11.75664364085286
Ag 7.786253925049861 11.792762513385451 11.445612161552079
Ag 10.284134726001438 12.90581765222959 10.980359779338972
Ag 10.270667273998562 7.648984347770404 10.980359779338972
Ag 12.768548074950138 8.762039486614547 11.445612161552079
Ag 11.37985187192391 11.184672416406796 8.985927068008953
Ag 9.174950128076086 9.3701295835932 8.985927068008953
Ag 6.569351693024718 10.434601965630119 9.331444857949242
Ag 8.683509846023776 12.128720245688891 8.840185171194774
Ag 11.871292153976219 8.426081754311106 8.840185171194774
Ag 13.98545030697528 10.12020003436988 9.331444857949242
