10
Energy = -17.69207339 eV
Ag 10.49927842880714 8.598860769192566 8.016235642008615
Ag 9.43173524105894 11.186561599423255 8.06903296433305
Ag 7.820648331042833 9.111599795646024 8.644815450973475
Ag 12.083969539760288 10.632908382577275 9.068753928613704
Ag 11.194330384615759 13.160991823644217 9.105636865787961
Ag 9.253717163523934 6.931439395819646 9.85316570276392
Ag 6.63179434741775 7.1940168239884414 10.362881234720012
Ag 9.86796690387394 11.333753374131817 10.793915301107766
Ag 11.04324996049 8.798462062430461 10.868205854685216
Ag 8.325336534032369 9.20343280776925 11.36938388962923
