16
Energy = -30.6383559 eV
Ag 12.40786935272206 10.526713328804423 6.718300737660512
Ag 10.962293492335942 8.37348512438733 7.661460786544957
Ag 10.525287415836042 11.485304669007336 8.410556738756814
Ag 11.097396354452306 12.031548293350058 11.142122908947082
Ag 9.76083682263868 10.242126948799882 5.9384855105853775
Ag 11.928289342498479 6.86679705537236 9.792609761759024
Ag 11.168349392820982 9.466780950982056 10.282642950489029
Ag 8.476058572831999 11.7250546395137 10.307165408976786
Ag 7.834954391450696 11.262956513363045 7.63655618529678
Ag 9.516962577861722 10.150710134969902 12.511469352866676
Ag 10.484133314057946 7.509834547432169 12.18079609113752
Ag 7.200135216886302 9.341536335684841 9.646434899737228
Ag 9.151602897321641 7.382146309314553 9.611700443108328
Ag 7.779083002983452 7.984197936495524 11.954112422752372
Ag 6.815815426987849 10.636911743895721 12.1685446536534
Ag 8.198904753501534 8.396051152931362 7.197188944703782
