18
Energy = -35.72503459 eV
Ag 11.884420088997654 7.152910453055781 9.69816497896488
Ag 12.225558813422605 9.123569364131514 7.782751054912292
Ag 9.469642579690921 8.552368897924135 8.417222030362023
Ag 11.742301770264737 8.01292317512331 12.455132381386186
Ag 10.393945312630873 11.18638141846737 7.777748832240706
Ag 13.38739699943707 10.505283029060612 11.59746628958424
Ag 9.43564507070278 7.224601884164494 10.899319982193546
Ag 12.97453113126968 11.48949486315903 9.019861882723267
Ag 11.030939802590872 9.730623173546556 10.38648810507541
Ag 11.292072565563522 12.50158737121939 11.09776785684468
Ag 7.712307877411203 9.329366966133628 10.585132592289675
Ag 11.305469870054269 13.674348501279185 8.56502504997142
Ag 11.12437256238845 10.649073519606464 13.175139723783916
Ag 7.6974026259740125 10.716618726349008 8.186338229324532
Ag 9.014153910027533 8.906372964656489 13.051225998495479
Ag 8.758222811623584 11.548856731688202 12.066785252879406
Ag 8.898706650118147 12.827752419350823 9.59791727412162
Ag 6.478567115170395 11.803109551630463 10.497051289116632
