13
Energy = -24.18325789 eV
Ag 7.364894300919663 9.109436372581449 7.930241618346827
Ag 9.693258721832738 9.957698827592077 6.664889852686585
Ag 7.8458023987920775 6.914654283518544 9.531881845509968
Ag 10.062992833046701 5.4297641474678375 8.73908741862097
Ag 10.165856904899487 8.284611786203376 8.794974319814925
Ag 8.943401038521289 7.0136115719478305 6.684714636344461
Ag 7.659447854744763 8.93604093521732 5.114399093652486
Ag 7.48910154282106 4.823470021224447 7.743963438176771
Ag 5.481438619700453 6.990459235064978 8.133753953528226
Ag 5.11850605389189 9.028213013377025 6.179210009616824
Ag 6.434581852410146 6.456050602173549 5.56732126670131
Ag 4.879429954106347 4.504722581000191 6.990762710731331
Ag 3.6558455353021064 6.73263556597234 5.90156427106469
