13
Energy = -23.73012975 eV
Ag 8.610278031820028 10.234361689095751 11.09899280991102
Ag 11.51573045782936 10.889955097263911 10.97845570260998
Ag 6.954923806534593 12.53654693714863 10.795978317030539
Ag 10.469746593900076 9.021851287598148 12.678236768257086
Ag 9.601548141813502 12.777969844950487 10.111484448560034
Ag 12.151215867145853 12.749672874481595 9.025060400895548
Ag 13.198776699250184 9.970294278217196 8.931242772228442
Ag 10.523628312262892 10.57644168583694 8.372895739063008
Ag 7.782329182381724 11.013235535668832 8.643772126232008
Ag 11.328232373420596 8.233997999219694 10.000607967387209
Ag 8.829300070882713 8.43887728045366 8.663645015696904
Ag 8.76570165021237 7.3848293339138 11.231400479741833
Ag 9.98329207582797 5.948900306213336 9.234141996267184
