10
Energy = -17.51991469 eV
Ag 11.677632006807457 9.845139436029223 7.529597309828855
Ag 12.1221904536733 8.862189395259712 10.583872638943122
Ag 10.148010283610002 10.670031312112236 9.64358638996303
Ag 8.984920486600192 9.9962622145199 7.052578182514678
Ag 8.089697041869774 10.991816366633632 11.396593495104023
Ag 9.50394619584077 8.594044240548198 11.38492366169591
Ag 6.295767736547311 9.86646665441862 6.922153414395352
Ag 8.104751524043598 6.625618890988023 10.00641847325915
Ag 7.545347744224807 9.259186254675909 9.28164998048834
Ag 10.150986980097594 7.928012666894548 8.759869986654085
