10
Energy = -17.65722254 eV
Ag 9.947304450559335 11.519100589464092 6.403717338324191
Ag 9.421521826461543 8.927784547259881 7.171097708311469
Ag 8.541608879755653 11.065259168222457 8.708737286081345
Ag 8.636107201922613 6.459128419803788 7.945706658509872
Ag 11.256514455085107 10.310525869602776 8.762246905665377
Ag 10.562255791366065 7.705979324528742 9.528760057633125
Ag 7.799702908154481 8.41207886731697 9.675729826550203
Ag 9.78439000506865 9.798074098535064 11.097127901348227
Ag 7.142022485453582 10.737445340646309 10.985267357099504
Ag 9.010503907826857 7.166555686274323 11.823540872130836
