17
Energy = -32.73299457 eV
Ag 12.230933682598115 8.373214302553318 10.245685248464026
Ag 14.591269712287534 9.70465796333469 10.420175013610375
Ag 10.387468338941353 6.828733800274344 8.952492653223587
Ag 10.001721837234616 9.581121976792685 8.473616432334953
Ag 12.63311308758468 10.552711916858458 8.596825421486013
Ag 7.369665850560178 9.626612509577782 7.477318035265148
Ag 8.205997737277464 12.149627570196808 8.040761514564478
Ag 7.726223980839601 7.659012471715575 9.342627287851014
Ag 12.46470904106045 11.243995129166791 11.276421575402928
Ag 7.751111217259476 10.337794389377928 10.19678672947741
Ag 10.57172580159361 12.18423936165272 9.412073159536003
Ag 8.240988534954699 13.072775356024337 10.704961948439182
Ag 9.60541281467284 8.41213137064189 11.184616739305794
Ag 9.60011608028682 11.000628532281361 12.136490646246319
Ag 11.686744262841293 9.11352749358937 12.900804361261278
Ag 10.785866012801282 13.519022671984663 11.85065521789874
Ag 11.586717593087176 11.764029502129292 13.887449365002617
