19
Energy = -38.04398539 eV
Ag 10.604503375239144 7.392186064318364 12.412424938755109
Ag 10.397834484377235 12.165796988995176 7.56808073854878
Ag 9.627087057104784 13.687702830878804 9.946124
Ag 7.635482014318382 12.055326426002086 8.477407451427455
Ag 12.435543984932917 7.638281929444863 9.946124
Ag 7.635482014318382 12.055326426002086 11.414840548572545
Ag 9.701052783178433 10.956899469241554 9.946124
Ag 7.693136260911059 7.303969622106121 11.515757137547014
Ag 8.934774042284937 9.683014804249357 12.368064379087452
Ag 11.773541345457849 9.801871790229729 8.249734702406366
Ag 10.397834484377235 12.165796988995176 12.32416726145122
Ag 7.693136260911059 7.303969622106121 8.376490862452982
Ag 10.604503375239144 7.392186064318364 7.479823061244891
Ag 8.934774042284937 9.683014804249357 7.5241836209125506
Ag 12.168007032039931 12.13899459227742 9.946124
Ag 7.22321437432207 9.602112949742743 9.946124
Ag 13.98504907073204 9.996093744831128 9.946124
Ag 11.773541345457849 9.801871790229729 11.642513297593633
Ag 9.75785865251274 8.15193909178181 9.946124
