13
Energy = -23.64228809 eV
Ag 11.411512875783501 11.52413822463743 10.7388861004395
Ag 11.769630238585448 8.802591542013419 11.511890252450334
Ag 9.438445446204591 12.264534749896997 12.600708494194777
Ag 10.176958571029697 7.951510342169572 9.37563463862451
Ag 9.11802131440513 9.804826347352343 11.24260744263346
Ag 7.518737002636944 7.797377886553063 9.955083816685711
Ag 11.586921150306383 10.721241987433801 13.399110458224492
Ag 8.818472295119452 12.306546742870504 9.930117700412191
Ag 7.256704139341547 10.35109047256756 8.796066352979208
Ag 10.986967634577223 8.303117367794732 6.758173171627716
Ag 8.258024660555275 8.316090943870638 7.267457599264341
Ag 12.309511468759537 9.713127444912 8.899153102727428
Ag 9.848308716757245 10.587889658905453 7.992740377533492
