14
Energy = -25.48281088 eV
Ag 9.712082583982163 10.24776320002726 12.695912440412421
Ag 9.945766229035888 6.532370241876048 9.624848
Ag 9.367661212684043 7.595137178724386 12.065789467740354
Ag 9.712082583982163 10.24776320002726 6.553783559587578
Ag 7.6209811880594875 8.00668010852382 9.624848
Ag 9.367661212684043 7.595137178724386 7.183906532259647
Ag 9.623495510291237 9.872163800588941 9.624848
Ag 7.435656372172514 10.487458588651757 8.182879892919788
Ag 7.435656372172514 10.487458588651757 11.066816107080212
Ag 11.660265397195515 8.756251358865187 8.200985902560147
Ag 11.660265397195515 8.756251358865187 11.048710097439853
Ag 9.651611903635809 12.447908488795102 11.0136337467861
Ag 9.651611903635809 12.447908488795102 8.2360622532139
Ag 11.903074133272892 11.267620218883817 9.624848
