17
Energy = -32.67924121 eV
Ag 11.425553227222947 8.91278388396165 7.4498376277742855
Ag 11.775449850393487 8.351626158095632 10.166123411207643
Ag 11.21587346466582 11.743714919878695 7.394668059363014
Ag 12.368723802430821 11.171039742164071 10.08891043583125
Ag 9.668954829694387 6.873604368115541 11.28834287745113
Ag 9.102710804088852 7.686739999753068 8.711932871711562
Ag 8.982551963953382 9.907326033593401 6.628290075398817
Ag 10.702567087924724 13.411215473562217 9.577114488380463
Ag 9.875537687754825 10.286382811401559 9.312988129232211
Ag 7.184020316683288 9.881506795884029 8.720835212902392
Ag 11.873944837005416 7.727908374204514 12.828144349478032
Ag 8.139138126024134 9.224376748824552 11.271958419893126
Ag 9.222952756995356 8.371149795528925 13.634739947056014
Ag 8.451199234108302 12.38467436779861 8.259805993041542
Ag 10.7542796381919 10.176919200349657 12.198042791121704
Ag 11.402515560360742 12.892122742391521 12.17461066334694
Ag 8.849532363476413 12.017959783126027 11.203267136340116
