19
Energy = -37.37101456 eV
Ag 11.06759262545246 8.516688893569523 13.614895704804592
Ag 8.642403384935953 8.419719915470482 12.17967975889002
Ag 12.815335440117709 10.660200279887 13.041566120387264
Ag 10.779170077652655 6.966295088926009 11.131192697801648
Ag 10.961053824197048 9.725826306337291 10.970722084453332
Ag 9.797533479481345 11.004285332666868 13.156336083123119
Ag 13.2190249910378 8.26352434003702 11.670070151185243
Ag 12.285351442445291 8.135323747191826 8.961997380838262
Ag 9.333478043884453 8.381265554657602 9.125979921284266
Ag 13.451942659289946 10.623080671988612 10.059283848879476
Ag 8.316445781234014 10.63049704164651 10.640994021311657
Ag 11.613127467421187 12.434142001228233 11.379295076169628
Ag 11.187904410032417 10.465547468322308 8.063747844925297
Ag 8.359027039786257 10.610566989118835 7.8299528639168585
Ag 12.527005155536598 12.869765432196292 8.758828965450252
Ag 8.908717365209107 13.21631330634989 11.614888153070074
Ag 7.010488055050908 12.648484781815823 9.440100929232049
Ag 9.785851476127226 12.651531122816637 9.038759387871565
Ag 11.009863929528288 14.824487381580862 10.325221626845494
