27
Energy = -55.82131323 eV
Ag 7.292473574388212 12.253451180319013 14.6774150322313
Ag 9.393733944866717 13.100469078131413 13.01717754045494
Ag 11.47824562305369 13.925472979579327 11.295421789100782
Ag 13.954997825625073 14.380913330895462 12.358228241362308
Ag 9.901662263002002 11.529019978441282 15.29041255674369
Ag 12.121385022780043 12.57034226271044 13.77098987318715
Ag 12.421111040179992 10.622156738644522 15.831383933946848
Ag 6.905715039236589 12.269409569291813 11.88390533640033
Ag 13.727640698423729 13.951883051796065 9.513454680036416
Ag 8.990287654592782 13.100080062673491 10.180599689027032
Ag 13.64183401895148 11.86754174342676 11.346688052777235
Ag 8.519947364425034 10.314748882018261 13.099306560609305
Ag 10.86404254572354 11.193451514999106 11.375504184699901
Ag 13.094849030730305 9.93767553465466 13.26262687112289
Ag 11.3340995205148 12.755713373122681 8.706872367696608
Ag 10.675461243015103 8.985647529891565 14.27587626705925
Ag 13.352815137562152 13.223082937364964 6.798503518363594
Ag 8.264960655177592 10.423093167160102 10.231197753759615
Ag 13.732644996490913 11.180609171204495 8.593558840218583
Ag 9.013332181345097 11.5910383281005 7.728319154094834
Ag 9.971799036423041 8.548803423445815 11.510179679224718
Ag 12.987923904554574 9.29151354895467 10.534253908735606
Ag 12.23453810340213 7.365075289181513 12.506203909345402
Ag 10.612279385934713 9.62461730569406 8.874846733086947
Ag 11.6669969898291 10.937237419029485 6.596732082440203
Ag 11.562746475608735 7.095910920085864 9.72070808339513
Ag 12.95740518576019 8.66119747935315 7.730072563533008
