28
Energy = -58.22493094 eV
Ag 10.436643408959211 13.843463617895976 14.256222936209218
Ag 8.933514897743045 11.424780818315554 14.42221947505524
Ag 9.356983867231351 12.690298193933973 11.934036867861705
Ag 11.532872056998926 11.48937088431797 13.293320029022395
Ag 11.821400999294449 14.145316120488731 11.857602957815496
Ag 7.560995038211202 8.980150845035697 14.545395554411389
Ag 7.789646206598123 10.265634654310896 12.092232628068286
Ag 8.263631675839695 11.479003468889765 9.628329250948003
Ag 10.69249979970239 13.01997492058968 9.517018790425956
Ag 13.029870787040545 11.791321869780944 11.015109992484112
Ag 13.268682069031575 14.106731977925618 9.361808355330135
Ag 10.109636221477944 9.045807199434918 13.36069361624564
Ag 10.509397274341552 10.247747668860404 10.77313065271529
Ag 8.019224883155426 7.443096006204161 12.25171056324283
Ag 7.456159542609521 8.729807156055376 9.824004073750467
Ag 9.118026276744787 12.590625503295461 7.214236605618409
Ag 12.719721162303994 9.112032080951662 12.158534091223196
Ag 11.933215858689781 13.18976271717054 7.049568905460422
Ag 15.525406617195058 12.55619454537616 9.990555335304165
Ag 8.550444909073976 6.0563316249635655 9.929778793935581
Ag 8.223497280094016 9.886211082872412 7.352772221472296
Ag 10.943475053576844 10.612563142470464 7.897194295228212
Ag 10.759357354748966 7.321241604945691 11.153857321726555
Ag 13.609703968713557 11.366673578059526 8.338086579235004
Ag 14.888455609091608 9.822489642783912 10.474391778490391
Ag 7.571777672074614 7.131818791782158 7.5591418194483975
Ag 10.009626012603912 8.037765215168559 8.553996305919327
Ag 12.55633453074786 8.805930524005388 9.403309372072268
