25
Energy = -49.86205458 eV
Ag 14.480413871813038 9.407448747601885 9.5208757908891
Ag 12.727476025563197 11.289534371660638 8.531562007771521
Ag 12.206985864514659 8.519912425236937 8.183988626524597
Ag 10.843600461822057 13.137236005435271 7.671371475888514
Ag 12.591055125035892 7.967648474833602 10.946210150624776
Ag 12.951145024695782 10.758417810629302 11.432519097076522
Ag 9.629648878224774 7.742662532998174 7.453020380645173
Ag 10.290670593662574 10.43212256952314 7.409105587984877
Ag 11.103301807770226 6.230941326496412 9.33106468134033
Ag 9.185249094535582 11.410681336936891 11.19334958239497
Ag 13.265000500893732 13.393851190981938 12.549309271735199
Ag 11.550436679053702 12.947805522051024 10.397499821139874
Ag 11.043164287874227 11.991395198540557 13.252099885305691
Ag 8.38062895414107 12.157782826682158 8.607096253399593
Ag 11.714844256727703 14.235549659728651 14.723452567700415
Ag 10.421056645355396 14.572701502721038 12.34213171278335
Ag 8.51549157474264 14.56168116882823 7.241414241859462
Ag 9.312889689945747 14.473236767029805 9.868590608643206
Ag 8.416764362110197 6.821196483795553 9.828459312438468
Ag 10.31670751830426 6.725354880540532 11.95396540320606
Ag 8.365335923333168 9.50929272425332 9.21492248978958
Ag 11.034242901961282 9.25882503956541 12.853493819446895
Ag 8.27628420602559 8.73786093562036 11.863784689513334
Ag 9.173019313131721 7.745978362875005 14.300820929699825
Ag 8.796176389559099 10.551726916140117 13.90710262481974
