24
Energy = -48.36096898 eV
Ag 14.376754939444597 7.841281631116579 10.916948701260575
Ag 12.574353788852468 5.970783286868659 9.948739858240469
Ag 14.534976575316197 10.356962366796154 9.66720781189862
Ag 13.181066165841887 10.12150665298931 12.110183448210275
Ag 12.137751674064756 8.710297554954062 9.584177892796264
Ag 11.89419339421774 7.532327014078772 12.183693967459956
Ag 13.237263999569265 12.685090443133115 10.640817268228908
Ag 12.285731044761764 11.296192760873335 8.32077005479513
Ag 9.573079314534207 8.462632989377871 11.000019977335933
Ag 10.632369779909618 9.713029011795644 13.344274935781375
Ag 11.920493637904208 12.412556915593898 13.158896124638272
Ag 10.841393653122639 11.066299103365175 10.82032836512213
Ag 10.896854581021563 13.548474992908274 9.28634315870141
Ag 9.883327215388661 9.695890988174504 8.41073451056775
Ag 11.53195015934615 12.957257226569082 15.867482472884411
Ag 11.742837809388112 14.880903594607247 11.614527532091543
Ag 7.705274958764322 10.522766052707562 6.998927451233198
Ag 9.939457584159708 12.17660796077186 7.040989652268694
Ag 9.39660013771341 12.01350834685522 14.304276543317824
Ag 8.273756659393534 10.745886366585745 12.085774217184689
Ag 7.347320894631881 9.489601118764972 9.688695286699394
Ag 10.435814123475092 14.696631367602265 14.031191113106823
Ag 9.405200119635332 13.359979006875243 11.770033614526008
Ag 8.49242201700607 12.003440904965808 9.446165847560543
