26
Energy = -53.24694839 eV
Ag 12.70290273456899 8.140396899022516 14.479085772508464
Ag 12.830277007754054 10.837372742752962 14.098944904304531
Ag 10.57587060252096 12.25376526337645 13.023530505582938
Ag 13.185759977807535 13.531527243997255 13.569261467095476
Ag 10.414580449043141 9.513448337176294 13.395585749937489
Ag 12.717369905427068 8.88900739269998 11.775126906985518
Ag 10.938210493400966 6.795230243215051 12.874287546756033
Ag 8.203860020078235 10.904540233322438 12.05358867645703
Ag 12.889204046706448 11.751216445079423 11.46044295074688
Ag 9.357760226974529 13.073359769379676 10.591813500424175
Ag 8.593761654342533 8.077327810630942 11.77914500923438
Ag 11.697458252245799 14.279687113294385 11.320386416872257
Ag 10.787667258217699 7.456827568381176 10.198977746719345
Ag 6.378434668131126 9.208962054798867 10.535315225041952
Ag 12.97671720147314 10.169889577518855 9.242022132068918
Ag 10.437478938131184 10.375667540495495 10.524759114344265
Ag 7.480448680204971 11.498713694065165 9.389815651392148
Ag 13.33041753125596 7.45715050120525 9.15161598976783
Ag 11.167927763894836 8.646360732895468 7.749915199225538
Ag 9.226595217736438 13.74699245785388 7.908321480530851
Ag 8.600149432423017 8.710030538840916 8.969750671545235
Ag 11.637875042128963 12.71570423606093 8.973615444190573
Ag 6.3602224524310635 9.638824091199218 7.642504322918739
Ag 12.299769214814562 11.022159504293969 6.729571768486696
Ag 9.692980827524462 11.00302139762973 7.719094150148144
Ag 7.358597403927857 12.03904499338414 6.6568004053877425
