21
Energy = -41.91840675 eV
Ag 14.69983825810741 9.263309689577193 8.990266464622739
Ag 11.872069833410235 12.353606460930846 11.144490894613705
Ag 12.753970225063046 11.152856221778784 8.784083918323562
Ag 12.977689368523567 9.60252154713257 11.142072557521173
Ag 11.834683281952357 10.741163898827605 13.44038176906748
Ag 13.001161602516584 8.237501319975312 13.548660140461312
Ag 10.777081039782487 13.296254825475282 13.535678536559887
Ag 10.427796783049619 12.670121245077405 8.691692538197008
Ag 12.097028946421153 8.340559516554316 8.663675110869248
Ag 10.59154468027682 10.226219235965193 7.181173498274049
Ag 10.349574052183563 10.11047049521013 10.029483909068817
Ag 10.473014085221239 8.509737148327055 12.438170601880172
Ag 9.221957741785353 11.202362598004555 12.516989745155245
Ag 9.780611365449612 7.341061882664383 9.845837820747446
Ag 9.362341643925658 13.682025837285524 11.14615552318943
Ag 7.845900045127309 11.544927995604448 10.016301275364087
Ag 8.512429669293821 6.5651588440797 12.196182040869061
Ag 7.94992069739549 9.061461072357003 11.264432479085135
Ag 8.213361874573783 11.715499687963744 7.197985285453218
Ag 8.160001418143258 9.184224947190707 8.42493863791013
Ag 7.985659551292518 14.023275400341003 8.734271191923812
