25
Energy = -50.66742125 eV
Ag 9.952400242127364 15.28787652839656 7.625818882176763
Ag 10.421208496249754 15.042560297831503 10.349132027163366
Ag 9.632688401802247 12.792609202184128 8.77649855076152
Ag 12.244694039777817 13.846275971935707 8.249428872060017
Ag 9.679951118211005 10.465196538371663 10.326272569589692
Ag 11.333508278903944 14.123375152287021 12.977677945460021
Ag 9.00817214737576 12.970578917238468 11.679336860453251
Ag 11.89669398899115 11.005158010187664 8.413701101924019
Ag 13.215734873431279 14.848504551319763 10.80613538301213
Ag 11.663379258007556 12.490966336663378 10.730907511192601
Ag 14.230969938617276 12.399528490579952 9.669292154551812
Ag 15.652393119578708 10.86124689494887 11.559571297938323
Ag 13.38579267724281 10.515162658345943 16.73786188405865
Ag 10.645716630668293 10.988528310038513 16.130029771916952
Ag 12.31143322609864 9.287813054668655 14.53487281215217
Ag 14.742887103043678 10.655808962609957 14.25763465257525
Ag 10.528252421157381 8.710942859395994 12.338400906198439
Ag 9.13991093690995 12.819870095640743 14.528741552626666
Ag 8.286827540646243 10.530140654617945 12.799692785498008
Ag 13.069049305605258 9.917700655391394 11.916653374446973
Ag 12.640372594493787 12.553084749344306 15.030294426347332
Ag 10.932431992202922 11.306870332045436 13.19318923835211
Ag 13.84984063842909 12.722104564558816 12.559844224235029
Ag 14.221105520950655 9.650793124900028 9.395450548529166
Ag 11.653875333118364 8.546592910138562 9.752850490420537
