26
Energy = -52.52871544 eV
Ag 9.964281832263113 14.762017078319728 10.728583068094467
Ag 12.063916285739971 16.288695840849666 11.905645670924034
Ag 12.525731631242321 13.684526597909251 10.833547214638006
Ag 14.91020154590912 12.276569322982986 11.598000569026926
Ag 10.96739332681936 14.210700726572625 13.314272934448002
Ag 9.963972526858232 12.009072453620037 11.78953252823852
Ag 10.67844557489348 12.451712725122952 9.027004510961415
Ag 8.068568675366887 13.097533209512413 9.72464173618806
Ag 13.884521166116304 14.482987593336153 13.149733188047334
Ag 15.120367177149259 12.265256328648109 14.33425199399524
Ag 13.221685600344447 11.316877362724362 9.55285484739871
Ag 10.259832524424155 11.898605117067381 14.667904290666248
Ag 12.578198348239097 11.92363124297632 13.10041140574053
Ag 9.685411157040473 9.4851216557941 15.835864313855868
Ag 6.691296579287949 11.212187771955355 8.324458643457417
Ag 15.301561162745996 9.734987157624078 10.657737737483785
Ag 14.300874746749042 9.784679355920266 13.255238777844712
Ag 11.630092408284554 10.333039173236784 7.526857655538214
Ag 8.568572762874902 10.057350218561194 13.396669902246352
Ag 11.403086211256307 9.43394744378455 13.601471080871892
Ag 9.06833475242787 9.858077430290475 8.548211936437086
Ag 13.674270862723032 8.72605334892475 8.584083304421366
Ag 12.644212227180294 8.783229613418953 11.184151649915057
Ag 7.607558746162011 10.617433487042842 10.875727947185156
Ag 11.017413043351565 7.930753282750022 8.986564014871634
Ag 9.876871435717915 9.051626772222608 11.17325138867131
