28
Energy = -57.52326546 eV
Ag 12.921307766147386 11.00721966173253 8.399896081830056
Ag 14.535981145144273 9.824984290846409 10.65336250953308
Ag 12.394587663148993 8.386075727822533 9.739102111059196
Ag 10.266243679435853 12.417446866639139 8.005384532773533
Ag 10.292874149235919 9.646450482758784 8.529992502449245
Ag 12.30138825557937 13.878874578392582 9.132541688074923
Ag 14.315865945584182 12.629630676413193 10.49099280658049
Ag 12.578924050565542 8.508907641390078 12.52585888386711
Ag 16.152081291746864 11.530168211556447 12.2927156972855
Ag 15.167090962288018 9.141305322808334 13.39302785943376
Ag 11.61082206943204 11.347602558815499 10.729203117510263
Ag 13.362755587306077 11.245806660118761 12.815977836059288
Ag 7.877646670410159 10.834850893153131 7.750425876748817
Ag 12.159886823835519 13.872671926353204 12.024117502480074
Ag 9.857732130658029 14.136683967590423 10.442478443030032
Ag 8.921758281422804 11.424737369538981 10.304141572560653
Ag 12.950478695261783 9.698372211619738 15.13410607210083
Ag 14.901222819376976 11.695020537845956 15.02736428651096
Ag 10.097853973415054 8.940689670522135 11.343988319364078
Ag 14.667741925541268 13.775493235293908 13.167147127448882
Ag 10.574164761273108 10.17322008428393 13.799634756355056
Ag 9.817424051907269 12.654974585492123 12.90508173582424
Ag 7.667599736794387 13.445356018200759 8.82086509350497
Ag 7.765651406399243 8.886899819164348 9.836297329966554
Ag 11.974522760025542 12.581520110949924 14.72254063948582
Ag 6.213174575944905 11.205006549114218 10.241690733718324
Ag 7.387991164587095 13.299939967171676 11.700966273874867
Ag 7.970522791900548 10.445866763569294 12.67062169485601
