26
Energy = -52.98314013 eV
Ag 13.443753358794915 11.909905878142878 10.599563843940928
Ag 14.737902024065551 9.421758528842627 10.694711963958845
Ag 13.195843562792506 10.276611009719472 12.91091088299158
Ag 10.017409753918397 12.614308014392169 11.151295462888742
Ag 13.790493758363374 10.453331495344669 8.251731998183761
Ag 12.23926891111236 12.967584315435312 12.897844557211364
Ag 11.368931028811918 11.763999383484371 8.693597632553697
Ag 11.962093010746479 14.21174081344714 10.029314844806573
Ag 11.291414485018532 9.923129583619065 10.925416146516966
Ag 10.597164658770714 15.273039443090102 12.22395409055653
Ag 12.913922395924773 7.428438563110611 11.330687033781404
Ag 13.856881997587353 7.6946355657871095 8.704917554658266
Ag 9.7565447405169 13.47747734789966 14.170659486678797
Ag 11.531888739550952 6.303881787063009 9.140878597288532
Ag 9.17117274657713 15.00474158832569 9.81212760519746
Ag 7.908705756779961 14.430671511405338 12.28823512700145
Ag 10.473330672610858 10.861070183018908 13.578945689946382
Ag 11.343347447918092 8.981659972079836 8.239180051123935
Ag 8.960973751085348 12.872456838607372 7.8969226050569
Ag 10.278974965234264 6.394937503641327 11.626205728752234
Ag 7.923589156062125 11.58191184549126 12.601855357585077
Ag 11.23398574512901 8.267056602497252 13.375892753104122
Ag 8.840490922435471 9.002795399995081 11.994281923572728
Ag 7.3393133407888556 12.83486029485075 10.11305112458213
Ag 8.92068360938709 10.525173644146212 9.491604896496844
Ag 9.158436236040991 7.770730408041213 9.506299626106102
