25
Energy = -51.00575418 eV
Ag 10.557614827661553 11.771594804587435 8.510808518237097
Ag 8.961875988006232 9.587045632977642 8.080644418199729
Ag 13.321632473461198 11.793737062365857 9.254287574930824
Ag 8.337340188852775 11.25861567655273 10.323594378366352
Ag 11.740936429353198 9.326132727492016 8.944264881225356
Ag 11.576334019558965 13.876568976062801 10.036028603903844
Ag 9.808746805138178 15.917229777165518 10.837099530423986
Ag 14.275541706550102 9.333824236410358 10.028877701919935
Ag 9.585605575624342 8.802162461724333 10.629738978031721
Ag 8.820590928007723 13.802987401457584 9.261098006174297
Ag 15.788227649359856 11.628133999980257 10.763712811480678
Ag 11.459047568934068 11.20774133248317 11.302020305152077
Ag 12.151730527471758 8.48150444214825 11.710438029205012
Ag 14.057307650960832 10.394025280686975 12.615149982468997
Ag 13.658187910813933 13.184617041452853 11.778581426390646
Ag 11.746804345074768 15.089019912702673 12.62062620265131
Ag 9.51308070502911 13.358691189664329 11.946394457778784
Ag 9.673748020759996 8.174588948833042 13.314203766908637
Ag 9.256955427498273 10.872156310890265 13.088228822395775
Ag 7.2391473340551356 9.265590299111123 11.968470965196637
Ag 11.727678997578703 9.842778230979011 14.138617606921214
Ag 11.429491586088192 12.590340959461509 13.870104128236608
Ag 13.716569037474304 11.56054558649269 15.115047142728855
Ag 13.7388829198077 14.239231070508941 14.40117290113896
Ag 15.800416301344551 12.5846315622732 13.404283784398258
