20
Energy = -40.10790374 eV
Ag 9.891516778031013 10.537763778184111 7.857542676315056
Ag 12.269362680363225 12.191696161627563 7.879145210311859
Ag 12.56465071599769 9.342755538422896 7.466375438728281
Ag 7.5726854484459505 11.770182623656979 9.120850875479912
Ag 7.777172677577003 8.78737567508647 8.647592074874725
Ag 10.142457878852618 12.769442908025203 9.672335570911681
Ag 10.484481594715465 8.01012414448053 9.102718401668875
Ag 14.463329349813268 10.887993638137939 9.265422031070058
Ag 11.906955066571983 10.26866356141155 9.876282803306063
Ag 9.143401541611398 10.077390529292487 10.599243726955686
Ag 13.612126099852043 10.234366707750405 12.029047959848947
Ag 11.31120379825899 8.425755813650811 11.918855853076572
Ag 11.077147060151498 11.451769274290546 12.233323597448006
Ag 10.55989499927928 14.185122775766702 12.038148276016098
Ag 8.755051483866536 7.461616480452489 11.313341731013983
Ag 8.337311749025835 12.45452607184975 11.806296539199133
Ag 12.84077717869244 12.863546209395297 10.59989885366239
Ag 9.16211938727074 9.642821533205874 13.330889256513522
Ag 11.864450822414975 9.77061881634514 14.294140775936565
Ag 9.639739644610826 12.242303714369916 14.324384303065232
