22
Energy = -43.49670831 eV
Ag 10.888435 10.888435 8.422391591496867
Ag 12.42857583532168 10.888435 10.89803126518846
Ag 10.888435 13.234311048278578 10.124491325599944
Ag 8.501263544358675 12.411313979788833 8.792584348847365
Ag 13.275606455641329 12.411313979788833 8.792584348847365
Ag 8.506945261453549 13.366668825373871 11.686922153779912
Ag 13.269924738546452 13.366668825373871 11.686922153779912
Ag 13.263709507083012 10.888435 13.492282636017558
Ag 13.269924738546452 8.410201174626128 11.686922153779912
Ag 13.275606455641329 9.365556020211166 8.792584348847365
Ag 10.888435 9.426393710632219 12.886274621068077
Ag 10.888435 8.542558951721421 10.124491325599944
Ag 9.34829416467831 10.888435 10.89803126518846
Ag 8.501263544358675 9.365556020211166 8.792584348847365
Ag 10.888435 12.35047628936778 12.886274621068077
Ag 8.506945261453549 8.410201174626128 11.686922153779912
Ag 8.513160492916986 10.888435 13.492282636017558
Ag 10.888435 13.457938246956536 7.370037192718581
Ag 10.888435 8.318931753043463 7.370037192718581
Ag 10.888435 6.724412926294713 12.207765598763682
Ag 10.888435 10.888435 15.247387119282358
Ag 10.888435 15.052457073705293 12.207765598763682
