22
Energy = -44.11936364 eV
Ag 6.5138821124173605 13.182677218411577 10.730106
Ag 9.294773383951085 9.90304756259872 13.125376694131917
Ag 7.945643493541564 12.33399980676719 13.026161313626927
Ag 13.514568506458437 12.33399980676719 13.026161313626927
Ag 9.333158027953786 13.24466502624748 10.730106
Ag 13.514568506458437 12.33399980676719 8.434050686373071
Ag 12.127053972046214 13.24466502624748 10.730106
Ag 10.730106 12.380473592447405 8.33380219047148
Ag 10.730106 10.719531803268119 10.730106
Ag 10.730106 12.380473592447405 13.126409809528518
Ag 12.165438616048911 9.90304756259872 13.125376694131917
Ag 7.853811106639754 10.687791379892543 10.730106
Ag 10.730106 7.521471381413045 8.436572918016067
Ag 12.217455903401833 8.253148882974825 10.730106
Ag 9.294773383951085 9.90304756259872 8.33483530586808
Ag 9.242756096598162 8.253148882974825 10.730106
Ag 12.165438616048911 9.90304756259872 8.33483530586808
Ag 7.945643493541564 12.33399980676719 8.434050686373071
Ag 10.730106 7.521471381413045 13.02363908198393
Ag 14.94632988758264 13.182677218411577 10.730106
Ag 13.606400893360247 10.687791379892543 10.730106
Ag 10.730106 5.854155756493411 10.730106
