20
Energy = -39.6608836 eV
Ag 7.784384016178546 11.753381942663433 10.425648443975433
Ag 10.068555728738632 12.557077206602525 12.244049294704778
Ag 7.8684051472303995 11.092576125736407 13.11624208353376
Ag 12.193686660978443 13.392028139644822 10.55484030409582
Ag 11.593903308504668 10.20532943246002 7.08684348950722
Ag 5.862350158540831 10.005669519655813 11.287595202148053
Ag 10.36260651652593 8.156142077643528 8.442267148419278
Ag 10.368301513996332 9.750262675298043 12.865696527019033
Ag 7.860433748166781 8.4446079395411 12.417667907597354
Ag 10.067320496549502 7.551942281243452 11.142019151051457
Ag 12.106232600084093 6.302384593359789 9.826172933261136
Ag 13.288403314859693 11.02535058501535 9.451450111232624
Ag 12.58153579263033 8.772930368436706 11.233393116547933
Ag 10.609073245328524 10.724003397321983 10.124219208508476
Ag 12.602240394768431 11.319464516122949 12.340459189481866
Ag 8.120699543931204 9.124524908770445 9.723774573489404
Ag 13.189623486820794 8.46339962600727 8.524388512237138
Ag 11.46197140031558 12.797753691519723 7.816744113633413
Ag 9.08968017442091 11.135118016202263 7.855046828527542
Ag 9.58109440831954 13.536870233308449 9.60469287301911
