26
Energy = -53.51558132 eV
Ag 15.374776522307933 9.442914847317352 10.465362467114831
Ag 11.621096546526633 7.643561791115637 12.137141754796527
Ag 13.37329037807882 9.80254525296007 12.548881457621402
Ag 14.322579410845577 7.245674414601361 11.786016454072607
Ag 12.789719120402735 8.786916052467957 9.807104382697329
Ag 13.456289898534655 11.619062883927464 10.508195124849234
Ag 14.385154419180996 10.506930061546779 8.101795928371692
Ag 8.990660959453624 8.520012511630236 12.289236128444028
Ag 11.04805803065949 9.643438823189596 14.03007415030391
Ag 13.59335081837705 13.184975354140635 8.18753846759563
Ag 11.333573839764663 8.554426853339734 7.374512159714323
Ag 11.633043815820105 12.112044206182473 12.73198218645205
Ag 10.14740141591498 7.692965913055867 9.776265680932188
Ag 11.63536368431946 11.167179983111815 8.306154552591641
Ag 10.616302658947578 10.423388363047534 10.858068319944547
Ag 11.529730785722787 13.530942999632567 10.080671839117668
Ag 9.067527705929635 9.817305240920401 8.34512425528323
Ag 8.859098141546953 11.130806867920045 13.304084183553158
Ag 7.411525715084063 8.214504394835906 9.988561982223759
Ag 9.236858044241144 13.283324615696785 11.670078845215304
Ag 9.224667744457015 12.526012499822608 8.843379602989629
Ag 7.749076896315219 10.907822063771587 10.595778480806661
Ag 9.304766524525485 15.184975073126402 9.59849494790751
Ag 6.472170549011798 9.58485585869259 12.721090100429224
Ag 6.484847861853145 12.417494050454328 12.496374740738274
Ag 6.967623843241496 13.684474354554007 10.076587137295816
