29
Energy = -59.49242524 eV
Ag 13.229099484575828 12.092437951660308 15.485189589494265
Ag 10.424086835702747 12.18841549655617 15.532662067891383
Ag 14.707613891332777 12.421400594922565 13.13283475298344
Ag 14.693311728509748 9.953310664745286 14.574827437227533
Ag 11.954281848735652 14.130413679902725 14.090682365907078
Ag 7.620803435101091 12.161453144108904 15.298488272601027
Ag 11.846929920493347 9.738714377981585 14.863419729582363
Ag 13.777004776079343 14.898060425604584 12.108594446833669
Ag 9.155955940949438 13.392297425854542 13.341364584777134
Ag 10.990723551274044 14.392910275381867 11.4651153452296
Ag 15.834750171953269 11.812211848202015 10.39011058144243
Ag 16.62878314213422 10.352820658130256 12.595143951377441
Ag 9.128138170056522 10.574084623277002 13.63991679085123
Ag 13.235142256832626 12.607260203333198 10.700474980353194
Ag 14.337738433076687 12.963719296330666 8.263664326383093
Ag 11.649822948747017 11.707574392537369 12.799009116226024
Ag 14.012066144317256 10.001288855754018 11.736301854470547
Ag 8.197842149926181 14.37291905310472 10.939960258694711
Ag 9.432187982689477 11.804665029260699 10.923711080855517
Ag 12.801056508857826 15.063196668734008 9.384092056584516
Ag 10.044714933224485 15.374550643424644 9.023135936757848
Ag 13.32947356498477 7.832201273730122 13.391821290884403
Ag 10.902976471624406 8.97712209927496 12.344440566528219
Ag 11.776803235638189 10.386582670251656 10.026593688538641
Ag 12.659391458844091 7.744853393945842 10.653289513953311
Ag 11.289458330676565 12.84844065869246 8.599155769929952
Ag 10.020839025911627 8.295607158601287 9.764402824633057
Ag 9.550380638409491 10.614212561226283 8.326891904136998
Ag 8.491494772869292 13.127180363324047 8.470495581827079
