28
Energy = -57.37252186 eV
Ag 15.00562842818993 9.587546265015936 8.820724857764278
Ag 14.484054618341855 8.33070734473072 11.266719782413302
Ag 14.348179299439476 11.204084878794907 11.340341576048194
Ag 13.077549722284582 7.310699960319808 8.87382340349322
Ag 12.731346441942629 9.838506013111108 7.0975675995854255
Ag 13.549390328491574 12.113053798510935 8.730951201854172
Ag 12.000804246978598 7.140743429017611 11.627109981145418
Ag 12.452347550095386 9.758441700884442 9.803809754929313
Ag 12.403461200292542 9.732077884887055 12.707028944509693
Ag 10.156317190785737 9.156358168199754 7.994194245274785
Ag 10.347893422658037 6.823035532277854 9.46789868354153
Ag 11.651428339146879 12.199921412417414 10.90649524101877
Ag 10.127790292423537 8.24855392260587 13.509451647863449
Ag 10.807071914994586 11.84769828369707 8.215840602713639
Ag 10.014072876324386 14.187254349800327 9.64228298731028
Ag 12.392120056613496 12.440927533269441 13.499103315613581
Ag 7.693494018498973 8.944911248023367 9.491964199470882
Ag 10.05386721711614 9.306711439611504 10.941224984788414
Ag 7.3702519312726364 13.51973015298435 8.702001214736137
Ag 9.942244316720302 13.781680751299204 12.557716059993146
Ag 8.839675532725096 11.85214295487132 10.5039372029642
Ag 8.441146299771242 7.127768457857651 11.534038808928381
Ag 8.131310119607548 11.054920994443528 7.772563024872492
Ag 9.904347258243561 11.077419689552253 13.17122145142036
Ag 7.6407679870751455 14.576670074581987 11.199381683330143
Ag 7.532996430290529 9.736960662613319 12.211437232871912
Ag 6.199553400907882 11.334732420144597 10.178087922988272
Ag 7.366674160649088 12.416895389209195 12.889860754725683
