23
Energy = -45.95177586 eV
Ag 13.420708651605961 12.396657937037274 12.7577015051379
Ag 11.110150934859934 10.802939932880307 14.262022702094118
Ag 10.75533278414539 12.964220439434888 12.148181834818283
Ag 14.319276342197831 10.024974403042886 10.91758056256134
Ag 12.766446576878863 12.44944759294955 10.052282305669662
Ag 11.719169355653595 10.417045049064093 11.631739756555238
Ag 8.070672024129328 13.09328282733247 11.411553847927184
Ag 8.961579390376443 10.702930241337524 12.48723271688217
Ag 10.344192330250113 8.333569497081015 12.865471952665377
Ag 9.95444632560239 11.85716909323446 9.568182156924212
Ag 12.313726126609511 7.830465574786192 10.802565041218637
Ag 7.270356858435517 12.603236631872319 8.768570987943171
Ag 12.431065223484596 9.810392207615177 8.872596609373273
Ag 9.696308369976697 9.107282530248247 10.012664959289252
Ag 11.910531068510522 12.116098770663678 7.439191372390998
Ag 7.7195198267080265 8.143489142653475 11.720157057306364
Ag 9.798942295256523 6.421469985906013 10.771218180148821
Ag 9.175947339651426 12.110394272046879 6.782345470277819
Ag 6.99730576864008 10.566198679229444 10.597883712520165
Ag 10.972359257982458 7.3144341730527405 8.310624401715572
Ag 10.451423735379787 9.69150293350964 6.998590826872493
Ag 7.839137627641491 9.917852191820801 8.006268047980262
Ag 7.95555422556457 7.236045168558868 8.77446488377335
