23
Energy = -45.99421317 eV
Ag 8.279591978989165 10.21617138443834 10.06705935954886
Ag 12.820735855298475 7.246964465819661 9.297711141176535
Ag 11.255144413976183 6.6813768694029205 11.579879626398638
Ag 10.509312806984683 8.6681597976348 9.703281065453222
Ag 10.63068833919008 11.453083770116793 9.091468416680879
Ag 10.621012416497784 14.272277182056461 8.714388394170951
Ag 13.022844304415639 10.009996096989155 8.695154728718304
Ag 12.750073999027878 13.604225573089712 13.052201990575217
Ag 12.89625154242392 9.045685741631573 11.370533032462095
Ag 10.38766773458922 10.328555083985679 11.961632708572921
Ag 12.517020279187651 12.573568121109245 15.611823354706237
Ag 13.023040477320272 11.807824295708366 10.847618118910177
Ag 11.500556418911302 8.375068082943882 13.738439006973799
Ag 6.046619869064159 11.744271739459208 10.545945479797044
Ag 8.144859381755648 12.021529452537315 12.307585972755
Ag 12.975710714512173 12.786212938868351 8.19626059680949
Ag 12.764934879791882 10.831354117720997 13.50743439297871
Ag 12.912840702023026 15.62002021897651 7.931092344999336
Ag 10.30706825508493 12.255925415611076 14.006812722761378
Ag 11.141738999153562 5.74659964991682 14.164481540137615
Ag 8.316260767872924 13.033570191663667 9.60291330867299
Ag 12.891629198920374 14.559696146729422 10.445871168649274
Ag 10.484275392397672 13.314663534432995 11.383404197555732
