22
Energy = -43.89348165 eV
Ag 14.833848439058766 12.733924352578557 13.923252011714043
Ag 12.88698376395372 9.957455295376885 9.411224460435815
Ag 6.703671524517977 8.441414367580153 11.225726715283484
Ag 10.629749897072399 8.354859669075744 9.440333249562729
Ag 10.556506220953485 9.949296630875292 13.751486740883712
Ag 10.077039075970596 11.08583705972566 8.685996448600683
Ag 16.03338340050752 12.897363316137092 11.406622219890595
Ag 12.115227629557516 8.81042704764753 11.755778515514983
Ag 11.684684461551075 13.44477621653179 9.417644022665746
Ag 14.300814972268412 12.41960783550151 9.329033587959477
Ag 12.400709303761474 11.683211418457335 7.332734197649027
Ag 9.12388224354703 12.29660550765377 13.218710350702118
Ag 10.811373402098615 14.312807003799314 12.216896921808933
Ag 11.202520609154476 11.484102207480522 11.408216906513024
Ag 13.43220627853825 13.690203271316525 11.668818236879744
Ag 12.076944131632134 12.315032158250734 13.895689372924716
Ag 7.734575716988282 9.738309431391645 13.47030359869133
Ag 8.033003393405492 9.011098259221969 8.750969161694051
Ag 8.490837717105439 10.554024492673893 10.967701374638589
Ag 9.414864955009202 8.039312191380517 11.979977104127432
Ag 9.093537826698029 13.150826009133601 10.382398158700456
Ag 13.977755844556416 10.930995866614557 11.907931595873151
