20
Energy = -40.25380489 eV
Ag 11.212885397756645 9.854710616433344 7.328643452283016
Ag 13.39446162779909 9.850819974900121 9.057867562354586
Ag 13.087870658670619 12.625214825966058 8.965333376334568
Ag 9.209188014703969 11.855213435588208 7.461244572112608
Ag 10.396945179748274 13.77622974017069 9.21608652826992
Ag 8.826725242985733 7.056197812924909 10.427840660538182
Ag 8.7428701133744 9.38769614427012 8.723603940148477
Ag 8.190921377093078 11.930805324352237 10.1003011171402
Ag 11.194481556506686 8.319718825028778 9.780083358482559
Ag 14.195352500875591 11.276833825947888 11.276163663721112
Ag 9.066036149015115 9.621436923110105 11.465065317337757
Ag 10.872882913209766 11.123828611178379 9.749196575481196
Ag 13.507354321882216 8.47534110570394 11.489244871595254
Ag 12.025673192126725 13.075705532972297 11.536675039771653
Ag 10.84973668508445 7.7230338518994195 12.481788485458898
Ag 8.024080469846236 11.719368924539948 12.92540451041027
Ag 11.768383898860378 10.3994532767857 12.395367999301449
Ag 9.352583991597797 13.874060397336478 11.805868233909568
Ag 9.691680251602095 9.792285622560646 14.168236511551598
Ag 10.600238079501803 12.472396850570854 13.856335846037382
