29
Energy = -60.06949752 eV
Ag 7.30531740087558 8.721683356591699 9.873477611568937
Ag 7.556685726966507 10.661296679141694 12.038776176972926
Ag 7.0696637125309545 10.41329935042046 7.578383003659735
Ag 7.883879840878904 13.00095552916679 8.180268794746384
Ag 9.539967945073704 8.767109760941183 11.665508931114335
Ag 8.039652958315337 12.861912818624115 13.749375596477545
Ag 7.981997803816441 13.23203677238162 10.932845414025987
Ag 9.216367897794068 6.696393998640931 9.742797191204051
Ag 9.073099009121842 8.542888947956765 7.592150549756376
Ag 9.119221812154013 10.822757420679604 9.660903760705075
Ag 9.864827282461041 10.771071895516332 13.727727068534568
Ag 9.765137159836247 11.289376942887824 7.014075133305973
Ag 11.393868560030596 6.757644651526354 11.552499502521695
Ag 10.370798362684333 13.323546077732749 9.39536470535198
Ag 10.408965565446822 13.355747741303249 12.267596664120475
Ag 13.4679424046088 8.523553748439744 11.004848527309045
Ag 11.24879111882379 8.657987060668042 9.317718708215603
Ag 11.940305050725632 8.909097249421272 13.334710693998831
Ag 11.513636049744282 10.829514813312409 11.248874672975571
Ag 12.513166980543694 11.637363100264844 13.936975841213144
Ag 10.518629741728121 13.242651280051131 15.050032972776727
Ag 12.781540730963133 13.430217736984355 10.76967943446343
Ag 12.132144607177388 11.35073564975962 8.556314702297941
Ag 11.653925337105886 9.274103488069205 6.6001545626757485
Ag 12.696817943562298 14.374643967277775 13.494021702295237
Ag 13.883319562673178 9.220999052197266 8.269767806392377
Ag 14.57406611964432 10.020017046727947 13.06550932737179
Ag 14.773302543607779 12.759103396941136 12.613000633798828
Ag 14.331858002359983 11.120018757613174 10.362797878644189
