28
Energy = -57.97088043 eV
Ag 9.53770839478912 14.80620002800732 13.455797046891727
Ag 11.724100720966948 13.122427790560698 14.129870376956541
Ag 13.851903966196918 11.527741081625422 14.857955471549722
Ag 9.33997683324063 12.038021418210723 13.064377032050677
Ag 11.592179219399295 10.281109170608957 13.755210367437774
Ag 14.593203294909777 7.275892793451889 11.445314136404157
Ag 8.221378813024208 13.934494218047792 11.177903743581258
Ag 9.263079253590265 9.275271192685128 12.57973959057888
Ag 11.91210096034963 8.02710013153957 12.108642042228764
Ag 11.097980438292252 13.660053234744215 11.427216328684878
Ag 7.793346677767133 11.145018547270308 10.92885580708147
Ag 13.357760833343384 11.908393250958396 12.114065469826246
Ag 9.281867832157214 6.633619304138547 11.963494735933942
Ag 14.189502007552223 9.41324904853242 13.101782790122966
Ag 9.825147271881777 13.00692168163156 9.035791208884966
Ag 7.477961417737065 8.421544903657612 10.54836803432949
Ag 10.845816298339388 10.79254320508811 10.894682181169424
Ag 7.041542891730097 12.828930398725396 8.820800146815252
Ag 12.615879976867012 12.362117876972976 9.457866495450117
Ag 6.2067221314361145 10.181386610468039 8.775800576546011
Ag 10.124113493741634 8.13323542666998 9.870619250819797
Ag 13.84298874792145 9.803878289577748 10.309042459985866
Ag 12.766057017689903 7.268897855347296 9.45765639557548
Ag 8.581747500003607 12.348415344120895 6.560664635180131
Ag 8.976725884311142 10.296044521764523 8.4141510426185
Ag 13.982933845519735 10.980567468235606 7.56799611643173
Ag 11.75502130286781 9.650079246506754 8.348939066112518
Ag 11.330052424552893 11.979369506933967 6.956110059773147
