23
Energy = -46.61936192 eV
Ag 13.971677828804468 8.137970920859617 13.768776730369225
Ag 14.2276720104001 10.716561702789395 12.745567216193997
Ag 12.01210636334781 12.322520925236109 12.069599996374812
Ag 13.757194552489558 11.140472144815453 10.022577878632541
Ag 11.615685995653585 6.931663171188017 12.903234438838766
Ag 13.100103032142787 8.624209031633185 11.17918182279812
Ag 11.028332918937815 10.521847295438945 10.168941754916357
Ag 11.667943722953947 9.76600967290775 13.368554295608446
Ag 12.10420420907199 13.267250788748967 9.364561267565175
Ag 12.370787967517465 8.41783037405687 8.480653706631372
Ag 12.228124087759886 10.997996945487126 7.60154857528183
Ag 9.761904583219739 9.304089851745717 8.005683005118414
Ag 9.433697744429175 11.202973668217277 12.481931056997084
Ag 9.784951313019013 12.204152807182691 8.064989579165104
Ag 10.484558839781647 7.684033479770802 10.400481057924459
Ag 9.995980992980376 14.963769564288267 8.484246478182767
Ag 9.682070109820804 13.365408034594086 10.739339851087111
Ag 9.275384195993283 8.40830104082807 12.869568053764645
Ag 7.22146463810226 11.959907543881807 10.843458962170446
Ag 7.355989331132513 10.904722731964037 8.233966182310217
Ag 6.971987687215922 9.962040727839874 12.783920838844125
Ag 7.533476517721151 13.6727293566958 8.663474879191744
Ag 8.27408425317829 9.390755980033996 10.392130886143217
