23
Energy = -46.11620752 eV
Ag 13.8328973967652 12.439639320700381 10.65892623871005
Ag 12.466273751014228 10.783354122352588 8.831280392285128
Ag 11.848312922512111 13.648568498909984 9.056825058182413
Ag 11.360245812464981 12.958149050834711 11.8943128151899
Ag 14.001591158960155 9.629047876752072 10.787347910845371
Ag 10.655468824091585 11.774824758055576 6.98045875929569
Ag 13.019346715688307 10.968495869510981 13.009659501699304
Ag 9.296749401613564 14.457951715965274 10.635491934992116
Ag 10.967348259471422 10.133384079123548 11.30975630508822
Ag 9.255181122421794 14.080348498048627 7.8752065878655495
Ag 10.501406828645395 11.394733142658183 14.129004449580487
Ag 7.176302301582444 12.644744119698265 9.953215073687847
Ag 12.232371894582968 7.872623329919362 9.525159838156503
Ag 8.64999778709037 11.986612934431628 12.243639871241355
Ag 9.814689435445041 11.943681772625457 9.604545452195932
Ag 12.383946114010623 8.099257423286204 12.50766778255848
Ag 7.972199913929869 11.038517558601706 7.755133010865511
Ag 10.083495921549387 9.296833854738374 8.527671519365652
Ag 8.966164379823999 9.220718062786673 13.081897691878433
Ag 8.072783169053656 9.868125268039472 10.45117621545656
Ag 9.713301681115276 7.601543246703438 10.794903329311925
Ag 11.749655894691102 5.711406738968075 11.24935824792737
Ag 10.19968828220425 6.677379733511331 13.395040383393978
