26
Energy = -53.02593742 eV
Ag 11.21284386587948 10.814793382186826 7.834953021284346
Ag 11.237422003690606 10.62869007165646 13.483919600064247
Ag 13.586817634233986 9.975840430923464 9.217546808282089
Ag 13.544480603227047 9.90773607752509 12.113312654588553
Ag 12.663278193456453 12.764735574916205 9.228197712727237
Ag 12.712470243945283 12.725979983534888 12.213648309876714
Ag 9.714052468432985 12.787721386010377 9.158453118311582
Ag 9.653603795374032 12.713518710350781 12.101725724850796
Ag 8.82510269026848 10.019350814282063 9.180804069317412
Ag 8.790645129878637 9.899899149399724 12.14415552244357
Ag 11.237552237597336 8.324485870815773 9.151548312562115
Ag 11.197382334430703 8.239576698039366 12.028859858551433
Ag 11.198320235133611 10.770357456281909 10.639595193577792
Ag 15.825170804174226 9.227743885162932 10.74306359563164
Ag 15.01628170419242 11.93299413319527 10.749439575015744
Ag 14.08300444921603 14.606874188450153 10.731911831790441
Ag 11.235317457158509 14.685396254686907 10.63972700638942
Ag 8.230796936534725 14.638140977204493 10.75409607390074
Ag 7.352596222956746 11.962528263920046 10.637686910175077
Ag 6.573991124511743 9.26681328245998 10.62309238782969
Ag 8.84344799293889 7.515242835818289 10.600061832451154
Ag 11.145602682159167 5.921156347022205 10.495073164735075
Ag 13.574681073319228 7.468517175698587 10.5703475078938
Ag 9.83708202588177 15.38255276782605 12.906956711726732
Ag 11.059192300687185 13.268375353583709 14.431821919684772
Ag 8.807275260523017 11.478429801190005 14.458686654368694
