20
Energy = -39.3122589 eV
Ag 10.939602437611763 11.636320516734951 12.15414135859609
Ag 9.566404135687101 13.339881511593372 10.500450418538303
Ag 8.838524291690014 13.158937268331314 13.288165518249324
Ag 12.601459263364527 9.706634661632348 10.746364914820402
Ag 11.708268916936806 9.123801186032507 13.50014024736977
Ag 12.108447691867356 12.246258531051057 9.696744625993341
Ag 9.264941980605697 10.443874376067184 13.946675277259807
Ag 9.91781289277363 10.80967898166318 9.052613769175702
Ag 6.912684123929208 13.673569144910878 11.381339913635818
Ag 12.12851367021947 7.145104129410993 11.547028165667081
Ag 7.370334187900708 12.162801903428848 9.064202396858578
Ag 12.508607875161442 9.938566280180336 8.020222643144796
Ag 8.033966648661382 11.064928080947979 11.500190580998597
Ag 10.815900429169897 7.840715825010251 9.163513768843513
Ag 9.78611160119057 8.850527593963776 11.588770954271103
Ag 13.672608056401252 7.570606556503788 9.219314909708702
Ag 8.057789449403108 8.94419572326163 9.434050237605193
Ag 12.34526143198824 7.413995484391741 6.800555075766155
Ag 7.672119224840936 10.304704507810465 7.080163853566325
Ag 10.05991673226061 9.017396756072234 6.79697563560685
