28
Energy = -57.4590683 eV
Ag 10.7631199179246 13.052941231052822 7.7663676288448995
Ag 11.577675372349596 10.466642678211873 7.185560523868859
Ag 8.345869702892863 13.165473474824932 9.17221389960077
Ag 13.5280570561014 9.146491149073569 8.721717772215749
Ag 9.972671868196997 15.414500642088374 9.359264293036222
Ag 13.4079067049289 12.038549390830937 8.81377863106439
Ag 12.791786900666995 14.702194624231073 8.907776848439905
Ag 11.009871080866771 13.18575887963635 10.57525542649503
Ag 9.023636736294232 10.5475098319705 8.398601515665463
Ag 11.428251527546507 10.492898993957995 10.002319051417352
Ag 8.746206925881204 14.078211433036598 11.844819817859022
Ag 11.78665923306967 11.359222056230282 12.714417353586402
Ag 12.023697286782475 15.739243588557827 11.35594932200359
Ag 11.237412076356872 13.996468274148652 13.316329354162379
Ag 14.025496937203664 10.441226889340903 11.230802772903893
Ag 13.60860455652177 13.278988310072474 11.436038285534984
Ag 13.030636319887087 8.957254360583859 13.43772314373399
Ag 9.240020809721006 12.061931573352242 13.811439173929626
Ag 12.791924789282561 7.674864379449394 10.941067931954368
Ag 8.927856352863692 11.247439100088336 11.136986333033311
Ag 10.472161961589975 8.868752349279614 12.039493098948277
Ag 10.507239171032785 9.66668644973322 14.655520671681137
Ag 10.765603025845024 8.138441004426522 8.709024204274607
Ag 11.461551040350317 6.653625577821237 13.31751087503619
Ag 7.983568431010584 9.598563665455213 13.147262628085787
Ag 10.307324166547057 6.304456270182297 10.685509724907877
Ag 8.379587926903207 8.49049041088583 10.297751104258621
Ag 8.60042294175737 6.927650589970068 12.78915771083397
