27
Energy = -54.55897166 eV
Ag 12.344827256599467 7.2766463804991535 11.763103211498047
Ag 9.765642034938685 7.883488023177433 12.4973229473745
Ag 13.163010089706798 9.161213353585516 13.581752075619738
Ag 12.649756181234297 11.059213645568159 15.629844907896334
Ag 10.28003468342036 10.192228569415072 13.958720583493378
Ag 10.446689248203738 8.024848899821441 9.597653135890322
Ag 13.38023091877494 8.48875391240418 9.529540808077867
Ag 15.008834038251306 11.342567560977203 13.848108402429478
Ag 11.4196044728864 9.915666255597378 11.240134509222315
Ag 8.324319681840437 9.980534010669608 11.491406784990263
Ag 14.189069992340363 10.69542546326731 11.023850019563346
Ag 12.436942588177828 11.788323937557713 12.969909852789995
Ag 10.662365512189496 12.92622237990807 14.743075193827169
Ag 13.444534648459308 13.706272324488157 14.62593230283117
Ag 9.671265906651032 11.019281325394884 9.273795208943818
Ag 7.545364913353084 12.563566491178358 10.550498144242967
Ag 14.409548621191666 13.397291588875445 11.911127409852217
Ag 6.943918058897131 10.476859133395704 8.860196089769266
Ag 9.762559797883188 12.274952348589348 12.134707806755017
Ag 8.744143518240683 8.78643626445874 7.619694963463465
Ag 12.229600292858313 10.600843072469365 8.277210735503607
Ag 12.229933826011514 12.606803949154367 10.22363753162131
Ag 11.611782224171444 14.409384242890015 12.315698114768804
Ag 8.226462245286031 12.891703981999724 7.81063417403437
Ag 9.851579904037557 14.164967067740164 10.07660289549526
Ag 9.93848526240172 10.98383825347435 6.456707023786701
Ag 11.064863658344427 13.127409753048086 7.772892368857616
