24
Energy = -48.39939965 eV
Ag 7.610498855902159 9.959692912792654 11.403074547723307
Ag 8.032794539415212 12.698245086225178 11.559294630807857
Ag 8.730789341535857 11.290695836429885 9.225436685342439
Ag 7.178436008353449 8.770774374070736 13.884252000342402
Ag 9.671863521892757 8.599946994318765 10.04797937455064
Ag 8.57361480515091 11.128391512192374 13.910342683881046
Ag 10.86478176924493 12.543337166857293 7.68915330752939
Ag 11.358253460815245 10.82517223305811 9.979948874655085
Ag 10.4022534146287 13.477986403644076 10.291969446149942
Ag 10.272914428812683 13.185133225578456 13.097660522940457
Ag 10.449236086202193 9.736229833385684 7.523640446403739
Ag 9.72017448635916 8.749957227272027 12.828501386327705
Ag 13.036209263143583 10.679412873350353 7.485993928742015
Ag 12.442072356265765 14.46706977453218 11.904002983433367
Ag 13.405973323570096 13.271168994447633 6.736056793154223
Ag 12.653198472637968 13.128242220751584 14.491654306716773
Ag 12.353961341266322 8.315535085972098 9.062412203513608
Ag 10.179375288063902 12.411000658212469 15.802329363381377
Ag 12.288441452069087 8.958147334419785 11.908965074098674
Ag 11.41333422148779 10.604188337764452 14.047311683699444
Ag 13.15514614766925 12.92498025241924 9.46507366040286
Ag 12.954704859096687 11.78073014125614 12.082056221614176
Ag 14.183739439033412 10.253011569654046 10.113942693176254
Ag 14.378956480756448 7.551673314768066 10.769670544786935
