27
Energy = -55.47149424 eV
Ag 7.416114524044924 11.154213110645605 13.68087425976849
Ag 6.610269520362762 8.82322983923821 12.441752257321847
Ag 8.452298207659815 13.444887208569785 14.92458876145869
Ag 8.400834265270221 8.165871549646415 10.384355365344598
Ag 8.506038174842292 13.230839081047657 12.140890631387995
Ag 9.343382343108543 9.224807951116633 12.808115620036041
Ag 10.155170182689853 11.234582414254488 14.513150909678359
Ag 7.686482053548003 10.87898009421566 10.845034736401624
Ag 10.902832675119312 13.722125910507506 13.594409444275065
Ag 12.19038163677067 9.818965582806333 13.14928059116089
Ag 11.219490043042063 8.455511119832362 10.87145347861481
Ag 9.040241563708488 12.862396538122804 9.399998115387895
Ag 9.841069715955289 10.135067523860592 9.038279110991876
Ag 12.544091958943982 9.52004761019897 8.6586363782508
Ag 10.663261921099256 11.445898563648296 11.45001766728356
Ag 11.722896521489988 12.21673870310054 8.886211222757112
Ag 11.004345883012975 14.778149631406023 8.221702193459631
Ag 10.968461106421017 14.294476304609109 10.890642608428807
Ag 12.872812665726858 12.01603368793386 14.732431400113207
Ag 13.953592479385653 9.058127943494858 11.094487061587355
Ag 14.82499642313785 10.953099567308533 12.977076190394358
Ag 13.07072532604977 12.87132703092014 12.035576176698747
Ag 15.305525921801479 9.149800160329688 8.642949291458933
Ag 14.275512550841286 11.519069295596665 9.6843296740714
Ag 13.58084612841895 14.243050817811772 9.594274001489914
Ag 16.528919494332616 10.431216783657241 10.864430152872195
Ag 15.740424632542014 13.172503895446196 11.296070618631898
