23
Energy = -46.07650357 eV
Ag 8.983601704232212 11.010645485643087 5.261715041374329
Ag 11.243995479336704 10.197609324285535 6.6159432001013565
Ag 8.61612434047494 9.732043899792737 7.686768781903714
Ag 9.976629816056434 8.445887423206814 12.781283912738342
Ag 8.11500735351611 11.451711956041285 9.922855390874561
Ag 13.189449372134407 9.32588693012648 9.123781583614793
Ag 9.53989494391905 12.411040171416683 7.585089345457402
Ag 12.333218649982225 12.316174359915788 8.056686168147984
Ag 8.820580967317698 8.477744586887573 10.242886825507233
Ag 7.631544424429336 10.023351314633441 12.234607002303576
Ag 8.72816408890436 12.705038470612521 12.3805749750326
Ag 10.45581013445352 13.107262399551102 10.153864964457117
Ag 9.207799099722681 10.66140278702186 14.45594106067209
Ag 10.778640118122544 7.95168983153033 8.144607997149622
Ag 10.744521847152484 10.420410055074433 9.515569949348846
Ag 11.541108267673172 7.46528188119557 10.731262760890147
Ag 10.93187887580351 11.07492766935461 12.325708474501763
Ag 11.28979197867839 12.414907859872697 15.012405427896867
Ag 11.700518676320552 13.717092271443121 12.563705875401434
Ag 13.049575804880549 11.830437729068775 10.680013597511017
Ag 13.145241994831188 9.3183811319932 11.9601478521603
Ag 11.914572744411911 9.660262053746003 14.516288506187461
Ag 13.552235830710579 11.734441160449768 13.487305789861379
