25
Energy = -50.61048731 eV
Ag 13.215981063225621 13.891503892981282 7.804337800688849
Ag 10.574338111194773 10.346331261046174 9.730119549816045
Ag 10.597318291787573 12.933403390437675 8.496262115743043
Ag 14.977061028422064 13.55038123066282 10.09609253178381
Ag 12.23021034500668 14.33491926634281 10.337010716807805
Ag 10.900489308887728 7.51053221576982 9.758880280645007
Ag 8.384367635780722 8.758897728894144 10.1582774594314
Ag 12.636246197404937 6.79725144215311 11.825283935341488
Ag 8.19364365899789 11.701772731815765 9.381358565501994
Ag 13.013894223945291 11.67864381004593 9.437144575306322
Ag 9.542641606663397 13.51824258575571 11.00978409840259
Ag 12.842145791450918 9.364316392580852 10.976532763722812
Ag 14.871318177089764 11.216024923325637 11.587878706307391
Ag 11.658129612811338 11.891947826901907 12.010500348356674
Ag 14.786775295131106 8.560041542426214 12.689675137733662
Ag 8.842798205188702 10.88900060315808 12.017445842231792
Ag 10.395899986444698 8.583296744508441 12.244505603337023
Ag 11.239247974669103 14.883580221968444 12.796912200356326
Ag 13.886181406474737 13.64840513884327 12.704455121424756
Ag 9.359512510995543 13.05298784324987 13.801050840046637
Ag 13.404663537705426 10.638192429444487 13.864218449325634
Ag 10.61708067756511 10.5153701879969 14.206280185899182
Ag 13.156475565225332 15.508857910244313 14.689711198826757
Ag 12.053937188767684 12.907875757770825 14.77618144888703
Ag 10.429864104640263 15.12844442715316 15.410322029551805
