20
Energy = -40.16437601 eV
Ag 10.841767727697377 12.801913703705306 7.082453501149517
Ag 12.92362515945462 11.350483392041655 8.29303331142784
Ag 12.144553380420819 8.88079410998513 9.671086714012421
Ag 10.223651723724512 10.834869010711602 9.012379730453222
Ag 8.652621028735371 13.072191807312654 8.993158789174378
Ag 7.899309439728595 10.666916160796063 10.60302409084759
Ag 14.644951493456945 10.101215770402185 10.401534519596494
Ag 11.470845714478363 13.630653584283634 9.586909785100962
Ag 9.25732601891293 8.227160665134729 9.696256250603698
Ag 12.312502992950185 11.38162880334469 10.961384965954775
Ag 9.728512475910033 12.573543437170658 11.526405113713906
Ag 12.165275964856507 13.776820615299522 12.305408136622003
Ag 10.139714665915731 9.536488594393534 11.855904457506403
Ag 11.117084401827686 6.9706156244621535 11.434171923730215
Ag 14.140866663167813 11.585068680350632 12.976368082107808
Ag 12.88230452252999 9.005288004232481 12.409968222018419
Ag 9.98342429745812 13.421600732623546 14.205300492899275
Ag 8.458700272196399 11.051195610588135 13.459808309164464
Ag 11.390480260889081 11.098845556348726 13.700028025557655
Ag 12.729839176137345 13.140063517261241 14.932772958807384
