20
Energy = -39.4668265 eV
Ag 9.233702689227892 10.337763716212876 8.476329175989651
Ag 9.68261313237378 8.23694164897431 10.282360960904779
Ag 10.374804830728273 6.264995722586197 12.469666198696007
Ag 8.745831931026185 10.796085086720712 11.167923578443824
Ag 9.418746049136448 12.92223847258419 9.439752517934009
Ag 11.824973385993431 9.885627977038599 9.410954541116974
Ag 11.389735795277645 11.869919719181253 7.591657246598269
Ag 8.66231067435648 13.400492863587711 12.10217349947811
Ag 12.180813724119826 8.148000265297846 11.510371681331533
Ag 11.94985722073619 7.879866896885156 14.21236543263882
Ag 9.748823662848261 8.930777030516621 12.959973889751078
Ag 10.396709798860721 15.126527634327044 10.927520047091082
Ag 14.058556900569462 10.065508647663833 11.057153454193571
Ag 11.421227975343319 13.408748354339975 12.985629978977103
Ag 9.620785693059526 11.500248884548892 13.809744365935728
Ag 13.397263266303396 12.272881330957384 9.546627719782652
Ag 11.774179538392222 14.403589436849979 8.656533013629097
Ag 12.145520451981694 10.54653367831876 13.123631899366927
Ag 13.086761135697884 14.649088492229579 11.059841110511025
Ag 14.033172714192279 12.475031524021505 12.354229317068786
