29
Energy = -59.49387459 eV
Ag 8.713168985993807 11.814860447247336 11.39257926772837
Ag 15.35396163006448 10.310105950053723 10.247203746053476
Ag 12.555835325809618 12.596922331159593 7.0757322615066585
Ag 10.515464736343944 14.05947231542012 11.739260633248197
Ag 8.439617468053198 10.78382095316108 8.808318752380941
Ag 10.508123475182735 14.782927240271508 15.349254619822249
Ag 12.744704015811259 9.542500958487222 10.591514939132798
Ag 14.205658353301107 11.934168487631137 12.331039939827518
Ag 11.685288967128619 8.626608144767328 13.052476760622513
Ag 11.820161811120995 14.404265737615134 9.063143833705514
Ag 11.024079623229783 11.533609247482593 9.349600209924962
Ag 12.379085775448099 13.414315649050513 13.903518152844846
Ag 9.20988410719334 9.893355614082548 13.456376761571796
Ag 9.13749311233888 13.57951728821135 9.204758749814047
Ag 13.686243848983743 12.4515858922965 9.639053294225016
Ag 10.399511689307461 10.81898909530229 6.7418895243050025
Ag 13.418317932165337 8.072572182703771 15.146641184002142
Ag 9.939387928054622 9.30139641775877 10.804553127385756
Ag 11.408015632793877 11.386241157116405 12.199106506650894
Ag 12.801657830331429 9.90468049294215 7.852873037786958
Ag 8.719503358988954 10.911386414795523 15.995792056209948
Ag 13.184302392407007 10.820552356293689 14.69113713965747
Ag 11.006115737712289 9.380969062978611 15.692314332696327
Ag 14.519681935390613 9.190590616199431 12.806537164672891
Ag 15.152628643350054 11.350186311816215 7.626881278101155
Ag 9.450028217428155 12.672853134598956 13.958348836843776
Ag 11.20435897622312 12.201901662838464 16.148953328183214
Ag 13.264472304211262 14.502877032019521 11.479967055418445
Ag 9.927248214430337 16.13076983449658 10.025175534475348
