27
Energy = -55.92144541 eV
Ag 8.21960413607658 7.164899639053009 11.511841555156463
Ag 6.6138568669854445 8.24425996201923 9.484793070750857
Ag 6.431312130218463 9.192601568148882 12.23978873636172
Ag 9.179981746074704 9.408203261069495 12.85129658701039
Ag 7.464968588696453 11.709757535656012 12.834343217835428
Ag 7.803332494489685 9.896770834917733 7.563206342112153
Ag 10.937176741121265 7.69396187720205 11.51083636000199
Ag 9.434364238597965 8.259301207531752 9.208815980057548
Ag 8.624880494411004 14.196014581257803 13.329308986715196
Ag 7.936204491239358 10.540311440440911 10.310780996656943
Ag 10.305737409515226 11.961253782484702 13.292053141259412
Ag 12.015558741519413 9.711837484013415 13.226007258287177
Ag 10.940727089355684 10.627830738418803 10.750458054044266
Ag 13.64475489344084 8.133300611090167 11.580151762996397
Ag 12.231526171459889 8.647678919914481 9.143363991817965
Ag 10.559466672345016 9.542398164225979 6.977270161944006
Ag 9.727994409198121 11.757840255446322 8.421484733778001
Ag 9.18008586279949 12.988193008622968 10.88372353541817
Ag 11.186119401322724 14.51872636256873 12.251228129155727
Ag 14.775833792971016 10.301478918117137 12.961992941311154
Ag 12.92480708234549 12.29546940629216 12.326384965616002
Ag 14.083318449247725 10.520209001325233 10.196162233238551
Ag 12.487506401458347 11.237557382355766 8.005813214080838
Ag 11.732002288566193 13.303793569689834 9.721939847365775
Ag 13.717217865057389 14.711114993016936 11.109332799763598
Ag 14.393856764005955 13.02900338255691 8.959186930215319
Ag 15.569673177136545 12.528100512219995 11.47030286670509
