22
Energy = -44.16874651 eV
Ag 8.004428178115884 6.436969968956925 9.609434479563832
Ag 7.542563103440597 8.165377278832132 11.690902696218657
Ag 6.676988489981387 8.983709843530557 9.159662024407766
Ag 10.157519697837735 7.567342445390825 11.073302106622721
Ag 9.338126632157946 8.61356492840341 8.497013874280222
Ag 12.856892746341138 6.865689117994348 11.130291628236028
Ag 9.251716754745013 9.809396617084913 13.041216421996282
Ag 7.502908339461567 10.93980988937018 11.147010569861626
Ag 8.116007578464078 11.176589166358617 8.354725103275785
Ag 12.083161017739103 8.65954182192968 9.141179082606117
Ag 11.922673243586875 9.046952547712971 12.618491961642517
Ag 10.272334492388831 10.507570377337462 10.413917898515702
Ag 14.107532164310951 9.407153885604986 10.904242171027931
Ag 11.186973018163608 11.282684665048842 14.325693234836699
Ag 10.914109854513832 10.814310037755522 7.629750214484566
Ag 9.69689878941623 12.536828709413129 12.343733585597702
Ag 8.412494772152312 13.405104783929671 10.037622174210835
Ag 13.182826518828765 11.298011053077042 9.18819935982111
Ag 12.407241947297587 13.184652651389223 7.305207158660909
Ag 12.468506239850443 11.669092352969786 11.864019426089147
Ag 11.200869484602212 13.187967400970427 9.858614317820047
Ag 9.598395882655355 13.358715596793584 7.5292172246922195
