21
Energy = -40.73638627 eV
Ag 9.136896 9.136896 9.136896
Ag 9.136896 7.429431144660535 11.411197486352874
Ag 9.136896 10.844360855339595 11.411197486352874
Ag 9.136896 10.844360855339595 6.862594513647126
Ag 9.136896 7.429431144660535 6.862594513647126
Ag 6.771450428405942 9.136896 10.672265858135308
Ag 11.50234157159406 9.136896 10.672265858135308
Ag 6.771450428405942 9.136896 7.601526141864693
Ag 11.50234157159406 9.136896 7.601526141864693
Ag 7.540651819825854 11.489270738458073 9.136896
Ag 7.540651819825854 6.7845212615419275 9.136896
Ag 10.733140180174146 11.489270738458073 9.136896
Ag 10.733140180174146 6.7845212615419275 9.136896
Ag 6.54436129731568 6.600464515639711 6.586407570003403
Ag 11.729430702684319 6.600464515639711 6.586407570003403
Ag 6.54436129731568 11.673327484360295 11.687384429996596
Ag 11.729430702684319 11.673327484360295 11.687384429996596
Ag 6.54436129731568 11.673327484360295 6.586407570003403
Ag 11.729430702684319 11.673327484360295 6.586407570003403
Ag 6.54436129731568 6.600464515639711 11.687384429996596
Ag 11.729430702684319 6.600464515639711 11.687384429996596
