27
Energy = -55.14717521 eV
Ag 6.739422381062629 10.732397239747357 12.571128898060824
Ag 9.310477671697017 9.931041484390253 13.545656190392322
Ag 8.736465509536533 12.75818027854411 13.005328406185248
Ag 7.962795496216709 8.292998191931483 11.583084267335005
Ag 10.103931969641975 7.1459328110225755 13.070047202531
Ag 11.320507215585305 11.6809829566194 12.4386742251485
Ag 7.095051163915249 12.901052921101401 10.454950470685166
Ag 6.655330140074321 9.96114891311234 9.670301073739086
Ag 8.920654185550584 10.992590780043297 10.870062565105117
Ag 10.784705471696805 9.06743615211246 11.193325523360134
Ag 10.084983807460455 13.536636298301408 10.642771886874048
Ag 12.074083963111388 9.15900697146381 13.651354076031236
Ag 7.351495653951001 7.149822959815441 9.121065023500055
Ag 12.887370569830681 13.023452531650934 10.57825396633267
Ag 9.868559207910543 6.5756816375526395 10.301942177127202
Ag 8.841986396936624 12.122610734418936 8.277029110637415
Ag 12.645564488331377 7.157648044659879 11.422085346776168
Ag 11.376016781562488 13.669507511022324 8.186787915479815
Ag 9.203892843084807 9.18244217552734 8.63376845830082
Ag 8.509985146009036 10.232045579873146 6.088326234523648
Ag 13.338757634655027 10.140520997787721 11.123257970395638
Ag 9.717164830199263 6.652540500406846 7.526868387103003
Ag 11.420602463629526 11.06952469886566 9.231489996000656
Ag 11.943528044363918 8.137254207537271 8.793620340872048
Ag 10.878800193004732 11.609425269709828 6.430555741016905
Ag 13.158407454237643 10.162985916429252 7.167796391493518
Ag 10.912176537866879 8.795816593236836 6.281742465625072
