22
Energy = -44.2470379 eV
Ag 8.346345050398941 9.4737173790852 10.717436
Ag 10.717459298909809 10.37653047647197 12.114193923350946
Ag 10.717243514756525 10.504274390344133 6.579199037218141
Ag 10.717300478677544 7.900873979709607 10.717436
Ag 9.242792471791004 8.402584751947938 8.183950272525463
Ag 9.242792471791004 8.402584751947938 13.250921727474529
Ag 12.191727173809548 8.402172834363189 8.184129190986532
Ag 12.191727173809548 8.402172834363189 13.250742809013461
Ag 13.205934953683842 11.148485325226263 13.055506197040973
Ag 10.717700059292916 12.925283950145632 13.14384826423999
Ag 8.228990649191454 11.14884414200304 13.055439994313538
Ag 12.169716396252282 12.458060683925268 10.717436
Ag 9.265485781221615 12.458084951832006 10.717436
Ag 10.717459298909809 10.37653047647197 9.32067807664905
Ag 8.228990649191454 11.14884414200304 8.37943200568646
Ag 13.088453654621214 9.47355720008827 10.717436
Ag 10.717700059292916 12.925283950145632 8.291023735760005
Ag 13.205934953683842 11.148485325226263 8.379365802959025
Ag 10.717519805897819 14.766259775050278 10.717436
Ag 14.768217919700541 11.718133587585097 10.717436
Ag 6.666856670359983 11.718552701720087 10.717436
Ag 10.717243514756525 10.504274390344133 14.855672962781858
