28
Energy = -57.78739814 eV
Ag 10.045554422498478 14.567225564835194 10.650366020545828
Ag 11.956804139767481 15.469162182918422 8.453789195129358
Ag 8.53612116538044 12.201260058343564 9.974472971490279
Ag 10.972285715082176 12.84957573684455 8.618486974828677
Ag 11.386523411984573 14.01291559021303 13.236119797712835
Ag 8.676651080066543 13.08845132400161 12.574657122516678
Ag 10.34683748474525 10.198824298985931 9.224690116473745
Ag 12.765900830346675 14.01077676009858 10.648950722364825
Ag 11.034177563504546 11.834621096040934 11.455739288624159
Ag 12.892395909766254 15.13945401044387 15.321843081644113
Ag 8.899505152484522 10.097727874780333 11.955165572457096
Ag 10.242791169688102 11.482593989526343 14.141154263013378
Ag 13.606477299756305 13.302859808929723 7.885862901169686
Ag 14.244764208765954 14.464184875948774 12.974042910463702
Ag 9.78270108138122 7.506331197549599 9.607473565378466
Ag 12.272691349783733 10.791554913767095 7.0988013099214005
Ag 10.991297568527541 13.278266908355295 16.194604436722475
Ag 15.304106907916758 13.16527198356065 10.26901774194874
Ag 13.186882771649246 11.149056934782175 9.639901484857917
Ag 12.461199720733728 8.472709877745665 8.955943007377611
Ag 9.03937991740887 7.192312730676781 12.24529404940056
Ag 11.496001957830188 10.401302669536417 16.26467103266186
Ag 11.289356101426343 8.737987322912518 11.558330377165241
Ag 13.900174702345826 11.815845323983313 12.228151606215285
Ag 13.184503167838846 12.394791984199447 14.82419368205837
Ag 10.186175465105949 8.681505613214629 14.293487095411402
Ag 12.633458241273981 9.925837716992291 13.712479508163545
Ag 14.029713802953655 9.132023960826748 11.356742474295784
