28
Energy = -58.11865704 eV
Ag 13.691326381067386 13.23247857565705 10.904432202556848
Ag 11.92254310718006 13.385701983784339 8.618364051588664
Ag 14.715356236147413 13.48630567786542 8.32737842052654
Ag 12.53217402066001 12.970100712210517 13.49757760541386
Ag 10.633750415641806 11.221081879723254 7.382757087558112
Ag 13.133165724978676 12.022260418553858 6.492429712576681
Ag 10.854414987758382 13.209471602224196 11.326518106189177
Ag 12.974965332733074 10.672720551216905 11.842460703860406
Ag 9.228688471010994 12.986396508472458 9.113414170749065
Ag 13.636525074978605 11.061092469797149 9.103706516937615
Ag 8.331226035194717 11.669643061081826 11.639604333256424
Ag 9.403483372241936 13.493601372443962 13.687465639982136
Ag 10.565978246536043 11.02691835133325 13.286255712404127
Ag 10.680684009571719 10.62897354103483 10.224527984200826
Ag 12.771364755065004 9.267305094910268 7.108106971202312
Ag 12.725078950944958 8.570115908932237 9.896599664863402
Ag 6.545993391346788 12.455207906847626 9.531337985609666
Ag 8.067606648874396 11.249958956919574 14.584139669612398
Ag 11.222478915900837 8.528090512101759 12.332782264400986
Ag 8.223317385168318 10.405081327968224 8.738757823281626
Ag 9.624408094912786 8.804954060403466 14.65333935089261
Ag 10.265791118595255 8.535384402095001 8.299640977306177
Ag 6.254472384326934 9.974109791299776 10.80725093636122
Ag 12.227740336330873 6.63149163072847 7.940257727398516
Ag 8.753040849527064 8.552739504390438 10.747454738852252
Ag 10.763538270244169 6.569391903650407 10.379015503124947
Ag 9.159879484357521 6.721122619634286 12.79412181204713
Ag 7.393143095631288 9.026000877401303 13.088674561919259
