24
Energy = -48.67571194 eV
Ag 12.928598913093404 13.90603399514768 8.406009502733793
Ag 13.679434439064392 11.674602662457035 7.011985316427589
Ag 10.976383114022703 11.903155115672725 7.754621001099311
Ag 8.440008737455269 12.1074147100687 8.851664200700561
Ag 14.977588057528466 10.065729221082128 8.790188285198948
Ag 12.299387078022312 9.4653594818462 8.209731442086124
Ag 9.491172204097124 9.504379579834515 8.065075302137553
Ag 10.69404281732419 13.52463240697977 10.046446171711693
Ag 12.92364565607055 11.649658042614242 10.011284055988137
Ag 10.15228856980456 10.648374077200266 10.495054688611221
Ag 7.196752316794226 10.735904443686387 10.89687032018781
Ag 10.462399215507158 14.879438344135746 12.463270095260182
Ag 13.449571793774947 8.974646696995087 10.806495529686327
Ag 10.915295685095705 7.949359941434057 10.105422142184636
Ag 8.603977432780331 12.916895104520808 11.829714887022748
Ag 11.345164966792332 12.280428276308944 12.533934604474329
Ag 8.160864747662895 8.258199724696167 10.241967087686543
Ag 13.903919474107242 11.109148371898522 12.635178978186858
Ag 6.515672013017057 11.519923353489554 13.419163595368435
Ag 12.255493271994384 6.948959225608891 12.361021012026194
Ag 9.06476310828711 10.49654295933028 13.192031354593471
Ag 11.646729068702067 9.565487563690152 12.85000840751789
Ag 9.530051489132589 7.762113141176608 12.662387453240674
Ag 6.9491808758884135 8.715998606144227 12.922859611888107
