29
Energy = -58.81677077 eV
Ag 14.454832642864869 6.808663366219027 10.498951648994707
Ag 8.065769737828923 11.783778986877207 12.19314930690232
Ag 10.80230332899629 10.300222743460903 7.851218241508096
Ag 13.267615728556985 12.630435708599045 14.251678924811605
Ag 15.456798342707737 15.81752613677654 14.634444805966039
Ag 10.607635740365593 12.816150740725025 10.339596989326177
Ag 14.788812488305645 14.183165485586724 12.545085125608265
Ag 9.998833321550064 8.162284230003838 9.718614179066115
Ag 14.656337972407561 8.062019958958988 13.022601914268545
Ag 13.339614984491249 12.187186887818367 11.29644556384392
Ag 9.755359268167751 15.308252332086905 9.54862126468975
Ag 12.706239138997528 8.289466315760516 8.827413815085176
Ag 10.811944586907996 16.821484840238632 11.704748659402162
Ag 9.498771980379505 12.876167350717507 7.881025533009743
Ag 12.089898515664206 7.727596439873512 11.633150331427732
Ag 9.172970067471066 14.441710336250505 12.185113477296431
Ag 8.765096377779987 10.576496675244773 14.588632036065016
Ag 9.730480672439331 9.372610454951753 12.312311037011044
Ag 16.041807139126426 13.121469477713106 14.788556092942212
Ag 8.741932843997885 10.72190873986226 9.709043444180201
Ag 11.596329928142117 10.283474331834473 10.463691679184272
Ag 12.638490859671656 9.990727890185692 13.221361742809146
Ag 7.693295268270951 13.385707765681827 9.972786783570196
Ag 10.710934165774976 12.07747905645347 13.042593461105513
Ag 14.304860193717222 9.604208238857437 10.75865218740942
Ag 11.368728608603838 11.0408139025513 15.483671534930963
Ag 15.283359196935194 11.065591662468094 13.012317112387914
Ag 12.018503560450117 14.447212878129347 12.122774702501216
Ag 13.396121063301356 16.640737954583926 12.961834656030092
