24
Energy = -48.59271497 eV
Ag 13.536620192270165 8.758671283902505 14.210766695337453
Ag 13.202639801644427 10.410752758322593 11.810464253791123
Ag 13.201313997961648 11.400199688134785 9.129151307801626
Ag 11.66458930217185 10.788661404305508 14.427429423401986
Ag 13.552530920712549 7.521059028120564 11.704665980058676
Ag 12.592048607722326 8.740704146796 9.351546941304992
Ag 12.950046812106216 12.894377590941406 13.181562304047958
Ag 11.224692482967754 8.59438763314262 12.747667433151324
Ag 10.773899506223984 10.756168726711865 10.373640287919786
Ag 11.376099754890305 10.274831160952232 7.249394898960333
Ag 12.069274333254754 13.406465589041062 10.627449650694835
Ag 11.042712390102697 6.823108530110811 10.55567665259686
Ag 11.088339857114306 12.994658371718016 7.996603536508006
Ag 9.039415482663514 10.18226193275534 13.528288380243378
Ag 10.277638057182653 12.525532100348967 12.579388955520933
Ag 9.78778644900346 8.56832860179692 8.744143396513893
Ag 8.871533183612954 8.413030176606975 11.378591272074521
Ag 9.657501910993222 11.914813764323688 5.798166818424151
Ag 9.324433723856666 13.61735487341971 10.07601073493961
Ag 8.132262195262733 11.376350887038608 11.17205733918875
Ag 8.786617135380354 11.279708793301518 8.326913462736478
Ag 6.492210651882861 9.521920582009841 12.33990701318428
Ag 8.474291156930889 13.924785858364519 7.4710104148405545
Ag 7.109042554110908 9.37442616084963 9.532548694616873
