27
Energy = -55.98195895 eV
Ag 6.701357837877127 10.73840595854782 13.22114869522902
Ag 9.48907512020996 10.64283756944648 13.28506603220306
Ag 12.304233025983054 10.561905598047149 13.241075186351921
Ag 15.089500028248194 10.496749831452393 13.09144188320088
Ag 7.9842425289811185 11.01144889077898 10.774061605097868
Ag 10.873527501358883 10.92600296466266 10.800330341058064
Ag 13.761872914674555 10.85815528937335 10.676230283905985
Ag 9.422847477834283 11.290898737813905 8.340885085766265
Ag 12.244648014011522 11.21287647522504 8.290627610339639
Ag 8.071900624712823 13.123796544517596 12.74869133402637
Ag 7.929274600938515 8.465909650607149 12.160534905186934
Ag 10.958702806360593 13.050719295662493 12.856544578797534
Ag 10.814979170426996 8.341815595900504 12.24311045052088
Ag 13.831077568303941 12.956868113082606 12.666565758995551
Ag 13.688920296016496 8.314932634537708 12.049175445174775
Ag 9.441634783957799 13.428618322449944 10.294274495875472
Ag 9.28940759179852 8.721134360657611 9.68789191381098
Ag 12.432808647314715 13.351139651294867 10.242017401686986
Ag 12.285227540071697 8.645120894545549 9.622457781283913
Ag 10.901326109342538 13.64240649307872 7.890949317848062
Ag 10.748870129584112 9.052299296124186 7.2924982966440695
Ag 9.586484935856063 15.412439584410901 12.281981673950765
Ag 9.315288856276375 6.291505809324624 11.100446541149035
Ag 12.437683169807777 15.333951994669848 12.23221842185195
Ag 12.169519622627247 6.215859770161268 11.036287551374137
Ag 10.98665137790688 15.726560786436961 9.7940956806358
Ag 10.714122071984162 6.551906649610409 8.598584742444837
