20
Energy = -40.02347697 eV
Ag 11.571764630318462 9.473689453223532 6.934861440131263
Ag 13.389299262779808 10.743799333303693 8.81050914980103
Ag 10.716376965662556 11.79886948291306 8.096690388629689
Ag 11.23806047324481 9.332724993582833 9.665316797396464
Ag 13.267766855474699 10.776957257013711 11.673418859556449
Ag 8.897429472910128 9.677690130232493 8.259963087943516
Ag 13.517035640697834 8.237366534771379 10.57905904804448
Ag 7.853315746932656 12.217291164630481 8.377047440143292
Ag 12.087687168630826 12.819251801969756 10.299426481834011
Ag 6.957722090052646 10.4703321514484 10.452649669574066
Ag 9.656766414921776 13.99635229597823 9.498252984823765
Ag 8.585458481441911 10.13612050010682 12.985668780827217
Ag 10.941414784983376 11.67933627023421 13.162606643545178
Ag 13.109943216694598 13.345071647981019 12.814057430467413
Ag 11.214151131315367 9.069979095729297 12.503695115400944
Ag 8.807696907180748 8.467902505088926 10.765772189221881
Ag 11.03712123423625 6.81603070455745 10.986243324536703
Ag 10.44903734582646 14.172452555572901 12.148869752300751
Ag 9.503493349433992 11.4953204762427 10.721326415620243
Ag 9.18687837881124 7.3444834370281304 13.24290002401454
