29
Energy = -59.99773558 eV
Ag 13.552230558841504 13.644926547464589 13.37814514981636
Ag 12.85791672795674 15.747241202777548 11.615092643636618
Ag 11.891033037546896 12.554251645747408 15.28526838171816
Ag 14.486353650804293 12.09930402363834 11.251278139602338
Ag 10.838444241611832 14.56561119098836 13.57123071412156
Ag 13.511035915437377 13.915827006130584 9.226336870966945
Ag 12.34124942484941 10.919533521848534 12.65951361239677
Ag 10.12646046414789 15.541478346745984 10.935960591899656
Ag 11.317070904677689 9.803471939165231 14.987692420091703
Ag 11.798792154791279 13.291775493154693 11.221439129192342
Ag 14.178097556889718 9.257636888014261 10.983423082469589
Ag 9.792870739814022 11.848615946413036 13.689005867427706
Ag 12.969247036258716 11.12898183888573 9.16978351795457
Ag 12.315654184810882 7.989686500610659 12.988903747535275
Ag 13.02481079223359 8.44085269900962 8.3286834138724
Ag 7.551554377883589 10.969273363540715 11.896565441095868
Ag 11.464944274459842 9.071145213828721 10.553598418526128
Ag 10.897697239782003 12.814691749325481 8.51427868014993
Ag 12.844436717059672 6.658635857918148 10.527394702593046
Ag 8.505956662960612 13.691066754462945 12.216249755386665
Ag 9.939627203808417 11.39328762070725 10.77214805809244
Ag 10.158102950149917 6.736972512703536 11.488835709528248
Ag 8.484129210117823 13.754351829952398 9.501443418738612
Ag 10.637117900770933 9.990947877822734 7.987233144589687
Ag 9.677811719986325 9.20401320822209 12.776264274436478
Ag 10.509307127270432 7.173010053516298 8.669102490090923
Ag 8.57257390355661 8.742852429680697 10.234716658574994
Ag 8.117072289543305 11.094386919784782 8.68397839840624
Ag 8.313182251454538 8.546760539668117 7.487574547476425
