29
Energy = -59.89113207 eV
Ag 13.966423014881494 11.135245088834884 14.11316441778451
Ag 14.66067024768266 8.238822137899689 13.954701061909217
Ag 14.677323521852621 9.83513341880572 11.685345345465585
Ag 15.158279371804715 12.537473553442227 11.870119704672407
Ag 14.942416217995945 7.108335505515044 11.348436089830436
Ag 11.195781364998604 11.715685093240351 14.691265845877206
Ag 12.172295810134287 9.086956772451082 14.819643445969154
Ag 11.847847913093073 10.607380069659222 12.204314393097837
Ag 12.627324306208546 13.249169543928385 12.742659082450134
Ag 9.885399357240328 8.890667351803446 13.204756091395044
Ag 12.425221153922498 7.817069532364684 12.30394658313094
Ag 13.642962169842267 14.25719522752888 10.317861144166638
Ag 13.245979461972254 11.542099681949438 9.917084074426509
Ag 13.242859403591778 8.596168015103117 9.648122730954828
Ag 10.546148767625404 8.79959793631789 10.412662736139135
Ag 10.112242481165548 14.08376208165109 13.607358392711804
Ag 10.322167238508527 11.739361350345094 10.12022245792149
Ag 11.71927726478202 13.443828259789878 8.373624942766572
Ag 9.119803076285999 11.624559894946243 12.685260755362867
Ag 9.729742585487543 11.99618864331251 7.039550930469756
Ag 11.546485884611393 10.166931141549798 8.110617444908964
Ag 10.87658009238186 14.454717349817923 10.869239615670951
Ag 7.931273725473296 9.32111162933262 11.291918156977102
Ag 8.219374927801685 14.219619202385447 11.646353086054011
Ag 7.031913038407174 11.918173979922367 7.667017688680006
Ag 8.711884573495965 9.870381423662188 8.584983787038318
Ag 8.894982855897874 13.91384300554817 8.890053552362906
Ag 7.408907535009992 11.920213032894969 10.407037454494088
Ag 6.013266174500198 9.801282063860826 9.302027980363276
