25
Energy = -50.82017251 eV
Ag 12.376314718060302 12.949662165914408 8.60975653215288
Ag 10.393219582264164 9.596979478804899 12.603962603283152
Ag 9.750168550488507 11.79763658141116 8.176060995332028
Ag 12.025557376200926 13.39823653008541 13.927158124908177
Ag 11.999539167045953 10.163912614389108 8.066435079801064
Ag 8.563264894743115 9.34418778344218 14.652276510208745
Ag 7.200369387985903 10.735149805773354 8.155980380840072
Ag 15.200927861663512 10.075257501680762 13.640272015634396
Ag 11.09900824887085 8.485200756770336 10.10524197127207
Ag 13.98384987137571 12.115365531486393 12.232667016437095
Ag 12.5060746720558 10.587452187816345 14.2807341749177
Ag 9.466473220052187 8.995471188618845 7.769671498737431
Ag 8.00269677650688 11.185664686562053 12.638233975409394
Ag 9.756544934687934 13.383780710927223 12.245945245288612
Ag 14.484630469968733 12.462482385690665 14.977791665363757
Ag 10.11503414160842 14.220378000841041 9.594377357228476
Ag 11.36465032837402 11.498446277995566 10.766531229823253
Ag 13.741202062913812 8.272475229724002 9.27692906289923
Ag 14.071819784257121 11.027669183361246 9.707256691540325
Ag 9.983253080240457 11.684400641678657 14.525698604572389
Ag 14.37095180248788 14.681637428526885 13.233462019292862
Ag 7.9332170590263305 12.545622761272853 10.183295484936881
Ag 13.152000256696995 9.374129115835945 11.807154567727999
Ag 8.736218821470496 9.873858209929988 10.291320515159116
Ag 12.389048567041995 14.21097887754968 11.197822313321618
