20
Energy = -38.87312801 eV
Ag 9.344535667518066 12.678682091020995 14.32620718106104
Ag 11.42947270624068 12.901139092651231 12.501877765535038
Ag 13.460751571537553 13.660219592115098 10.825411683215462
Ag 9.33802052399387 14.615931251243568 12.093793641846478
Ag 13.707028426498717 11.347198126788618 12.57029231324335
Ag 10.468056317379288 13.237583093177282 9.836956745304024
Ag 12.78932104015241 13.314946704548237 8.16800486393517
Ag 11.963051532414577 12.998305193739874 5.610889364451202
Ag 8.761944990498533 11.969225607134547 11.7042659889669
Ag 11.121347834787308 11.215674860456538 7.500442706281936
Ag 9.561747928111178 10.431684673757859 9.58728035648077
Ag 13.755781205987486 8.960612315031954 10.940681922306116
Ag 11.51935031288515 10.81035114153908 14.323808685691404
Ag 7.597525789498574 9.526521727572106 11.272880665728454
Ag 12.362965149487666 11.23233908167108 10.083557846588967
Ag 13.406871932586045 8.840871331436086 13.678035859627206
Ag 11.085630315887991 9.334289765048311 11.825335863196901
Ag 11.715023430699373 8.792823529594903 8.992947525313749
Ag 8.941750333354182 9.971711154314654 13.630483475462023
Ag 10.832019491248635 8.05652041378866 14.314393933417648
