27
Energy = -55.06779271 eV
Ag 12.142198066185827 14.308279288828333 11.715856080893909
Ag 12.50603479751079 14.121403827345967 8.830218799931409
Ag 12.752666683118358 11.898353085073692 12.98219034693014
Ag 14.39727185954493 12.418286336684838 10.745079484271095
Ag 9.809947081856441 14.109875272117986 10.009715521581294
Ag 7.814761964486972 11.887414226355281 7.360222065064718
Ag 10.513522133233966 12.202817400973478 7.707843220294944
Ag 9.952297140577928 12.5475327077717 12.567718374813195
Ag 11.68385951090998 12.016305408239417 10.26500879083344
Ag 13.242902985644587 11.375611025450173 8.0986823122367
Ag 7.181541890762271 13.5947271506609 9.440512925997917
Ag 7.155252836257947 12.372804897793054 11.902803086839647
Ag 15.12002155281746 10.397764498229895 12.627517065428657
Ag 8.933714066863878 11.294626694734156 10.0178199777775
Ag 13.672015217139 10.595862286366541 15.176681341770152
Ag 13.544710712902093 9.752614561406785 10.367409472346356
Ag 14.742236925013026 7.662393747033779 11.627019558125626
Ag 10.848221051367451 9.94223426604928 11.695932162959075
Ag 6.2946729839516955 10.830896872176405 9.602630414568313
Ag 8.29699730427091 9.301661055606193 8.14993076503912
Ag 8.398813949341198 10.146676677537874 12.936918295787383
Ag 10.83202648104595 10.430982179051016 14.478972180607615
Ag 11.08592778339269 9.51731919842902 8.849827072847564
Ag 11.930582620184989 7.463289778965249 10.888274952175179
Ag 12.874491977930559 8.789908811019975 13.277162908607897
Ag 9.149648971442042 8.137757249339193 10.488065588089455
Ag 10.077124068622153 7.829959419404325 13.18238235162536
