29
Energy = -57.13192628 eV
Ag 12.238725894470925 10.619005541418222 12.537727699118275
Ag 10.962463684283525 13.522337297562949 15.779660942015115
Ag 9.652999416010388 9.857749990414373 11.45047469319188
Ag 14.988556959956679 11.421865125382384 12.771974126900608
Ag 7.678422002904483 11.712057709135541 12.104435223385241
Ag 12.45092008497402 13.169141422480129 11.32585201706868
Ag 16.839537930379443 10.524791446665 10.880869655406268
Ag 10.412164348791428 15.11422548955211 11.390640060611611
Ag 14.262871966648621 9.414640371147106 10.906047494682742
Ag 14.718960007012933 14.78128518116197 9.562211453383886
Ag 7.992651746541918 14.351644456551451 12.402888439751292
Ag 14.068913545250595 11.094335727260228 18.908483275854863
Ag 10.247654267873743 12.820050549640387 13.20056635692325
Ag 8.960168885751887 10.515430777125754 14.291945313906176
Ag 13.348008252498406 12.31266764736962 16.7161295508811
Ag 7.266590164093174 9.077277371953938 12.666535350251982
Ag 10.258291297841017 11.823884838017568 7.804186312423211
Ag 11.803187609139401 8.148069867065123 11.101195773426536
Ag 13.004363269018105 15.909025774583297 11.463892068827379
Ag 15.23065911149104 13.143322626214786 7.511751246975259
Ag 15.65856476516066 16.650520604477755 11.321999952348097
Ag 9.830940351254384 12.529855021174725 10.40927366980779
Ag 14.722494017498224 12.004025492945527 10.013728614229073
Ag 12.58174706598672 13.136922703735912 8.496646148348036
Ag 11.535219440385761 10.840053504565766 15.22288649470736
Ag 13.10195103081786 12.987445864809459 14.067934692501643
Ag 11.893020575851285 10.681167230982831 9.775753534558136
Ag 15.009711647826723 14.135734581013745 12.339879090307697
Ag 10.820813635186173 8.539703629866104 13.729445813200975
