25
Energy = -49.70848925 eV
Ag 13.160604062828291 12.990612070113716 6.59300834696102
Ag 10.910522968102283 8.907156280098924 11.760398098706666
Ag 13.013007063815824 5.780040610402753 9.66323858011097
Ag 13.011047294742761 13.364094007641421 9.307297756673764
Ag 13.205662310944035 10.675076586855134 8.048077220737783
Ag 12.970834861439627 8.5466746050874 9.884148124980467
Ag 11.964582410109417 11.101175901337857 10.51514865246019
Ag 12.73067495289361 13.286105891929443 12.087214738121249
Ag 11.381613414005535 11.19132200609322 13.404874042799708
Ag 13.017999913582535 12.881621938545603 14.733853649912497
Ag 12.155735138276185 7.25672489146277 7.508196129206687
Ag 10.699608652600059 9.445598697748714 8.294342584489192
Ag 10.48855162736644 6.969793191902528 9.760792868523135
Ag 9.233430487989205 9.453362919626203 13.878925679448587
Ag 10.775862308231085 12.2226432549911 7.848701369456037
Ag 10.426218992057331 13.514673794461865 10.469117819065783
Ag 8.744726349330229 7.1843397386317704 11.95869125326941
Ag 8.323198548770886 10.71319701527027 7.591506515490087
Ag 8.416700374920307 8.886543978126124 9.753925086248076
Ag 9.15613551016742 11.282043155714993 11.695043070097855
Ag 8.294209698714544 13.238009714117679 8.630706248732201
Ag 7.201188313324577 7.634997286150182 14.185253264701087
Ag 6.912505071679753 11.242697090908463 9.975180862973213
Ag 7.725182711604208 13.671912313714175 11.255192527893906
Ag 6.987950052437471 9.465162415814063 12.110271140035282
