22
Energy = -44.12543734 eV
Ag 11.915495006587602 10.085903972061164 13.700581923216289
Ag 13.070768320610787 11.531546440807965 11.599810996221896
Ag 10.237469218684247 8.27108695848145 12.267904997666458
Ag 11.649500243186047 7.636489683942985 9.406719364221775
Ag 9.05104200964176 10.0935777333362 14.044340259259105
Ag 13.034026058310724 8.572158920252098 11.671529873904369
Ag 10.37246990756396 12.061393357709882 12.533178793198324
Ag 13.578150749854602 9.769827581200282 9.238782321975123
Ag 11.733010823998749 13.91960793974416 11.035770657733798
Ag 7.348118545932437 8.258673191472997 12.494229883311823
Ag 8.752796816339051 7.8215894424592545 10.004592278900326
Ag 12.277924704809307 12.230617624382807 8.846934531765907
Ag 9.712687011233688 7.728656775811434 7.361018022225179
Ag 8.290591506850074 10.580272626349753 11.403544736142576
Ag 10.917724785751563 10.157349919010752 10.318724504436315
Ag 6.964692496459304 7.915807284754436 7.738896761163859
Ag 9.439994124681858 12.568895119637336 9.872909351787321
Ag 10.711914091017295 14.590904195760764 8.517297868832683
Ag 11.405255298962093 9.844732412663234 7.499485560112035
Ag 6.290065935318659 9.231108595025404 10.082303864187875
Ag 9.98614687169883 12.219917350361525 7.14611195294495
Ag 8.580494635451467 10.183457037245557 8.464503903328959
