22
Energy = -43.38750035 eV
Ag 12.612334495861283 7.872436656919048 11.556215289357786
Ag 11.988040299847151 9.30674180284282 9.331510305759537
Ag 13.3037303757996 9.877201369674362 13.346112000477243
Ag 10.024625842474043 7.661442805235975 10.382559256371236
Ag 11.822146129078575 9.502503842014088 6.634397664518497
Ag 10.82466219234924 10.01419246468634 11.834561327308897
Ag 13.448606405026348 11.099029253390949 10.851576093647626
Ag 8.147816896993337 9.788365459956665 10.53888762120738
Ag 13.206772434339191 11.198832546264773 15.736486683966108
Ag 12.402844814285144 11.810955408817545 8.221622700833992
Ag 9.52794425356677 9.490362597470888 8.176362760308908
Ag 14.956627785745676 13.26887350989953 11.684416359056037
Ag 8.376884469367939 10.761763189501357 13.184987873668065
Ag 12.819717520958323 12.62916561268663 13.29114909005798
Ag 5.9067826669175565 10.511097878037777 12.001276554837832
Ag 10.813506578106463 10.964247333500023 14.470441957329601
Ag 12.201471301318692 13.55279512117923 10.609683289470738
Ag 10.049395875503356 11.80863302928553 9.693476537462459
Ag 14.509862135521782 13.351292284725075 9.018503180916522
Ag 10.175268567990333 12.77824289400744 12.405926364272911
Ag 7.640379193324031 12.504745608348252 11.038377664042809
Ag 9.509421523957512 14.456387433332518 10.33371993863641
