21
Energy = -41.68102435 eV
Ag 10.820837492755036 13.11657704101816 6.989409194964209
Ag 13.570222213839907 12.065359533642841 10.983603513488083
Ag 13.721347443976738 9.653647534834427 9.552685145940606
Ag 9.101180832047994 13.33922666099901 9.115395219432687
Ag 9.318723885826033 10.900514034167992 7.618268487094868
Ag 11.576296057864234 11.504824309432411 9.142007368415284
Ag 11.281622073299786 13.737702481610032 10.811807768230187
Ag 11.48762388100718 8.994446342114232 7.920500667487459
Ag 11.090795465201182 11.28195314525251 12.093668679714662
Ag 13.350824420487143 9.596599220352699 12.396191918534033
Ag 8.7697164511283 12.83102853616702 11.821189880965171
Ag 11.317260098252383 8.80319632386273 10.69563248224865
Ag 9.063349938082016 8.117765316774305 6.922398953123272
Ag 6.836668303284623 9.755259190457105 7.742359014793995
Ag 7.395712464896624 11.315478997089988 10.003401389480503
Ag 10.213575370984028 6.691843614097477 9.149371368300592
Ag 10.862145924876321 8.863663582994626 13.492689844671572
Ag 8.718513278879866 8.936330664299541 9.601341027930449
Ag 8.555405065900883 10.01716106959853 12.238065905145211
Ag 9.20160417422857 7.265734084213122 11.777112444606914
Ag 8.354670594579078 8.07182487813137 14.269251370009663
