24
Energy = -47.99153128 eV
Ag 11.081475579140346 13.151329945046353 6.022740878999376
Ag 9.886060059465382 11.489252070583207 7.861225732574564
Ag 12.280531559601089 12.735824434729697 8.523787476034121
Ag 13.568594124432654 10.452361054720441 9.345643793717825
Ag 11.042662682156834 9.038979737639334 8.642412247877395
Ag 10.003707296325652 14.300655246751367 8.32023911487489
Ag 12.635295706353375 8.256325913619948 10.823171775083075
Ag 15.34428181130432 8.738754455965646 10.513636614919813
Ag 11.076194548241801 11.003896292395059 10.684492689847723
Ag 8.418595528021283 12.753825334201405 10.010232520864365
Ag 10.819709587013415 13.847418203203999 10.97135475132123
Ag 8.524102713800998 9.957561655635779 9.708589591695283
Ag 13.851107256397503 10.318422487019234 12.312375743950904
Ag 13.478461059407266 12.782301527887354 11.011025009934919
Ag 6.7321277790473655 11.112377386882821 11.531831793832067
Ag 9.912329867294583 7.927313695245339 11.020151392376988
Ag 11.74177253377217 12.365104660757503 13.202680522005727
Ag 9.03244151664877 12.338181060544157 12.695003985906496
Ag 7.063381473835345 8.120071481491609 11.06360990998072
Ag 11.349316723035273 9.281617357126585 13.090384751342754
Ag 14.456580453065438 12.706150088074594 13.624562791597558
Ag 8.598606386494946 9.586888170425937 12.874122831384398
Ag 10.057469188742397 10.911498463055722 14.927756463621781
Ag 12.855968347006604 10.634663057601736 15.02974139686009
