23
Energy = -46.12818433 eV
Ag 12.20272383185361 8.387557998935694 7.30738920558266
Ag 11.792322223814038 6.76609677384627 9.554478168035507
Ag 11.726666276284178 5.579126542594545 11.994351166191466
Ag 9.800619362978427 8.724700645537508 8.726791540360418
Ag 10.296637410020168 8.036149423598559 11.516914463187119
Ag 12.448178067830836 9.467777522817931 9.872894148680562
Ag 13.109641217565601 7.933071906092961 12.111662293749252
Ag 11.61889854439632 11.092626881247378 7.771123006712095
Ag 8.850253442977715 11.163064723761316 7.5800536424049145
Ag 9.971981512216585 11.016090919820687 10.228682587717651
Ag 7.886685362117844 9.347637595827418 11.015308951741204
Ag 9.10577007452211 9.588060633849436 13.51360143484212
Ag 7.181448670398474 11.725032283413663 9.712408920286133
Ag 12.707577195280534 12.268976847363188 10.143559564079322
Ag 14.316162054755791 10.50017712305189 11.749956242272214
Ag 11.650650722620187 10.361624343082994 12.46054399855891
Ag 13.072673585787495 12.749246778956277 12.915690279450185
Ag 8.243368815538124 11.942230928384644 12.308257155420092
Ag 7.771789848264756 13.767825928048255 7.8207795698533795
Ag 10.395947609534343 13.413504467959894 8.799400026710366
Ag 10.663818854775409 13.405501474956441 11.712072105129236
Ag 8.336382229710411 14.180955696252555 10.499602503825997
Ag 10.415857178913212 12.077738610910776 14.159251572185628
