26
Energy = -53.0927554 eV
Ag 12.377404688073993 12.748521821015581 11.793305421465993
Ag 14.391242239829975 10.77554900052924 11.771715724201242
Ag 13.317434331527396 11.636291707843041 9.236417175931892
Ag 9.875236614756433 14.075014229434634 11.487454007478396
Ag 10.189467227850388 12.139303404473829 13.50322666037225
Ag 13.951417231265268 11.466403559486924 6.579706535330938
Ag 11.993777638806987 10.158386974039203 12.98798093335442
Ag 12.909603761299634 8.990718251096217 10.256292129756794
Ag 13.82330281429488 8.138989358467073 12.761387092621147
Ag 11.577058997308665 13.841465218813875 9.320454602719128
Ag 7.546234527783049 11.265847435984044 14.253465371148797
Ag 8.207693069012327 13.964179721157043 13.772059200054906
Ag 10.720522332909956 10.890883658023334 10.474045116277203
Ag 11.117655865396342 7.649555013315615 11.991509465125052
Ag 7.967000305642866 12.032890976693709 11.623447844735317
Ag 11.317454068268525 12.048692892728115 7.232512043961465
Ag 9.093677899085607 12.442938137046003 8.97439473252245
Ag 9.249675136056855 9.619333636935728 12.63736470406719
Ag 10.43909765180931 8.185520242676144 9.331004126551319
Ag 12.295108963112055 9.444106825938784 7.512637611616307
Ag 6.588079014101847 9.381096815368457 12.328430192883173
Ag 8.018872485278013 9.906559275720689 9.864042499121854
Ag 9.468520529017107 10.054314182561514 7.429772260568312
Ag 8.054207755774224 7.613624131219687 8.119118772825997
Ag 8.278407910491644 7.443298136230872 11.089586569854042
Ag 10.440626504750915 7.543061503378605 6.630028358806401
