23
Energy = -45.69395906 eV
Ag 14.094475014017734 10.049084359969363 14.547247554329788
Ag 13.659006005392971 10.027099789811356 9.037234306022343
Ag 13.710489341176704 12.480736666325113 10.546016052324871
Ag 14.265226875672564 10.066466230834855 11.780746937165285
Ag 12.480060478394677 10.449160947434612 6.437200854287814
Ag 12.108717855224091 8.81467730953236 13.083524816334792
Ag 10.93357455728325 9.303874398340243 8.399148960052992
Ag 12.340859146560437 11.830809316891754 13.318503314907796
Ag 11.805112428677035 12.18803646634047 8.478386447721487
Ag 11.62233336365472 10.61314212073799 10.869686742968996
Ag 11.092697498904991 13.37521539533257 10.896184152667377
Ag 11.7648063685316 13.662746531015562 15.278036760537029
Ag 9.775531498209888 11.33718078361601 6.740805676199042
Ag 9.458184530249774 7.602795924306022 13.256490495939302
Ag 9.127106632547681 13.130711908336604 8.83438167429914
Ag 9.889454601778255 13.230982768393845 13.380931267044192
Ag 10.623049407956398 8.037214521637669 10.844622055821247
Ag 9.789675258252549 10.37567032695515 13.022016890101884
Ag 8.34303599592498 10.47864573612176 8.928728403189156
Ag 8.71510472119019 14.702885216352044 11.21013867304039
Ag 8.662953468119422 7.7128659084349085 8.960659455703937
Ag 8.407753840951857 11.965157431670871 11.28762751163976
Ag 7.984473802473312 9.126526963069088 11.33044431674544
