23
Energy = -45.89791425 eV
Ag 8.738201034451277 12.070358968574915 6.266232545895832
Ag 13.199769922770747 13.55475242606745 8.458358606757564
Ag 8.12322047804717 14.2998740885488 7.92339829473336
Ag 7.880248824938274 11.666802366294203 8.877043506230292
Ag 10.531555737659152 12.99164993701764 8.171937427389908
Ag 11.684440339975971 13.456658378203164 10.744947858309006
Ag 8.936038315275244 13.695528305837433 10.523686044628063
Ag 9.928496931677813 10.08354925411444 7.834881052827202
Ag 12.421863959930295 10.945431072856428 8.796026174240025
Ag 9.76812620599076 7.230938821685001 11.740248289713474
Ag 14.10576617839443 12.039202684651226 10.766776535306564
Ag 13.267003056597455 8.349562852131529 14.94581504808494
Ag 8.584593240761567 9.262897440908569 10.20960286685337
Ag 11.24677028843267 8.644378814104602 9.818693943371217
Ag 14.095765857630822 10.209044091152778 13.036208821666978
Ag 10.073075261587334 12.207835827778444 12.658836204949242
Ag 12.752769262195624 12.641520952639128 13.147596097073835
Ag 13.89567221345449 9.268216839062603 10.404039342931354
Ag 7.6346772945371555 11.43562598207154 11.62938898077443
Ag 9.134675973889596 9.588671829056391 13.016088569918557
Ag 11.50852798535304 10.346567857486411 14.227196059375961
Ag 12.31985559291636 8.108152656338223 12.381652573764688
Ag 10.578250089380226 7.6110405879857534 14.48862721802069
