23
Energy = -46.10256422 eV
Ag 12.654275245588822 8.320039561959048 10.492143952912718
Ag 12.764447659044032 9.959783837152186 12.88383829710693
Ag 10.54879120532425 8.143706343699739 12.51186328269413
Ag 13.486007305457377 11.208106265164359 10.392005166650971
Ag 11.180273151150812 5.963971108879327 10.85624502850525
Ag 11.988381224780753 9.972243626948222 8.28864891796727
Ag 10.773130444810619 7.488675783521014 8.51245299780859
Ag 13.233046067689457 12.392380339524463 7.741374447932869
Ag 10.845494739660479 10.410766045435437 10.902775668613762
Ag 10.14432651238876 10.925205359276601 13.581706450204726
Ag 12.010500132065713 12.692566313977858 12.345841041000028
Ag 8.786471066648177 7.358912357490678 10.412572917067779
Ag 7.417292129861149 11.883953622964034 13.284736699105881
Ag 11.273449209690195 12.870529123832092 9.550067622099146
Ag 9.972522870397862 9.176400305682611 6.387681293669155
Ag 8.06916089255818 7.45650428483644 7.674857105049052
Ag 10.505452142218546 11.846819096845971 6.952831204448303
Ag 8.236518031760875 9.65235802642268 11.863379035385167
Ag 8.975448844510803 9.953501951348088 8.874668990299298
Ag 9.253854751554112 12.684339389901648 11.460824108775492
Ag 6.530352959636873 8.867400380891857 9.657936362554244
Ag 8.593571262775908 12.822889664070594 8.748106884228378
Ag 6.803938735724218 11.512247051983662 10.461743053869304
