26
Energy = -53.73126417 eV
Ag 7.304189810161195 13.604254625896093 12.025156132773166
Ag 8.634875630598495 11.27158775699343 12.752984981363873
Ag 6.844429870682314 11.256522085879812 10.463096459418633
Ag 10.211542920813944 9.00198607438386 13.507919748953086
Ag 12.74089735204532 9.577122269786301 14.982681880454335
Ag 8.27213990119105 8.883644491434046 11.181433208265824
Ag 9.986966928749025 13.87923817021083 12.851872903943638
Ag 6.692521175493003 8.887577976222204 8.872788128882906
Ag 12.776540300367786 14.016015231910751 13.5462834194635
Ag 9.278597956947387 12.762973573232017 10.314872800440739
Ag 14.043167904004289 11.336998035883802 13.291893701838253
Ag 11.324740186663144 11.576703259076705 13.651919469166453
Ag 8.779470587205298 10.647832557143953 8.54610881641715
Ag 8.206027238023466 8.90957755997772 6.490994581073877
Ag 9.371355601147334 7.801001909326845 8.827779611526118
Ag 10.636979874848564 7.35029808243747 11.280579502859705
Ag 10.698720826900546 10.352987626195764 11.033464122085265
Ag 12.765897017971787 8.873115261175471 12.29771180557443
Ag 11.320079062621245 11.813672964854627 8.648586594192563
Ag 12.002192041418123 13.023901046894187 11.102866516232936
Ag 14.71155253780123 13.356278295608838 11.546719074463624
Ag 10.871734019226913 9.507071111459744 7.050944976910122
Ag 13.726132341131986 10.795648802691426 10.487687783130726
Ag 12.220355141861775 8.669718119124601 9.406339248397536
Ag 13.488612776096444 10.46807669497043 7.642839920141869
Ag 13.814889336900032 13.054990582625486 8.86979853951415
