22
Energy = -43.63519591 eV
Ag 11.594461033457597 8.268594317810228 6.970679079915726
Ag 12.139609441662925 11.3995445836767 7.321526967972554
Ag 13.634238938778612 9.730388556923057 8.965146475052515
Ag 9.610793928103094 10.680047852691269 6.616388861594615
Ag 12.506432256962183 7.393589926320292 9.886689538452181
Ag 8.51902839097667 8.312781916752177 7.49074022914738
Ag 9.982042005407873 6.664398703016109 9.175187791333231
Ag 10.677355570222794 9.551426325735 9.112755724478905
Ag 12.305385924136989 11.971179471864257 10.080883771271274
Ag 12.541279114757629 9.647506835136966 11.573565962801926
Ag 9.959067458269347 12.585017650733004 8.653333057413994
Ag 10.372565541247837 13.69596612003157 11.205783478889998
Ag 11.859420082942446 12.059320844055097 12.88035204233151
Ag 10.404984372723343 7.7837268008601574 11.719070983792426
Ag 9.692856644231295 10.822530476222784 11.25119949664614
Ag 7.815258964627026 10.725773477186292 8.78856717951794
Ag 8.060577927043699 8.406156335069381 10.286790789139792
Ag 7.850245227058407 12.984242526825195 10.46992394684687
Ag 8.754085892166723 12.085413458054308 13.395508956299052
Ag 10.758380443335946 9.69633358190755 13.753291102649506
Ag 8.230325715540644 8.978289319350994 13.046783778770811
Ag 6.7375547910392894 10.648818102286112 11.405365437613082
