24
Energy = -48.52156563 eV
Ag 13.64090844465509 8.78305361627589 12.242747076456382
Ag 12.23455859710748 10.8273537527804 10.828776864184587
Ag 10.828174956896397 12.936999084687322 9.31467055497589
Ag 13.640888675573239 12.871086498264118 12.242814965078942
Ag 10.828361548465518 8.718780935710312 9.315080597746155
Ag 12.204668882613294 6.783406205877608 10.827611439224837
Ag 13.643064838903687 12.87163666692945 9.416262510504135
Ag 13.643088397467025 8.783066456513065 9.415601823494741
Ag 10.826317954007786 12.937909276100624 12.341099426454143
Ag 10.826511013326568 8.717108358350409 12.340537445880441
Ag 12.229545830281587 10.827886490028407 7.952854565083114
Ag 15.010252435118645 10.82687440299318 10.829612395503615
Ag 9.419978848381122 10.827299310815278 10.825781255008279
Ag 12.224714723894738 10.827348878105454 13.704481193120632
Ag 9.424856312454143 10.827254151206139 13.700388982485993
Ag 8.011880063804936 12.872117285035575 12.238430787469502
Ag 8.012256812931057 8.781671917167277 12.238378996724325
Ag 12.204451934944377 14.871526409731935 10.828218762078617
Ag 9.42942353504788 10.827696880084863 7.9503073010788174
Ag 9.450217610081193 14.871706185152412 10.825925943310951
Ag 8.012928993691279 12.871162975051325 9.412243157379088
Ag 6.64451109614256 10.826589024514028 10.82658355646339
Ag 8.013298491963319 8.783051475255578 9.411710554602474
Ag 9.450700047136252 6.782973718479905 10.825439935469568
