24
Energy = -48.75957989 eV
Ag 11.891605624569289 12.978067786409158 8.112295257312635
Ag 9.414033532188336 13.008024841370887 9.556763693099109
Ag 14.359177514465342 12.831033189661916 9.415947525359348
Ag 12.934406445076654 10.484625211082076 9.039261616052244
Ag 9.433673106242656 12.957759180157222 6.798583794646882
Ag 12.016888603298328 13.362563092216881 10.913715687363297
Ag 9.466530208196312 13.20103103291755 12.27925643564945
Ag 10.252737527612823 10.626536874460033 8.150093801319999
Ag 15.593715565670607 10.270718374637772 9.738577372141515
Ag 13.778245145034974 11.23915095090077 11.749831473153584
Ag 11.802743017164524 12.106807962938161 13.507075591328526
Ag 7.5391305408519 11.276091914361066 8.324045935546343
Ag 10.768311425852769 10.872944239877379 11.00653553330696
Ag 9.578805742307955 12.963691270408757 15.003212537267299
Ag 7.861127824997634 11.053252554281261 11.14840328067257
Ag 13.719601783715296 8.551391784060993 10.962586565297418
Ag 11.176666367719907 8.35985760958171 9.612040321883311
Ag 7.0906830979203415 12.268976283863498 13.553933400591122
Ag 8.380353799387294 8.87207819016686 9.384148803776464
Ag 11.934096815382455 9.32265475699128 13.005337334734122
Ag 9.341863563165635 10.614395225020727 13.578052470817047
Ag 9.439209670702281 8.419229262252452 11.980256298338077
Ag 11.74116189628255 6.7691053786849995 11.854866611218302
Ag 9.305872652041609 6.359831261101522 10.158222435315476
