21
Energy = -42.35327324 eV
Ag 7.788660559541096 13.480875358046514 7.931214645216257
Ag 7.66657143393294 10.552840822220935 7.786262722744697
Ag 7.884921545736248 11.956854189050635 10.234697048871517
Ag 9.73281325028537 14.103107850456645 10.002942283082515
Ag 10.055761164130832 11.988563471091307 8.261146226137788
Ag 7.8984244630755205 7.61365944835302 7.916450633503933
Ag 8.072406430936498 9.147487756356485 10.17075035240279
Ag 10.151808026692219 9.226435837622295 7.546139975669695
Ag 7.812734323833369 10.467239895803184 12.592224428488988
Ag 10.015910031885381 12.148384898839847 12.01897772983824
Ag 10.93643139718303 10.01717656461097 10.107157435572407
Ag 12.148345366608048 12.524937640313446 10.199543096336132
Ag 10.114742710746214 7.302969475986373 9.677472009333062
Ag 12.276220569510127 10.600825415549519 12.531231427769864
Ag 9.760868296262464 8.470865992831484 12.284184545105367
Ag 12.561005814913168 10.928654253046746 7.84892340894271
Ag 10.054246553330064 10.45580390071518 14.265973378934389
Ag 12.605906112237932 8.203669057873567 8.574658537167423
Ag 13.860820544743502 10.224995296124275 10.202173140141909
Ag 12.407855433954383 7.969007922138218 11.382931884923698
Ag 11.825043488503722 8.259664428759118 14.112414414243583
