20
Energy = -40.18301849 eV
Ag 12.939119086693566 8.547259946845232 9.473968440444295
Ag 11.504919331442677 6.242371405135204 10.226288152668381
Ag 13.57287258016366 11.344567248150208 8.659135105853375
Ag 10.272059639672966 7.982110535222878 8.450730844952899
Ag 11.110314960308154 12.504565255760754 7.371899926677331
Ag 11.07534101158808 10.508944345319104 9.205861177695828
Ag 9.02876547412497 10.40464099385061 7.381291254666626
Ag 12.82317586903824 10.719385658636627 11.400388368519868
Ag 7.442873412240804 8.244520241294719 8.332451333934378
Ag 10.934204132529498 8.625199945733552 11.545163326635135
Ag 11.75109098899809 13.066614727864934 10.136463364945296
Ag 12.013219377558377 12.897238628086422 13.0333711889138
Ag 9.993993287411737 11.606924644531983 11.806552295761884
Ag 8.80726773600598 7.021481896533157 10.715452630299156
Ag 11.292792997119944 10.245303700413988 13.82501569192521
Ag 6.607538107089309 11.065628764187402 8.796588740400086
Ag 8.984989871004105 12.493717844655029 9.320071710857322
Ag 8.556438754992074 9.745174687827502 10.24828862003417
Ag 7.232362316666189 11.725238929650551 11.609260382777327
Ag 8.643882271145703 9.514282462003488 13.018452449236001
