29
Energy = -59.06762196 eV
Ag 17.132188371612838 10.810751346283896 13.399058226752729
Ag 17.089667542352284 11.861586129977322 10.842398294704267
Ag 14.780784618409239 9.812877667549447 14.309532951270478
Ag 14.85367050932733 12.216567767686882 12.581945062305282
Ag 14.224463506014496 7.254431821092616 15.129272957245924
Ag 12.393353690651386 16.841509444351402 13.113911713423564
Ag 15.462269519121977 9.648320285796006 11.431053767386521
Ag 12.538230674960433 11.490585834283742 13.964328402070315
Ag 12.713028754193171 14.129468334854536 13.122188737708324
Ag 12.065657082670805 8.907880042287799 14.851074222855035
Ag 13.476064969185432 8.056866826274433 12.550820044813742
Ag 12.259108908743057 15.493481455838559 10.724982087819669
Ag 14.690198182538952 11.701092503354836 9.532178986488256
Ag 12.548283056794938 13.75882390310597 8.635951629108556
Ag 10.293813017942869 12.639426394081 12.78895777087151
Ag 12.456453287457844 12.280140327880087 11.0289783619148
Ag 7.950265352328115 12.628414849767056 14.273275062132846
Ag 10.070227661898588 15.386426745328762 12.608717497526232
Ag 9.831727195799512 10.599425665656364 14.663277629719746
Ag 7.566454482013203 15.380772288400431 13.846844082532922
Ag 11.013434315674166 9.667420908387845 12.3221826393113
Ag 12.936505325111602 9.514793195430991 10.3032634860522
Ag 10.112442132311394 13.841467021655543 10.087816675462129
Ag 12.338859204983544 11.056035270827696 8.133184088553566
Ag 8.310658176016801 10.872486265373912 12.030128189943891
Ag 7.833324519939929 13.749353714388814 11.698154627792265
Ag 10.031505343731936 12.522082421023667 7.661477043308593
Ag 10.243989236168009 10.787579462636835 9.943884486141446
Ag 7.895824211880022 12.18261042338165 9.449839601319887
