27
Energy = -55.11890603 eV
Ag 15.424563717521474 8.716264682832985 11.154397534569506
Ag 14.83574814146471 11.08470832850484 9.92450720622365
Ag 12.966821689830974 11.665867384894687 7.9177968245443235
Ag 13.079618979869187 8.993036093346296 9.199034017969966
Ag 10.220071714946602 8.77718699403598 8.46203469860905
Ag 11.173214948047974 10.964499901058348 9.9137871918603
Ag 13.73748297445904 13.604021831627922 9.853876661596166
Ag 13.098491391175802 9.969716437189176 11.83151928755708
Ag 10.279010291832082 11.339157564218532 7.223037238395443
Ag 7.844558389256688 9.92661537326789 7.665007749093212
Ag 10.944667233595121 8.240836204841782 11.074638805598457
Ag 14.611627805866533 12.339482219414963 12.500485183975057
Ag 14.931619419979553 9.754403593151553 13.801632732631615
Ag 10.45075642380149 10.638974380282907 12.609779288682113
Ag 10.980901614214767 13.547355420585564 9.016389232480796
Ag 11.761893078628658 8.531343736337739 13.81589074528019
Ag 12.599044297384747 11.292923150790884 14.292280114978569
Ag 8.253412327071048 12.451260245842821 8.699369566720923
Ag 11.970006963386483 12.955544366344695 11.824924730817404
Ag 8.866755906193404 8.462338330026274 12.922810089203862
Ag 8.396193594290216 10.045876765082278 10.446487243935973
Ag 9.267914744222454 12.908933649044636 11.245554879085258
Ag 12.92139627431409 14.001754094591684 14.20871965203846
Ag 6.555576359449003 12.414522726729288 10.869660137416297
Ag 10.17932906214672 13.118016271064645 13.971504368978362
Ag 7.532336167960712 13.83451643196602 13.206733774307091
Ag 7.800480606202438 11.104337940037594 13.031635160562729
