22
Energy = -44.31631077 eV
Ag 12.66198459633658 8.667169502610395 10.446436500119393
Ag 10.502502507732565 10.335343246804504 11.323005342548017
Ag 15.526831941038541 12.379296382949459 10.931124417437628
Ag 12.475098656383887 9.615454056607382 13.267820119132102
Ag 14.976296075507863 9.772265740983205 11.750627486831707
Ag 10.516576898445665 7.740321989413423 12.18284669311448
Ag 14.06708197953304 12.085374863961544 13.535184320309574
Ag 9.748072823220136 9.913275849394346 13.953150250147013
Ag 7.947866667566841 9.36278882839326 11.493910153136962
Ag 8.507916982520905 12.00884739255524 12.36056335416525
Ag 8.721587285319478 11.159084387585807 9.338340099672621
Ag 7.960608171313806 13.738169474802039 10.230615696486941
Ag 9.979557254989405 8.469079702758657 9.363497784881204
Ag 6.271091684357045 11.490586344276895 10.714944688478464
Ag 10.690456855824756 13.021245269997037 10.152294474665027
Ag 11.527289027532126 10.735680646070309 8.656256324439616
Ag 12.945572213343652 11.492640194862593 11.116672372174822
Ag 14.344265511166036 10.466346894556574 8.955933325741789
Ag 11.22439172002721 12.25147059025377 13.4450768576927
Ag 13.315874031322124 13.145750872259308 9.007840552752292
Ag 9.84126382852155 14.463511024855405 12.338327747556916
Ag 12.678030287997284 14.116513744049186 11.86574843851534
