27
Energy = -55.45343935 eV
Ag 12.614733784410005 13.37148667830531 11.832992302385048
Ag 13.70135895280344 8.497935968265194 13.488882824267135
Ag 14.24977756151111 11.498608315714977 13.871396498520708
Ag 12.206304569800983 10.086841858335092 15.229792305655359
Ag 11.663639063362606 12.687563601614334 14.351085850409861
Ag 13.480074243833176 11.654971303796685 9.889216794584735
Ag 14.223876830998353 9.165850493884314 10.793903888293205
Ag 13.336219206908403 14.308973581160226 9.16052302044915
Ag 9.770588534067214 13.100810825593541 12.259656145473825
Ag 12.252454171238863 10.575148714399878 12.321478387535752
Ag 9.787602532142188 10.702867404838983 13.840025124310934
Ag 10.865912374190769 8.034915643698307 13.884855563228447
Ag 10.767027189083063 13.52095461226554 9.671040666433292
Ag 9.814938729676147 6.197583026316672 11.93385642791003
Ag 11.8370023616673 7.9303181379652825 11.295711918291426
Ag 10.121270007682746 10.809781289276373 10.604588269304285
Ag 11.416646936418738 14.782378471075775 7.222405903720236
Ag 12.082779660895811 9.501912686000692 8.927634560467537
Ag 9.29229603162571 13.050718792055905 7.215122469479616
Ag 7.619336264585123 11.307824118715834 12.167251977665948
Ag 8.101692685912992 12.701690476645018 9.782150804282137
Ag 8.831064730875037 8.750546299884373 12.075944958910643
Ag 11.923518696129483 11.997221629373824 7.581991547310367
Ag 9.715663450612746 8.014829811719714 9.517788020577582
Ag 9.623620102016796 10.336608765898404 7.813162727018115
Ag 7.562233639040671 9.87348027982865 9.707231880963368
Ag 7.045852706454898 11.445662231315197 7.467794180495678
