33
Energy = -66.69568955 eV
Ag 6.921089075407254 13.96445441558505 10.634470727389015
Ag 14.28445483090251 10.40210401116093 13.596211666761667
Ag 13.438525532245107 11.598725996845614 6.772698352565544
Ag 12.255513219302497 9.557773324566526 11.534739108645716
Ag 9.27076897724795 14.226879846716294 11.943448894157537
Ag 13.067005092447024 12.844912258288591 14.219874255434158
Ag 10.127121064369307 13.002503007138184 14.387777543095197
Ag 9.679701194436918 9.37001922523118 12.733758247206685
Ag 11.751852425150012 14.161314602458111 10.206720269550662
Ag 11.881633002062479 14.996526695533827 15.631980566608098
Ag 14.324734074715375 15.345287054245409 14.019298711919395
Ag 9.41382179494175 15.722309557809066 14.30512464637897
Ag 14.33301320357025 14.71198104802188 11.300392815570072
Ag 11.783982927693556 15.001630537714519 12.84676639200539
Ag 11.524166771165543 10.485819971605128 14.388195292891705
Ag 11.378230941939709 13.28715314602523 7.53986425103311
Ag 18.37074024255239 12.831382871850467 13.058387526326806
Ag 7.5386483149707 8.936772853054915 11.035712296295085
Ag 15.525581942566383 8.141021176012712 14.42825298706757
Ag 15.673646575145206 12.814034203867049 13.200181545307448
Ag 10.898331735252063 11.968747636552983 11.906138627556539
Ag 14.051104850604428 13.27367085075866 8.868797287368409
Ag 12.822391964834676 8.057924536461169 13.772706849387314
Ag 8.06692131772581 11.614434395182034 11.67439655030552
Ag 12.114169600677911 11.23424665803301 9.211431429450272
Ag 7.320607073063469 16.030732487785116 12.508292560063236
Ag 9.809815424641789 10.023746206144168 9.993678964473547
Ag 17.121444216429857 10.545612987999236 13.946629655528758
Ag 13.726566909111126 12.009587454199464 11.377036071100807
Ag 9.362549551942568 12.851879101162814 9.437152383438518
Ag 16.78687223984284 15.185321227365044 12.542727511201258
Ag 11.664783057571983 12.287579294963306 16.568288391050512
Ag 18.016820413695328 8.452893623787048 15.371726507183975
