38
Energy = -81.48039141 eV
Ag 15.245799096454085 11.207609284445708 9.564026668988816
Ag 15.268017738654294 9.449806916467415 11.826212419313542
Ag 13.922437825144607 12.786011953480024 7.539695076924587
Ag 14.516923809333706 8.4783428613759 9.289804207455372
Ag 14.816170600194473 12.327524863451194 12.199737494033041
Ag 14.261536394142652 14.009796971064496 10.061225399511642
Ag 12.926974130673083 10.224831042151706 7.832552442678341
Ag 15.00252000861318 10.592346239204753 14.501563581918994
Ag 12.937756176041718 7.825645392959958 11.459861518065901
Ag 13.800433239248742 8.094630834672335 14.15272979335338
Ag 12.801634379552969 10.382449860834585 12.724351349656374
Ag 11.696657216838862 13.886874559439999 8.761139373823125
Ag 12.632521610548299 11.6478451932882 10.251680175733153
Ag 11.316740983333597 12.269127968547165 6.530835994800662
Ag 10.714661394612616 9.680619490956051 10.921521077619682
Ag 13.239160153939416 12.7739676088509 14.496273857085983
Ag 12.151910627328679 10.089400262520844 15.388169599920566
Ag 12.421668093364039 16.17310058719432 10.206405568807043
Ag 11.682990877004135 7.956358927441447 8.887072377209355
Ag 10.073065413829987 12.434312403172289 10.789912701785344
Ag 10.989790300879315 8.29167582669325 13.534443908952364
Ag 12.216738391106123 13.980612626490228 12.028727829109778
Ag 11.06489710597452 12.468792239499908 16.34784437081576
Ag 11.094265698748064 14.651882239607668 14.616446160367605
Ag 10.150165856145065 10.30589052551266 8.16665743366563
Ag 9.71358384119165 15.194630318952566 10.180352964110387
Ag 10.719192820955746 12.003357049299028 13.513942493298305
Ag 10.81121061756978 16.455298984633714 12.452572643703855
Ag 9.098920050157924 12.90558718062768 8.222552311973045
Ag 10.290421585234826 6.875869577331047 11.235876568603704
Ag 8.812516060819831 8.112910128377182 9.279700386399098
Ag 8.420767386803176 8.789273385971805 12.276425338176388
Ag 9.034182846064198 14.26396133487221 12.73982827803582
Ag 9.242293057356513 10.036623221545728 14.782839189234409
Ag 7.978461959921105 10.667489207286843 9.977436453064053
Ag 8.596477423608448 12.857958884939517 15.150794140325562
Ag 7.458251301683872 13.392179367865028 10.525972629329003
Ag 7.975125791110802 11.55224654315796 12.67965808633425
