31
Energy = -64.79030103 eV
Ag 13.884969270218473 10.3434832141414 14.04027880132602
Ag 12.855803193801695 12.790920993131847 14.725638763425572
Ag 11.518852480507158 8.944409682644139 14.673517199213455
Ag 10.388007803615976 11.494701413971708 14.342035940260972
Ag 14.570146190039232 9.853807352456988 11.275402888183336
Ag 10.585865636419541 14.317616818221587 14.490624448208857
Ag 9.077919186220294 10.965523697869033 11.727618245428017
Ag 11.81509759311925 10.216067264626588 12.074796825493664
Ag 13.785172347341755 12.403608556989411 12.101237885997643
Ag 8.848969892618596 9.17820024054774 13.836617707215373
Ag 12.810615673620108 14.916400798883211 12.808823002534526
Ag 10.609456651701292 7.616465406971195 12.34082443586788
Ag 13.358235640843784 7.842648311488613 12.80100798635847
Ag 10.886351667435825 13.073739348610781 11.880204258396052
Ag 8.397154975753732 13.210847049005476 13.195608204782
Ag 10.176750769060291 6.646253742525617 9.804632314278779
Ag 12.662236432465027 8.205137498233656 9.95730558999787
Ag 8.192646950652025 8.349728628947801 11.157400190215892
Ag 12.812170267806698 11.269734893473622 9.649576991018048
Ag 7.935092402652506 13.171481374011686 10.429737820553163
Ag 12.756260419261592 14.093509171910686 10.096838418202804
Ag 10.304914517202864 9.56478326521409 9.606220367985253
Ag 8.191015632408517 8.00670802807011 8.356000767421664
Ag 10.276356095069227 12.397548518725925 9.052672454209512
Ag 7.58242116748782 10.568868586128792 9.383499895020835
Ag 10.986370051323634 7.930419318497391 7.473680119543189
Ag 11.811652157706655 10.52441301545981 7.173761026767126
Ag 12.531485849334377 13.189266568117072 7.513791210426767
Ag 7.830984631408787 12.730432653625456 7.639635662791867
Ag 9.06600928846634 10.227241095320727 6.960065774633469
Ag 10.182929401096855 12.60375925845711 6.10951156211936
