37
Energy = -78.66713116 eV
Ag 10.969903524283456 16.26922271560891 15.935811299854144
Ag 11.48776663630662 16.376337841337122 10.310563325715924
Ag 11.080132636762343 16.2456418410172 13.128122355714192
Ag 9.774904821690944 14.222753960171122 14.416055863257625
Ag 10.185937459167004 14.221425430692182 8.675834911561093
Ag 12.418840648487164 13.918890799321476 15.673824662625236
Ag 13.461095023666193 16.31984961031566 14.60382211164392
Ag 10.017111147852281 14.292777962558857 11.432497460978137
Ag 13.634852274399561 15.429781567460047 11.942216054314141
Ag 12.733391809337194 13.944904026721595 9.7797229871025
Ag 12.167452573856117 13.117226589536157 12.925173311528537
Ag 9.110843770841177 12.069893933898763 12.734101503539074
Ag 8.038708288649625 12.14589776720962 15.269927993639955
Ag 9.183880163353814 11.969301767198711 7.278502513588885
Ag 8.5823402927237 12.1219423451875 9.955882961208744
Ag 11.196527587182546 11.599786282544066 10.769273177201642
Ag 11.929102296108528 12.046378654567816 7.848161337169319
Ag 10.7870004476023 11.702878631359056 15.133377771508796
Ag 14.883613206391976 13.047024088536377 11.303217674113826
Ag 9.04393039536292 9.649252817517285 11.303042207557754
Ag 14.767256250710055 13.807963086313157 14.059907900107424
Ag 10.295834926187977 9.888892640022268 8.76511091268125
Ag 8.963814013327909 9.692634441335159 14.22001618786353
Ag 14.674353905508635 12.315070977762863 8.579368257025532
Ag 11.801666721676218 9.330900859405904 14.028809021422733
Ag 15.890585704243373 10.571497817140736 10.43290821654252
Ag 13.5692899275249 11.408609142491388 14.920080550055811
Ag 10.009756642186074 7.480589663625018 12.911898599427106
Ag 13.461555476007653 10.676528853797802 12.111081150917459
Ag 15.959124924903092 11.310745585834509 13.332674272137107
Ag 11.659759879002355 8.638607966175158 10.99910191031615
Ag 13.278107597964796 10.062002709461337 9.264532688229336
Ag 14.633490212003679 8.867247642380208 14.003398476083818
Ag 12.79469355617474 6.9632146328672455 12.952757104964913
Ag 16.916181486610625 8.821680474756425 12.400973277339185
Ag 14.508985079005795 8.231630806642961 11.129965315941641
Ag 12.96403889237424 18.05684426666641 12.304114874558582
