37
Energy = -78.72365534 eV
Ag 7.706029595239303 13.726772595141314 14.614975309196858
Ag 6.965219948218794 11.384232883948357 13.37004373915946
Ag 8.166087275223743 13.51657018014036 11.740395434289866
Ag 9.91971065728466 15.04818789826029 13.466399321930634
Ag 10.002880197012157 15.306441091165462 10.516963472429914
Ag 8.309257856046129 11.181739860723546 15.810783418226846
Ag 8.534427497937084 10.66810207205737 11.240437716672485
Ag 10.217968876659016 13.42129433540647 15.921406064202912
Ag 12.322614942914527 16.023629906180346 12.174395369918637
Ag 9.785688258479997 12.63671852222813 9.60539465315742
Ag 9.77188600887289 12.033207103509525 13.529176306519547
Ag 12.102613539753001 16.87252879621866 9.481675717533289
Ag 9.406896900265014 9.330230099139753 13.671196318186263
Ag 11.559677525580842 14.388525071658506 8.314243806615846
Ag 10.021751143363236 9.911300300989447 9.046319809891745
Ag 12.470670945099455 14.4802563803412 14.504416064431506
Ag 11.538067732973563 13.362559379578578 11.843574809877095
Ag 10.976076112005465 10.544320878126157 15.761851027490891
Ag 12.722855808353184 11.645594416643474 13.767091476061713
Ag 13.686311003104052 14.69884918735015 10.128902433547951
Ag 11.292920447572227 11.798408007579816 7.379148691672085
Ag 11.28073485709552 10.365715219378728 11.605045905261676
Ag 12.278719879889065 8.839823865972845 13.824248266092006
Ag 13.828484469267366 12.593699592641569 8.281716574113743
Ag 14.543362775234955 13.960093290819064 12.704088323599349
Ag 13.709730132493892 10.033198254525118 16.104478865808634
Ag 13.686437628061325 11.855135159371025 11.04565716942158
Ag 12.82188086196379 12.634152535573902 16.504713143286835
Ag 12.7606993003053 10.079081773727705 9.03454700046395
Ag 15.176208210540736 12.290083324980976 14.942380473182748
Ag 15.093725096003345 9.683643802497182 13.80127082586218
Ag 13.81784198616369 9.006651093382791 11.426342706190974
Ag 16.02903329666356 13.203728748928109 10.138121904013026
Ag 15.501229590393377 10.460165429386684 9.448612666147966
Ag 16.431534694784453 11.800260742177906 12.521119897460789
Ag 16.66350169279598 9.14873549218259 11.622016426712946
Ag 18.049424416013103 11.218523867694536 10.259010050996922
