35
Energy = -72.89837637 eV
Ag 13.580742043208554 12.79384938253674 7.357122761646846
Ag 11.400632214997371 11.179747612067173 7.980260598633114
Ag 12.129706614373307 6.391020257140994 10.702139980302215
Ag 9.022408938225835 12.577183437533712 8.253291761694207
Ag 13.96766117880993 10.383198611730405 8.75595818392901
Ag 11.757250966073146 8.719135709224387 9.189433872662772
Ag 9.35844871248029 10.14396191439106 9.59919854799631
Ag 11.380825369442494 13.997091154471521 8.557771532378085
Ag 15.840864703935855 12.489255511915527 8.902800920377306
Ag 14.037473458395821 8.447076086973086 10.78752674744792
Ag 7.545455884696389 12.10578602263474 10.526402294391547
Ag 13.937252684951625 14.466395014627492 9.585645208736182
Ag 15.730596130696263 10.61531291588433 10.92876378043652
Ag 12.432443473514052 7.935103157699196 13.024098420059978
Ag 9.325806122775825 14.299051539065088 10.43956562625826
Ag 10.144398074192816 8.171858289040772 11.421092348217147
Ag 8.150052485585753 9.901664144413989 12.129531785292867
Ag 11.70140901762605 15.805318173800238 10.622006284869434
Ag 15.699259017114374 13.418789217635915 11.497808196537134
Ag 16.619793833661685 11.596289895387681 13.357200546095545
Ag 8.12799505202012 13.51652819092457 12.864161968754123
Ag 8.260146957579943 11.292915796299706 14.551599291461548
Ag 10.128074434880384 9.233090500452366 14.013401056059228
Ag 12.055981189212554 17.358533907818522 12.92421327604097
Ag 14.769771944191328 9.458180248008023 13.297026507117701
Ag 13.979316482753811 15.45026185384982 12.204188415792775
Ag 10.103043080596875 15.402208597636546 12.889265346031927
Ag 12.653886647691307 9.737246811382166 15.107240265182027
Ag 14.74351495735009 13.56300840359913 14.128821195578354
Ag 10.103338426294108 13.41660874687606 14.863183954106695
Ag 12.386725636450173 15.037961232950984 14.466557374446824
Ag 10.429692210553121 10.968245241837536 16.198415031109842
Ag 15.008956980133705 11.141721947070641 15.539831377282564
Ag 12.634682801162766 12.564996284926616 15.67642847775836
Ag 6.055962013839116 11.624680330102255 12.860506944809181
