38
Energy = -81.19451985 eV
Ag 8.159303655797101 13.37293827681993 15.554095493719679
Ag 10.762343910858894 13.85991788449526 14.887314991663438
Ag 9.029827955017991 12.943766570434263 12.858951001957324
Ag 11.090856873683679 14.888365778726914 12.359242209653274
Ag 9.069437300127356 14.57805961059643 10.461133746317973
Ag 10.250306318914626 11.963799202424926 16.89591082232141
Ag 13.331135802287497 14.9417046732484 14.350625077698316
Ag 8.871833358063693 10.812811127642982 14.797961738856982
Ag 9.401483013934866 15.627190479616159 7.810036308918372
Ag 11.365739387485004 16.0906146486547 9.830883696029808
Ag 7.551841732702013 12.23619154548629 10.607913100608908
Ag 12.885802519532014 12.715703585063945 12.855721778775548
Ag 12.845391912753785 12.31374147442491 15.795438800098001
Ag 13.421242149334319 16.31433043873353 11.838142448445733
Ag 8.440716100584122 10.11074622033573 12.091520503084297
Ag 10.953810730199404 12.416723845928232 10.692716905173004
Ag 8.784121539832869 12.904781831720221 8.228249408551925
Ag 11.525446734784099 9.796818780394311 15.578559327305536
Ag 9.794774380627741 8.293329647867195 13.84767542478714
Ag 11.037600064015118 10.685710994468609 13.013229766016796
Ag 15.317170662240244 14.239963591380292 12.11029399505031
Ag 15.289073441450595 12.80391841463141 14.51559483821737
Ag 13.903918691362318 10.34866993378905 14.08189298171018
Ag 11.426946044033942 13.824049048587035 8.166661485806339
Ag 13.018346061137263 10.418713646019512 11.165256032560583
Ag 13.311959695762436 14.07165357657492 10.186287307737164
Ag 9.298118500998328 10.334665408475692 9.36696323153992
Ag 12.523959535361419 8.09156576576111 13.15313193806003
Ag 10.789848806585482 11.283312512342814 7.147048911357085
Ag 13.268900145600703 11.795699258466263 8.575612117167184
Ag 15.730442923180954 12.800395767412088 9.645400029053553
Ag 10.597452257660821 8.505099876282419 11.088385153264861
Ag 15.63508204659454 11.447894644936438 12.04770881005129
Ag 15.186196666096588 9.963983505180767 9.575225330380716
Ag 11.894037158890745 9.352119039025396 8.713701626335991
Ag 15.22230789719689 8.716444874029667 12.170461641881
Ag 14.35904852473047 6.097977006456374 12.271526708764418
Ag 13.342041054746325 7.724493067732724 10.351390865246058
