31
Energy = -62.63502202 eV
Ag 7.258626989644658 8.256530657060962 9.814252056407598
Ag 8.697299037220777 9.58813880600066 7.869889285091721
Ag 12.965107672420672 10.840556987909492 13.138616654600089
Ag 13.561965327969359 11.734782868034788 8.489936270339461
Ag 14.951425200053492 15.235897972608752 14.677137723450182
Ag 13.112620377308344 11.14021814615806 16.083193463039155
Ag 11.534887353618728 13.791205695072039 8.419510633728954
Ag 12.696805174891642 13.528086424583163 14.78595385782013
Ag 11.651927543334692 9.038769097321538 15.04475724056691
Ag 10.54402085491873 11.587448223407238 14.628670819297566
Ag 14.155617468263564 14.302048019871934 12.204849248512897
Ag 9.423923967006887 13.309424232562693 10.387050493991818
Ag 11.732957818681836 9.487192608778697 17.711141921321463
Ag 10.725694869910388 11.170203558532332 8.886744027865822
Ag 10.629596856320223 13.769730081876439 12.929416113647058
Ag 12.219865092447966 12.614218267135131 10.86097810143052
Ag 11.60238370963458 15.302723596629638 10.802590133603996
Ag 10.068629389559637 8.677641113889274 10.100287866726546
Ag 12.400180834657716 15.961100458085065 13.496974897636706
Ag 14.801604309523666 13.230907038855772 16.637643799442742
Ag 14.18902056177759 14.270815463724645 9.426612205850647
Ag 16.328075382992182 12.520212427030033 8.962903628938758
Ag 6.607373061183884 13.040234124141111 10.867464702783705
Ag 12.74487270249921 9.766544024623398 10.347018882180103
Ag 14.885684676573844 11.806042345687235 11.224790584698619
Ag 15.160446413358294 12.392285771395313 14.008247411499505
Ag 10.394421007150381 10.770190205909364 11.944594870698861
Ag 11.622873199149538 8.33200314989749 12.423176127543112
Ag 15.432169192400606 9.876401629423299 9.36845901888918
Ag 8.268027466598863 12.226383779939725 12.896424925633752
Ag 8.069451474170764 10.849779372388271 10.240454140716317
