34
Energy = -71.98635533 eV
Ag 14.000040342592586 6.918539783328429 13.75607982398475
Ag 13.748298612181006 9.662256449354333 13.455424021043768
Ag 12.174617072321562 8.366504734406899 15.379677475852553
Ag 13.855749677825902 8.005452991718201 11.153282736482389
Ag 11.53046818243513 7.654524476567668 12.755253279921819
Ag 13.635814325225976 10.808706726049474 10.764118832219056
Ag 13.471663924765213 12.399043470955194 13.052892848300717
Ag 11.838309940754504 11.155149509166195 15.035180686999475
Ag 13.598097940258183 9.199450863784698 8.487922203818083
Ag 11.217037964771214 10.50846281475457 12.311338379087209
Ag 12.446864785865502 13.935284026027665 15.091508293087648
Ag 9.684473362478228 9.2346469885063 14.368581406995009
Ag 11.340593811195491 8.72051043291064 10.052371766326557
Ag 14.470960065718147 12.014692257436064 8.383497513269191
Ag 14.411952471293564 13.614077610669266 10.655897855488249
Ag 9.094355757730598 8.433704958835277 11.69753337853113
Ag 11.585264642142285 12.828862138406706 10.721925392030984
Ag 8.68523577651917 8.370893788773 8.895344194043032
Ag 9.515953966540055 10.942177908860723 10.076073625807508
Ag 10.477287702425121 13.12078151716504 13.339774903534357
Ag 12.563235003023953 14.977046576583332 12.429609296522786
Ag 13.485377254995038 16.171466882372464 10.068580326089629
Ag 8.438965294325907 11.2788759221948 12.702170292075227
Ag 7.016567194462601 9.019523262355074 13.401290878526233
Ag 12.60572912938672 14.109498366836485 8.392730985117174
Ag 6.496151699616189 9.774056959025497 7.910243568079315
Ag 11.740417079403603 11.289614693437938 8.287221167863226
Ag 10.923483565485492 8.76808921558624 7.295699146524446
Ag 8.794924152613536 13.587067141928966 11.077036744935567
Ag 10.763155311480947 15.422047762026258 10.166610308532372
Ag 6.894376617530011 9.832783095563569 10.673469652351741
Ag 9.008925556921845 10.818265087607148 7.283795446893789
Ag 9.793331775666097 13.37774044686133 8.443857094563123
Ag 7.272440510257901 12.239631039978523 9.081142341635593
