38
Energy = -80.59744567 eV
Ag 15.751469029531785 9.274719813028016 12.844415184792382
Ag 13.48233397610127 10.813401382294488 12.947045572814465
Ag 15.456769135611161 11.329494555564711 10.91319264030104
Ag 14.786692890238054 6.725927380984059 12.379288347779669
Ag 14.169162940750304 8.781809706519164 10.624837758455326
Ag 14.608062135075407 13.406379444859379 12.747355751690446
Ag 14.876701681335074 13.132554539358974 8.880519126280712
Ag 10.737196458727228 11.824868807322137 12.687797192310512
Ag 12.46849870762734 8.1727356497737 12.957370793839244
Ag 11.476547394260605 9.950874299623795 10.709180697834917
Ag 13.833499333494665 15.127774430965909 10.599365976717243
Ag 13.623064483056423 10.661486888591043 8.654475954036304
Ag 12.64039955778615 12.915028108201033 14.751906643536792
Ag 12.686541336317608 6.280144760451857 10.693949234170365
Ag 10.613715900198123 12.407878756985603 16.60458439897154
Ag 12.318478790022123 8.178454913251043 8.563688832751513
Ag 11.727182113059623 10.190801093416255 15.031163842689304
Ag 12.258867104598897 13.138248100988903 7.9034524503930905
Ag 12.804200751202297 12.529452204002496 10.712945367411717
Ag 11.9133975002787 14.55711977143549 12.585000192169707
Ag 7.788073379606256 13.11026297249032 15.841431416469064
Ag 10.987986068702236 10.571520780375232 7.6407622197007425
Ag 10.65807411920945 5.955960748039883 8.786028276699613
Ag 11.183045210582915 14.913687083041145 9.84343675404381
Ag 8.986880886740162 10.756725920200365 15.170892341570914
Ag 10.208857667027926 7.401320519515895 11.179843411961874
Ag 9.856429163479836 9.098719744598272 13.247741228774636
Ag 10.07527042495928 12.296123472051903 9.846704885790034
Ag 9.916341840361039 13.943376003927463 14.398716212364771
Ag 9.606741358283173 12.941397681195859 7.0198704943509
Ag 9.497857653579631 8.509482594725192 8.774964853240759
Ag 8.551666548868182 10.06963140098737 11.037292616121801
Ag 9.159924949005584 14.273492856574627 11.749503974339433
Ag 7.877902089817641 12.121241380557397 13.049771166276582
Ag 8.187838276338134 10.85548795819466 8.226409228348311
Ag 8.541135882620546 14.585516875849487 9.035384914984492
Ag 7.194215223893153 12.53285137840236 10.362756347167217
Ag 6.788027353126398 13.09046987533669 7.466275135186662
