32
Energy = -66.90777887 eV
Ag 10.992941658115685 15.177348836849664 9.926142358021249
Ag 8.952820282761119 15.302805578275198 12.024576645102545
Ag 8.502914334882616 13.91193062443704 9.604457430009356
Ag 10.826231951418471 13.359940416187783 7.8031437983853795
Ag 8.104216041540797 12.617530067229605 7.250590074513816
Ag 12.515710401903194 14.555418655669929 12.107141265422564
Ag 12.550881475645136 12.761836982612929 9.965591105902483
Ag 10.52633308574198 8.760451211306586 7.583614773340452
Ag 10.195760670385893 12.860683028942029 11.62752849910045
Ag 7.412199990631309 12.880403841446824 12.047048785523659
Ag 12.437109432374251 10.75249292576167 8.075497007911954
Ag 13.44419138672842 14.049328497537036 14.611041181779527
Ag 7.205873845321088 11.327592482490516 9.728285011066054
Ag 7.94614884404825 9.896102943597077 7.3677520207230645
Ag 14.172471337844392 12.26591825943574 12.27734438681728
Ag 10.557515895831031 14.444363033633785 14.13570932152838
Ag 9.899174443539371 11.180974540755003 9.157095323585894
Ag 8.695320263478619 8.68150403869991 9.746147541805987
Ag 8.747640931158177 10.30687425974155 11.953430290031767
Ag 9.048075631288867 11.959332869262624 14.163974903629082
Ag 11.833054667933071 11.990834642259669 13.787368040872167
Ag 14.208133462009947 10.37156595094378 10.203147034822196
Ag 10.407658149163959 6.523172732824565 9.242976010834568
Ag 15.94395334977931 10.045691189275077 12.34569177666278
Ag 12.70674837084447 8.194754450093372 9.264928932681391
Ag 11.569398317251007 10.373106099486117 11.297207549128354
Ag 10.223029092099484 7.725616917701857 11.805529076963232
Ag 10.610738834566948 9.486757159627919 13.932209509011791
Ag 13.456880438805133 9.756468951329069 13.467877287406763
Ag 12.364166336062263 6.0270118250389615 11.087692020556927
Ag 14.344245040416393 7.888347268736649 11.556665381727884
Ag 12.332473027232963 7.245918483804557 13.562162546032251
