36
Energy = -76.18419121 eV
Ag 12.76750272256941 15.325526242370904 9.698621910375794
Ag 13.051165547651731 14.687826554274004 6.994621503864822
Ag 14.145657240854518 13.75888166230285 11.540381085630997
Ag 16.47059866948458 12.594770087630804 12.564648063438392
Ag 10.198397146697776 15.462571185209171 10.748024708440031
Ag 14.95373993091821 11.17443537833408 10.745476815921306
Ag 13.928972730985755 12.861403264477698 8.872672026987187
Ag 12.119739514683623 11.994105590700118 6.971661636397373
Ag 14.202410848349238 12.95061969672656 14.18731962760357
Ag 11.900581205812605 14.321791935635652 13.126518023887895
Ag 11.492361548326327 12.91969154185922 10.730091964835445
Ag 10.628361819520892 14.070204599146448 8.234560464713047
Ag 9.978183224563661 14.889779064587861 15.054407996805464
Ag 15.033840532690807 10.364170866045185 13.470739360357271
Ag 12.219994775971522 13.543572798089137 15.959332720789943
Ag 11.442030688331778 9.297310405722273 7.297188837420172
Ag 9.088603540553846 13.82029373203751 12.667329873381988
Ag 14.000684389002682 8.640982045180271 11.38610766966398
Ag 12.42328642819875 10.88966611435932 12.471091666550901
Ag 8.594333226818119 13.213149425189933 9.988543316719388
Ag 12.51112051417276 10.39923319078742 9.579189923950505
Ag 12.712067014789426 10.85047648624316 15.362860913147387
Ag 7.004353826996935 12.100360662122565 12.00372312758532
Ag 9.858396329980138 11.354266136755935 8.415381496619448
Ag 13.13743854748366 8.383356064284355 14.078393891290354
Ag 11.387092678466622 7.887044753283335 12.009124800209882
Ag 10.303331333371181 12.12913080656657 14.527002957601226
Ag 9.700909139051566 11.001114699450573 11.798007575518884
Ag 12.319209904032407 7.482163703425489 9.383105611563407
Ag 7.660424648326764 10.376349523782586 9.938097496436065
Ag 10.52746434793727 9.351766509809218 14.199149229598921
Ag 9.97459741987419 8.886787788817749 9.686778069015867
Ag 8.028032984640584 10.50275362403023 14.038770726919983
Ag 7.549301801619816 7.526403941496553 9.805467888218718
Ag 8.626145700000775 8.405376212008903 12.211133039114417
Ag 9.901647900472316 6.187146179635278 10.409745489200601
