34
Energy = -71.65815669 eV
Ag 13.647356824930295 14.88142289370676 11.251700776838835
Ag 11.904603147103817 13.528817003560444 13.182651742641298
Ag 16.03284095739611 13.543292369057449 10.446331566954555
Ag 12.145717026415241 15.552220759359633 8.907230880473199
Ag 10.596230957591484 12.036185495563519 15.077741200326393
Ag 14.46616331219111 9.352326673025834 11.880046842540144
Ag 9.053884782519065 13.817097212674133 12.142518834407532
Ag 12.574910544452036 10.674457300854964 13.584079757828318
Ag 11.467963546707978 13.061118573895495 10.470287477490423
Ag 13.823796309636533 13.268578206608916 8.842615119492956
Ag 10.99540232383296 15.713097217129729 11.519398371922714
Ag 10.898182330996665 9.260105323765286 15.328797829554002
Ag 8.678948315188755 10.692216409630028 16.541129834812764
Ag 14.01287831624776 12.176039238241303 11.779831041143392
Ag 10.080128882469998 11.248104033005538 12.352707023861804
Ag 15.241149207007583 10.95118149116882 9.60355205085974
Ag 7.954238823620665 12.185517590841611 14.193267703569571
Ag 12.995494768529856 7.947174541821232 13.851355996049861
Ag 12.595467774423822 7.34561512361597 11.080413684403544
Ag 9.473567302425185 14.758662033218219 9.329646110095512
Ag 14.13106608976138 8.493314880813221 9.067425972345406
Ag 10.516162612558619 8.369521439029707 12.657239046625003
Ag 7.370005193663059 10.684054011622141 11.84286637590613
Ag 12.091102667702788 10.277138396290878 10.592089253773326
Ag 8.34650675937761 9.40111495384984 14.156245679416658
Ag 8.750979654125725 12.101528350575286 9.849415077744359
Ag 11.341053157362827 13.158535027929961 7.619186829399355
Ag 9.93373830350106 6.696558285566151 10.440174152696027
Ag 8.643838804230146 13.054021624319173 7.2223693719465665
Ag 12.873614220525258 10.75688333175228 7.89090993748142
Ag 7.825788930701966 7.8351404382051175 11.92066256880883
Ag 10.052697652798953 10.664403555552617 7.786944066540324
Ag 9.277413176918293 9.380208497183641 10.158912670457202
Ag 11.401501491305961 8.327188256344645 8.614185790958288
