37
Energy = -79.16518712 eV
Ag 14.84550827276081 8.763593785456127 9.897987876429992
Ag 13.932411187985073 7.1761432240175935 12.153189736938343
Ag 16.0474667897563 11.203458801307889 10.667094999016912
Ag 11.032379875057561 6.9284749082591714 12.071706323114247
Ag 14.612740075285352 9.89865766518456 12.650162592641527
Ag 12.295830142027341 8.975239801131409 8.242803603303285
Ag 10.071848808106928 7.533708340864464 9.219279632606199
Ag 12.26661424854814 8.796261492325304 13.880310581519426
Ag 15.336533779749773 12.674593625610747 12.992760782254734
Ag 13.993372873442203 11.196376509714161 8.740360645974194
Ag 8.257096357848202 6.895359002704996 11.48139602360468
Ag 13.124603404078584 11.535308599812165 14.43920022707585
Ag 12.39738824033037 9.147156559023305 11.03437225081533
Ag 9.376408452855713 8.511090977930435 13.942545262332668
Ag 7.105926980809276 9.383064143837426 12.407922426685484
Ag 14.992266432191673 13.67353682363347 9.886771487175514
Ag 10.695632413041427 10.53110814148214 15.438238301314486
Ag 9.636266153441419 9.249036645227315 11.258201307623903
Ag 12.42921436895986 13.590751760605349 8.706626228589869
Ag 10.947371780312825 11.155421971851384 12.667312703680354
Ag 11.082028828376824 11.202709260532824 9.75460332684297
Ag 13.184277653015856 12.223148581533597 11.374024048672178
Ag 8.415772252756433 11.313425967428781 14.003540762698599
Ag 9.515891220271271 9.981469344300471 7.794898536646239
Ag 11.793821849287776 11.459375862500817 6.977892586154173
Ag 10.542595610072341 13.24956771892922 14.55300878831008
Ag 12.797628673188225 15.18847476561302 10.976566417091068
Ag 10.561901197497578 13.559456726979679 11.177910658828619
Ag 8.278946696289395 11.66540447037372 11.160608944976259
Ag 7.510755787889829 9.089892994169556 9.569554590688224
Ag 8.372669394601537 13.950150400990943 12.85949517781779
Ag 12.984218181458356 14.165072365296245 13.55274239369756
Ag 9.737658112534884 13.076821520509126 8.024654395542722
Ag 7.381597641196306 11.734284564499317 8.532362907332793
Ag 10.474805740499859 15.55876945639083 9.237814422764208
Ag 10.679977375398254 15.659339303304405 12.969876662526802
Ag 8.039560901182506 14.168502557628178 9.995882313610238
