32
Energy = -66.85022421 eV
Ag 11.116572836424673 12.392210705618302 6.003169533690664
Ag 10.896474984103646 14.581706876671056 7.7480359377504815
Ag 8.508792462761667 13.09895866190731 6.980757935724338
Ag 13.105389156554057 12.672999756353825 8.239223553143512
Ag 9.328243426391728 9.730967203435238 7.337563453410316
Ag 12.206386257178217 10.187152837383051 7.24742595550577
Ag 11.621691293696518 13.914699118398838 10.348127790044122
Ag 8.873447941625205 14.076597831770558 9.776376417424062
Ag 10.343466859565936 11.934902859110352 8.605363208192559
Ag 14.230722956009847 9.695521604817838 9.160675927266686
Ag 7.617256932105797 11.392142281037327 9.062356242748718
Ag 14.101747428222131 12.835989319237823 10.877475079591882
Ag 12.135894267159976 10.806373851541553 10.343311296602593
Ag 8.60217758812015 9.007768983570168 10.057755192160837
Ag 11.192057456223706 8.427312973391915 9.039282453462956
Ag 9.38258000060558 11.712854968938535 11.254121563376
Ag 9.904005971331626 14.181751960267587 12.519394086444343
Ag 12.875767871867113 14.734469822191302 12.693019226290504
Ag 10.160377897552692 6.6148143417964524 10.823332201539584
Ag 10.52700862983085 9.257891311945682 12.069806347248878
Ag 7.841246976770456 9.918308210387366 12.70666300471153
Ag 14.479422449815669 10.372572382632741 12.017471041094833
Ag 12.949384746625023 8.097275223515283 11.269016975402362
Ag 8.661874599304534 7.2734103830098915 13.029441373534995
Ag 11.817593314263105 12.016857391058561 12.754777552860638
Ag 9.354133981453213 11.896151314492542 14.161270177273643
Ag 14.004866927255877 11.959287538960874 14.329811279174079
Ag 11.574657078699337 13.76871027315778 14.895657097518917
Ag 11.412338884734444 6.959756893822693 13.403816043518004
Ag 9.851916319940406 9.151293639292309 14.772692653297373
Ag 12.804552510503779 9.306101025160318 13.92321275791787
Ag 11.61632133941855 11.127702882724941 15.65020947956631
