34
Energy = -71.57117555 eV
Ag 13.803112785758255 17.311262482106113 13.395378091855612
Ag 13.852174091607491 10.931461171568996 10.273634806485726
Ag 9.255724115093788 11.272370466708127 14.112223427453772
Ag 13.509041065671138 12.854147443918343 12.257747569902987
Ag 10.525904367118908 14.037642135083816 10.587053099646747
Ag 11.75300162761553 9.00399886537927 10.463779561132869
Ag 9.387976871363406 16.119852376680647 12.002080782285965
Ag 12.12847567251142 16.234676648260347 11.29467980054742
Ag 15.661983668420437 13.089069744949917 10.27832885046745
Ag 14.101713571603888 12.24614364228566 7.876884734888156
Ag 11.448996259829475 11.761580496134531 9.063274327613163
Ag 14.687962815295204 11.922694832333391 14.748190090542188
Ag 12.95977970885468 9.60020365987464 8.041752277629815
Ag 17.411033902669743 11.438358362427445 14.398382913382141
Ag 9.196465446138625 10.192962251697946 10.12624431167392
Ag 14.423010233420941 8.38141601775109 11.221320274718243
Ag 12.26854482783908 7.468867749260859 12.832091847524705
Ag 8.379777382499071 12.531040173684971 11.661548802782658
Ag 9.84857756106633 8.775937382004447 12.465863586803378
Ag 13.653946513911189 14.65290721449759 14.380625366980393
Ag 13.207255268339738 10.061215631720025 13.095919380979103
Ag 11.281674544047723 14.3769741375677 15.954577588711746
Ag 15.803425178233653 10.821461465554894 12.254972629215564
Ag 16.19379050647002 13.544818663429012 13.069631421073026
Ag 8.789673765782698 12.626108931010867 8.880902530753277
Ag 13.115457569780023 14.132050572882763 9.6557820897932
Ag 8.37661660943251 8.751917438790407 14.810954385397698
Ag 11.942662650073627 12.055497408036025 14.669649509718488
Ag 11.059725400243304 11.536830597185652 11.883919548150573
Ag 14.711391329614996 15.382009401938722 11.658386257851584
Ag 11.343272898652053 16.330795810649132 14.00025732151989
Ag 10.081423027683059 13.865041828624651 13.482711450262203
Ag 7.3987288616507545 9.987802661742457 12.369171676804184
Ag 11.161138328545654 9.333078668215606 14.85643832921105
