30
Energy = -62.78829122 eV
Ag 15.596426095607034 14.451906812517791 11.68706697388747
Ag 12.856623873917183 14.307489582056418 12.312353281161748
Ag 16.137149343823403 12.538047124967942 9.585958469540072
Ag 11.681169872943704 12.681808985816936 8.033487262180131
Ag 14.078095509374497 10.598335399765979 9.568239848958845
Ag 13.66321598190059 13.737541447212013 9.673661165569081
Ag 10.946296744454605 14.359641998167396 10.18275128359357
Ag 14.636171701170014 11.898211511225954 11.987271705024515
Ag 14.70117420844365 13.512311836258638 14.296592805886947
Ag 10.211870425081228 13.948344943968907 12.96259158356844
Ag 8.990076544276278 13.00888607336802 8.693272917472038
Ag 8.238889277584715 14.48321479523049 10.946378872083116
Ag 10.179676721004489 10.487621239389515 9.07145879013472
Ag 12.031381886051335 14.343001028333713 15.128823118367679
Ag 13.536358272404817 12.345433088671784 16.49534412112434
Ag 14.369774170953416 12.25446682946378 7.37238203546285
Ag 12.46562379649307 10.091949840873566 7.346896409284961
Ag 12.227732099049211 11.917779916773037 13.815219150256077
Ag 14.481615353640887 10.420645721863968 14.486521732377373
Ag 11.847760885974413 11.816780882641693 11.018640559504474
Ag 8.975904024488464 11.80996047745555 11.269570925177021
Ag 9.425903303447294 13.42968357949274 15.569284557043211
Ag 13.219524276416381 9.592009027852473 16.771998035543444
Ag 7.627224481503697 13.129034329625087 13.440506586716824
Ag 13.286483628896171 9.449011393672322 12.130670939735102
Ag 9.492958800196625 11.064224772348425 13.961151647473665
Ag 10.958803924286771 11.200546031910738 16.339592584674833
Ag 11.701092236982367 9.21313332576891 14.41505342833211
Ag 10.471638708046466 9.451261473920232 11.854436234112404
Ag 12.131737530725395 8.626070208523952 9.751176654890761
