34
Energy = -71.26705024 eV
Ag 14.963500693926198 12.050747074085065 11.261775065328917
Ag 13.619049528628933 11.018414534333228 13.45034019602125
Ag 14.144560027364573 14.819833677600693 10.714806138412387
Ag 13.742502219937842 12.860033646114067 8.858627344426857
Ag 13.248768815962185 15.361677586642692 7.798719570369144
Ag 14.867050958826903 10.233553339279103 9.092289307190171
Ag 12.265693850241064 13.257934994153144 12.14034790291221
Ag 12.490624453164976 10.858538015833181 10.616851566409482
Ag 12.06005120805944 12.707367254092885 14.997874832914208
Ag 14.093698078141779 8.767576093803214 6.787063951314199
Ag 12.398682922032188 10.799594343794624 7.67389890438316
Ag 11.207310527039114 15.12736444529966 13.95925951582109
Ag 11.350436828079195 13.360250719860606 7.419181391428753
Ag 11.51499300750656 14.759113902628737 9.833044691539891
Ag 13.156971889950862 10.426531565008677 16.181819182048237
Ag 14.170297727846954 8.935921919124894 11.655013582061288
Ag 12.82049541776997 8.303639615029612 9.198457059640276
Ag 9.621481885742355 14.45223632505071 11.791249693910567
Ag 11.213217245432912 8.549021164114507 6.7927823520573245
Ag 10.126497823989943 12.291649158984383 9.90306206127972
Ag 12.348583892078876 8.671392193731942 14.165181702893465
Ag 9.597181254207868 11.156458492411547 7.255624088476954
Ag 9.369760393651564 13.013568925278793 14.188941951746209
Ag 10.427637684303075 10.46951361642498 15.488240795430666
Ag 11.323002510791282 8.370636059937306 11.60890660601239
Ag 10.593894053134472 10.933776314146492 12.696458596161735
Ag 10.216246175444423 9.43071047686606 9.280764217895491
Ag 7.977222258098187 12.281707316815744 11.811367445820238
Ag 7.6611656600382725 10.92399698865259 9.355981976520782
Ag 9.609705700814704 8.280384182204772 13.850109715096732
Ag 7.945862688862361 10.605816139344661 14.075957472190456
Ag 8.527385314251966 9.258162036986409 11.453999840017227
Ag 5.999436947587539 10.398883015334516 11.810551069186085
Ag 6.854234494049446 8.160472020432085 13.365573413659884
