31
Energy = -64.74672591 eV
Ag 12.851672005985435 8.54294821078708 9.686024122903286
Ag 12.505898170455627 7.4254347311177025 14.110146289519514
Ag 10.476258634705957 10.036277118897837 9.572883776488124
Ag 13.991515837450505 11.109311751830978 10.263677234476335
Ag 13.58550230977504 9.204355508515016 12.300463672552777
Ag 10.328182874279003 7.104752185086392 9.48671155895165
Ag 11.436885645761576 8.375767635128932 7.273764836466915
Ag 10.05749634498854 10.769742414649048 6.659851855627348
Ag 11.426564099365422 9.940585071469853 14.158401132476268
Ag 8.067359455923992 11.182734817565176 8.694968788781136
Ag 10.481797066521654 12.777533860660485 8.51956833936992
Ag 8.182443379956451 8.708976339406192 10.500725915796256
Ag 8.616790146520833 8.580082401899817 7.74606677388581
Ag 6.780524952392226 11.045727481472706 11.160598265380068
Ag 11.86747839876179 12.870062573403743 6.151714455658889
Ag 9.066633706163799 12.74491920426932 10.870129904941393
Ag 7.590999633203954 12.813161207229674 13.217632936674116
Ag 11.477754419139664 14.259326997609374 10.732017181747311
Ag 13.231284251020092 13.363816638499024 8.622596061630688
Ag 12.702043319493528 10.757936716014825 7.779769181344802
Ag 9.774127768934212 14.635391451333819 12.947360684262978
Ag 11.62808052780362 11.56704831217606 11.72789533244108
Ag 10.921455367887402 8.287491471224786 11.887379985080077
Ag 10.052616138782312 12.287774676119065 14.36843581507092
Ag 9.10965952901304 10.381924544071408 12.562273263814726
Ag 14.218801521832175 13.73446719280798 11.185800521117885
Ag 12.491080267748782 14.021063701084286 13.335232385476184
Ag 12.620021488327179 12.156972125887995 15.486883983050115
Ag 10.988829297650648 14.539407042210645 15.566889025372774
Ag 14.206804345972342 11.777240440256435 13.163081248028584
Ag 14.029632594255698 9.704273662712092 15.060024003515485
