38
Energy = -81.59178994 eV
Ag 12.949096279768531 7.715467646850034 16.12976068935471
Ag 11.939120056202533 10.440820552951573 16.225882573667235
Ag 11.53977566394452 13.138976761818158 15.33264767788475
Ag 9.82214389034782 11.047104144557592 14.440570352622633
Ag 10.946497452120353 15.784074103265137 14.48383279725242
Ag 11.155904730270604 8.517695569090373 14.230454731940538
Ag 9.409456839424648 13.719248401102096 13.462817111502552
Ag 13.721999368922717 15.170753657628168 14.612127461016716
Ag 7.7962448110901255 11.575438727295117 12.553434399323367
Ag 14.325628160995652 12.531131747254566 15.2475960148221
Ag 14.635712025380043 9.820070212425218 15.650602189622598
Ag 9.238784356299915 9.136006276186148 12.358784511844634
Ag 13.910474666487868 8.258712507413799 13.451056014575498
Ag 12.630998551301927 11.014822752918807 13.579899378956052
Ag 12.184995060769106 13.840483214075151 12.636077354938802
Ag 12.828283525599577 17.705126532938152 13.733957492944407
Ag 5.820026176755275 12.087158228190999 10.609310379055357
Ag 7.368764064025348 14.187949457393835 11.57958060292337
Ag 11.312543098717446 16.440612750474866 11.766280546578528
Ag 15.117928030913072 13.501961320846013 12.71047883870639
Ag 15.440020523122529 10.745544786411136 13.162532700634902
Ag 14.109853528548467 16.02598916219225 11.892707635117493
Ag 10.603314015626333 11.639173961419715 11.705621530258732
Ag 9.967592481929927 14.344138256582614 10.640624514337858
Ag 11.970889877190363 8.969256710380353 11.51491438772369
Ag 8.467352130093541 12.19397795848753 9.745052980688937
Ag 13.390756467234546 11.85190345595419 11.0059172116906
Ag 12.625123850009745 14.661852802881752 9.852894528701606
Ag 7.284086536272065 9.724627331136244 10.453690577086853
Ag 14.753384618861467 9.191923487531914 10.934728787723785
Ag 15.402180722444832 14.383888410693913 10.027634848533852
Ag 16.227293555587657 11.766454187868893 10.705499240149807
Ag 10.00752181844335 9.780201600683153 9.63016538398637
Ag 11.188442803736583 12.374968660706871 8.986982236711789
Ag 12.760249775857236 9.966240364288318 8.97584573339113
Ag 13.898764469278174 12.627415968640099 8.317565478394034
Ag 15.507154702778292 10.259630464347167 8.466179934510018
Ag 16.6633704100212 12.780926961489333 8.108020267198128
