32
Energy = -67.11029624 eV
Ag 12.901512883717244 7.531063721088065 9.881555073453958
Ag 10.150008777687765 7.868368183891436 10.473344262464828
Ag 14.811139793262956 8.244991962235915 11.80893425856075
Ag 9.634537155473428 9.06466266344186 7.95778396405766
Ag 12.110529917274006 8.782431715307021 12.248969184456493
Ag 13.977089763022493 9.772891595235723 14.07641143138317
Ag 12.39043180143808 9.2310960540062 7.757384205009112
Ag 8.03485318067655 9.71052490349914 10.324642777217028
Ag 9.444461871666498 9.394818006966819 12.766852745092564
Ag 11.309845550396032 10.490021787743876 14.532341136639053
Ag 13.771411462928574 10.20702070209206 10.030233523291951
Ag 6.974713150627307 10.620393325153247 12.75740909499407
Ag 10.809199576198806 10.584778345991946 10.203212159199694
Ag 15.614483827367799 10.863427881299561 12.125273653179423
Ag 8.29717058996979 11.51452666709042 8.23343380234621
Ag 8.71325908088938 11.471869790790928 14.815814676404251
Ag 12.521696445392617 11.618139555364166 12.256833866187545
Ag 16.638069589100088 13.367508587662499 12.411056845542264
Ag 11.054987688262853 11.760622380128837 7.660213777401409
Ag 13.882066802213062 11.684670317893744 7.673949825063782
Ag 9.594084443871091 12.213913820477181 12.333962413318831
Ag 7.212582550048433 12.483909081543985 10.641743977258423
Ag 12.554873781231795 13.004954387299353 9.744725397567345
Ag 6.934001847181404 13.291806703031346 13.461245414868754
Ag 15.326954834370964 12.622053184238087 9.943871621029713
Ag 14.668591574462578 12.515584069286257 14.239276932372368
Ag 11.989604630611534 13.347002891154421 14.381506223609682
Ag 9.78051110616261 13.357284117351973 9.662178306199488
Ag 9.405154245918826 14.28401894359349 14.326340347983546
Ag 13.970729481416031 14.032295958143449 11.989557583780142
Ag 11.252416886407325 14.45355227103516 11.844703618811547
Ag 8.480356523070315 14.799403088561641 11.675021690268531
