36
Energy = -76.81081481 eV
Ag 12.234450693289194 10.074866231050649 11.01918124563531
Ag 12.271699362710597 7.368855590566355 11.643730258811717
Ag 12.326366055801179 11.322922688767967 13.522563755157638
Ag 12.841573257724365 11.122781590012377 8.4775924815582
Ag 14.234240691577135 8.587124572180214 9.86071236576989
Ag 15.511978603923982 10.381455684547166 8.151237916917738
Ag 13.542501461757743 12.378266807150432 15.928956683528716
Ag 15.19758231406891 13.903041889116516 11.562032353132711
Ag 10.144368153641087 7.289942145958058 9.838343484213544
Ag 15.103248693320898 13.01809188358459 8.794979562944091
Ag 9.822595965122202 8.83843777754825 12.096161874832731
Ag 9.554729801963266 10.57686019869932 14.292780548738405
Ag 12.668588415776817 13.819518997851013 7.718031994477427
Ag 10.818391515331886 13.071651109483616 15.085525750482375
Ag 14.171159066588833 15.524860651790418 9.336245532513104
Ag 10.443462664096606 12.674584672878606 8.797758075448753
Ag 10.227538789198633 9.957324015716749 9.051000487518634
Ag 12.651541473162666 12.927540319735177 10.9828751251855
Ag 7.979081059107392 11.6248870759013 9.567679507890428
Ag 7.824837916912916 8.865204138316274 10.05292420312429
Ag 5.570883624923715 10.528355924980511 10.430810541462696
Ag 13.130249043525557 15.901989122764636 11.826573294575367
Ag 11.311638080966244 15.17105805001368 9.80040054336726
Ag 14.319574774243685 9.038448985353913 12.68486566926908
Ag 8.83026960188354 14.102771457032013 10.636984993205594
Ag 15.005472824235312 11.115281519043304 10.834787973059003
Ag 10.105843231375747 11.748595026307457 11.636263531549071
Ag 6.428339046524545 12.955872713381552 11.575363051358746
Ag 7.576704427425597 10.56126603872857 12.362549736594344
Ag 15.092393917359693 11.805409669394283 13.537197961212803
Ag 10.80244660822024 14.488476752455556 12.632442101028976
Ag 11.476124041319464 10.492397171634414 16.237676621300075
Ag 8.454080860450226 13.114968254596187 13.509781499085202
Ag 11.782979208627234 8.582837351258206 14.134186416921283
Ag 14.074512596345576 9.726733528628827 15.316615314517078
Ag 13.340434040340456 14.05978794280021 13.803944345797492
