39
Energy = -83.44940023 eV
Ag 13.343907837048189 11.801629390631362 7.037117218874212
Ag 13.802565334089584 13.019889756401863 15.484194226299055
Ag 13.29497314571043 14.411684917977073 8.125829526826394
Ag 10.939750838562706 9.239059263403579 10.241675475787956
Ag 10.779736240501183 17.431189828140393 13.613450793826683
Ag 11.060378307705879 12.60492231309615 8.550395993599842
Ag 14.781326923970504 15.25863722883911 10.376599503354262
Ag 15.181294790771966 12.613254819896706 9.064537644733752
Ag 13.585546045645579 6.229423517231573 12.820267409217257
Ag 11.033792045102134 13.350438806567098 16.144156459012944
Ag 9.5209074469223 15.817756549047552 11.68511527980863
Ag 12.466420722406767 15.553733020064913 14.830827506929245
Ag 12.38502803274519 8.406775344372864 14.034701844751392
Ag 11.4593860635032 10.801783166221385 15.099537154597627
Ag 13.128793704418355 10.688526200561224 9.524828845782798
Ag 9.261954818680831 12.187863957545146 14.086668432499955
Ag 15.044746499371225 8.827130982293019 13.256827534259013
Ag 15.420745696950535 10.563032523854305 11.058309747864286
Ag 12.709762584242238 11.497019354511227 17.536148999384856
Ag 11.069274586663058 15.229373784345519 9.522820840723693
Ag 10.004721582338162 9.64236023819322 13.020192746090444
Ag 12.378781891318413 15.862321307010168 11.9558301390228
Ag 7.889738865803829 11.15265585517351 11.81393896631156
Ag 16.405440038948 13.183165253098883 11.477761456504464
Ag 15.51613235393905 11.696170042217204 13.630325541585856
Ag 8.922953175397296 10.812581746774285 9.194946706026471
Ag 9.647398691954882 14.990696474389063 14.369634523633897
Ag 11.187832626942445 9.99608562517681 7.560526846464654
Ag 8.726292004319534 13.654261826727026 9.92277857167476
Ag 14.104460982862053 10.192183439573569 15.49574490609468
Ag 12.804470767721428 10.757673024326662 12.4269775766746
Ag 14.472144424292818 14.326255401686343 13.106131437895185
Ag 10.948394859771495 7.129208003144542 12.031211033216072
Ag 11.837042274455847 13.260344064668228 13.410610712447111
Ag 12.894939089309338 13.306856790903584 10.784324112340137
Ag 7.745776788447017 13.869359335313705 12.528308178831693
Ag 13.4492185895158 8.332958978006793 11.04865055071433
Ag 10.499515529354662 12.002376395780376 11.317151289645032
Ag 8.457225268422684 8.462132942960055 10.973715736819027
