34
Energy = -71.73359682 eV
Ag 14.183826379169329 15.978082696883039 11.84656473121302
Ag 12.906396952965174 16.111492934443888 14.355383477935522
Ag 15.087604498895006 13.52345602686675 10.849502129313029
Ag 11.340239184643394 15.803589337981094 12.128841582549525
Ag 12.655075705360325 14.656160944228503 9.891782356290921
Ag 13.046996187179031 13.893885213759521 15.976548869002986
Ag 13.485784974995438 13.622258165283226 13.168304172595704
Ag 15.927446100209718 11.004859409114525 9.842226048034123
Ag 10.750547131661323 14.030553055669927 14.26064418638278
Ag 15.140613214453149 11.230511364912068 12.514347229193461
Ag 9.596603349450408 14.988965370336334 10.094999184365758
Ag 13.836685701408516 11.385485747732972 14.974455526132829
Ag 10.83647605787926 13.018518202397162 8.491909360298994
Ag 8.35207276209409 13.541315974124615 12.569815424973491
Ag 13.551235976207122 12.19412508280687 8.897104230692538
Ag 10.911718137994582 13.082881156046453 11.575389007196142
Ag 11.231338861143971 11.83678215534832 15.988922103506011
Ag 14.220517274293346 9.554145404431042 7.9911166722169735
Ag 8.495191475664845 12.369478234731956 9.997910805521588
Ag 13.795694847926955 9.46269991498174 10.70239112224235
Ag 12.310659090063858 11.074181579325078 12.676647827124516
Ag 7.5594195287387596 10.750260069580074 12.082683327231834
Ag 9.616036801587562 11.407180763545117 13.789903415000145
Ag 11.23562213673277 10.787254899978322 10.123463439440261
Ag 6.816559354629366 10.207158231533935 9.456636848048028
Ag 11.85048506452938 10.729808131792668 7.221198855723388
Ag 9.26029434331897 10.450316882266868 8.087148727307786
Ag 11.620171392102625 8.415352439713718 8.896921866795672
Ag 11.314368611770217 9.369105869045146 14.767147134605702
Ag 13.796701837721425 8.796000276140862 13.449354366359488
Ag 9.036880539913678 8.894386604694136 10.427679288617076
Ag 11.448684779061319 8.405244789692299 11.767381753249255
Ag 9.081073149757525 8.651425171534589 13.227766434696726
Ag 11.71268271453296 6.806624849702845 13.940868998019813
