33
Energy = -69.5740959 eV
Ag 13.538292886021742 8.318536346681356 13.209009211095252
Ag 15.575938742377504 8.958043215018463 11.313121913492873
Ag 16.074240452941435 11.58812469056334 10.552582729833077
Ag 14.29045111962909 10.983122988055957 12.767679730536134
Ag 11.847518834567124 10.361812514315336 14.247258189900416
Ag 12.726170107130365 13.023399890077533 13.87355464298124
Ag 14.729389736095758 13.615916205060046 11.93106770494858
Ag 10.025573381386371 12.185327307352495 13.194035960467103
Ag 13.313876016233726 7.57806540169616 10.461151663737954
Ag 11.088867460731334 7.199123172015146 12.27379238083114
Ag 13.80709455453708 10.316351697781831 9.578781739765777
Ag 11.791230959770497 9.782923712211964 11.569370466265788
Ag 9.368636530695717 9.427661764048223 12.969413219681483
Ag 12.4719230988673 15.205196204003746 11.806800524805345
Ag 10.646163981961474 14.849777996836487 13.948125142528003
Ag 11.038783650231016 6.2664329632800895 9.559905462368603
Ag 9.400453643237812 7.552563229297911 7.6557402394985825
Ag 12.072307272212537 12.497008285365913 11.134587055749831
Ag 14.073456872166004 13.091721051760722 9.235837466672868
Ag 9.072227634673338 7.995662808875444 10.512996579936177
Ag 7.996484231666142 14.14726523958174 13.542323442552785
Ag 9.761852355073284 14.408279509175111 11.292311412943926
Ag 11.42667324304955 8.99939319611926 8.82470326952462
Ag 7.401026696274278 11.340945314216414 13.603366415775298
Ag 11.623725157402795 14.478300189590518 9.1682246358927
Ag 9.597780301017645 11.009388628429289 10.443385502755854
Ag 11.647130306614772 11.769361909642786 8.367331471437744
Ag 7.131474224031161 8.74646829303948 8.673149859493403
Ag 7.480046688239309 12.788238589321708 11.20252752636646
Ag 9.186414232428115 13.150057562686502 8.731310590612068
Ag 7.0638020528487395 9.837198596706493 11.266300580870928
Ag 9.265320398001212 10.402020129079471 7.658396959635693
Ag 6.940602722322189 11.47197758278545 8.862073134081554
