35
Energy = -73.3084268 eV
Ag 12.752143444974033 16.494585254137913 11.310402635207307
Ag 14.910469730625918 10.27408635917802 10.437517113982784
Ag 10.969333547029407 7.458496030838279 9.894847665453868
Ag 10.67247008766967 14.665345018995522 12.107600418653853
Ag 12.44588362228744 11.858354215475414 11.56073572417042
Ag 12.272579438834455 9.897501148799941 9.531828313576572
Ag 9.048683975284522 14.360843213444788 9.732097748690597
Ag 11.826683243854244 6.973504884821476 12.489229046647266
Ag 9.474989895183475 9.786358909087154 9.552195051364512
Ag 16.255441649807572 12.599557143624622 9.286994861014557
Ag 8.479059723428199 13.517955157499639 13.701737514621477
Ag 16.11749284048561 10.26378375916961 13.286528524853306
Ag 10.108073619166822 16.84016328945704 10.487771912103227
Ag 17.58069103337449 10.855676174978212 10.983326269126172
Ag 11.7391807240269 10.15461963570303 14.945514673461368
Ag 7.866405289214027 11.948971031685138 9.057346754457567
Ag 10.69865464459859 12.215058061973094 8.862540625804014
Ag 5.974738366864275 14.747595065568914 13.495574295587119
Ag 10.75131704268986 9.539017882824787 12.082064383012076
Ag 6.933168997058625 13.316120565166928 11.322935027088663
Ag 9.945510638445356 8.077594026448326 14.426071287467874
Ag 9.08637921831441 10.746949143918716 14.086234503862334
Ag 13.484681235930662 12.359151790830788 8.936448298747868
Ag 8.063858220471419 15.785449739393524 12.031278909682621
Ag 13.685367553678597 7.740939506366775 10.494920043072955
Ag 15.470253956005847 12.594690749194049 11.955609227041814
Ag 14.525631823936381 9.512683415031958 15.485499358334168
Ag 11.133859953741858 12.652453478713872 13.943546968845679
Ag 9.499378055439744 12.0053284760879 11.485926716367185
Ag 13.527781187983878 9.277860575612197 12.82595696166719
Ag 11.826639071935281 14.69114455848353 9.369895933538908
Ag 13.335188618911468 14.25441707752796 12.863843496035454
Ag 12.64231319488627 7.5368776820824275 15.043125993915163
Ag 14.493020156159565 14.598638455014862 10.233030879965671
Ag 13.832418683986116 11.827971009148724 14.119565348862883
