37
Energy = -78.98483219 eV
Ag 9.82318020461814 7.365100603465443 10.81535482418536
Ag 8.621727760654021 9.473052613276089 12.178899203682562
Ag 12.3174390859012 6.53864054457993 11.737085150707653
Ag 10.8225865480454 8.293204945241811 13.353839876979857
Ag 7.589128420280957 11.722336147197801 10.9660835516413
Ag 12.1373485604465 7.652536928524265 9.141637930841451
Ag 6.986907449607265 11.242270060131027 13.638578067014185
Ag 7.14435207360292 11.55101823805999 8.181100438871601
Ag 10.841122277680524 10.022511725757914 7.789541159199239
Ag 12.075624583826963 9.778064268865375 15.43416000468639
Ag 13.549290643081845 8.002127971433048 13.81765800946995
Ag 9.557609489496011 10.576987479077866 14.516411857138415
Ag 8.626533291368402 9.534595703796445 9.404894118396218
Ag 6.372721105753042 13.766994582862054 12.44700566958141
Ag 11.231637619169629 9.841538834497733 10.604698891748225
Ag 13.995632474179953 8.657749064330764 11.081172619328138
Ag 10.498641475968922 12.146070275305421 11.916971596926926
Ag 6.63684694831846 13.925488975622068 9.580093189326039
Ag 11.259318669052671 14.44171245985756 10.017847086281915
Ag 8.8342310977426 13.316958443419718 13.892778419864403
Ag 13.507242608649968 10.038142850444252 8.67271834984036
Ag 12.103238643426941 12.55785320765283 7.847067386351055
Ag 9.640895596565874 12.297591225234394 9.145445779436917
Ag 11.465171243491293 12.577663968907515 14.69983957182339
Ag 13.072666642105286 12.289793523732055 10.500490082354847
Ag 12.761022401791577 10.66794339123754 12.849774693542612
Ag 8.81406946979599 14.348364109585848 11.219187450283686
Ag 15.462187474352376 9.979748417648896 13.177190362823392
Ag 14.115708914914528 11.70929496078305 15.151037511735721
Ag 11.10288435500692 14.775834302548713 12.891729446441078
Ag 14.938150803551647 12.330463004375655 8.146809984407486
Ag 13.682254383872143 14.742968218397131 8.770701521168984
Ag 15.546967663981674 10.967093497835743 10.554402846382791
Ag 13.524434383611299 14.413624295695271 14.31434776870248
Ag 15.026697325569799 12.735990848937671 12.721104496859601
Ag 13.583407689949835 14.98874617816094 11.59074617820848
Ag 15.831383110185795 13.830186623139312 10.331857393383949
