39
Energy = -82.30867831 eV
Ag 13.009012044540418 16.74707975824995 13.79912204047079
Ag 15.134581490225784 15.040865290022484 12.933983359004706
Ag 12.438859818255226 14.425761032530893 12.499317832398148
Ag 8.153525815507038 15.596322554990223 14.559637540407964
Ag 10.901307745766873 15.117156885642249 14.80427525312422
Ag 9.738932017410843 15.17030281019479 12.243256941849035
Ag 13.651434994188268 14.452071206674134 15.262481104195007
Ag 14.36058831614952 13.379870458267233 10.735241405597522
Ag 11.567898396155092 13.03538653975799 10.23545607700721
Ag 16.20192169252312 13.303768383627213 14.978693839522784
Ag 7.46234020987376 13.35628332218883 12.986354773961803
Ag 12.88142227448717 11.645290586559904 12.464998571746897
Ag 8.95492979417284 13.04484350624158 15.352036946019833
Ag 8.646156845148722 13.328251913026216 10.440201215752351
Ag 11.728909681496086 12.465427847763271 15.1690423721477
Ag 16.70557177275614 12.81365022531876 12.337482411888471
Ag 14.208164233560577 11.82880516003464 16.20194485391003
Ag 9.923612246302083 13.465176244504708 7.983272551249158
Ag 16.784500802287884 12.718045787016493 9.537259763357053
Ag 9.889622269865194 10.389100267831756 14.873510194915095
Ag 11.49945928281071 13.432990931202143 5.7423323930923535
Ag 7.228578332196503 10.957527908560204 14.484861411060429
Ag 10.189969873918187 12.437282588445616 12.744958157762278
Ag 15.289779308291456 10.849090273455237 13.842588503862833
Ag 15.478518544787526 10.70365674624897 11.015579604002294
Ag 12.501123992715522 10.233651351673009 10.001425236595496
Ag 14.508228133186197 11.522784060287481 8.484552039647177
Ag 9.72308050255124 10.977546056862733 9.564941682637727
Ag 11.778552895416606 11.493417392154731 7.588171927405327
Ag 12.694698465638469 9.891489548866552 14.741455277054616
Ag 8.0215888325172 10.822231663896035 11.783767559513294
Ag 8.365279019178708 8.568357541019042 13.368526867242442
Ag 13.734343113732841 8.936716015516794 12.300995280290731
Ag 10.927181279290851 9.505756947943244 12.433150791155517
Ag 14.611496064471648 8.38540052131415 9.667102770562552
Ag 10.754706132987168 8.727881271267178 8.298293887373239
Ag 13.328915402956875 9.217242071565083 7.361349743349203
Ag 9.10965267654613 8.463136779517091 10.615879960410181
Ag 11.920208281345623 7.559033144974142 10.571150453669445
