32
Energy = -67.28357834 eV
Ag 6.837209039926538 8.684447197303408 13.094099392441041
Ag 9.047632052833174 7.2740726260561 11.888190879523618
Ag 11.503220136647702 6.574511931618175 10.776609832529134
Ag 7.503218726926312 9.242097923904192 10.524091316902823
Ag 9.93591365301985 8.566366624620693 9.412796533335117
Ag 12.048271185829995 7.3156065494844675 8.126768684611646
Ag 13.741302142378327 6.664911319384266 12.49012540670467
Ag 11.460502345924727 8.063121154064168 13.20051658679878
Ag 8.055975361694152 10.19790188149401 8.016715609702265
Ag 9.350921910705658 9.832341497233676 12.937844456060796
Ag 7.1738376086511275 11.451291005674946 12.301241053361057
Ag 10.429256517870526 9.226495769622472 6.750254426742491
Ag 11.63383240630385 10.107330945478774 11.217052581449368
Ag 13.654209125758522 8.302491217624967 10.221461332663635
Ag 9.357738220859133 11.505827134536414 10.446931685896379
Ag 12.414199334108236 10.124993258195241 8.484341475643784
Ag 7.7614178600828545 12.938506777232709 8.646625372977622
Ag 9.549039917705711 12.638556199138021 13.276261463765287
Ag 13.95222227407868 9.49336620809205 12.836380986595254
Ag 8.101076003627332 13.984622204420557 11.334067406655663
Ag 10.316821598839441 11.856927855062466 7.806388965403689
Ag 11.725961545925163 10.906746347259233 13.950931435732459
Ag 11.935637118937121 12.93726415273018 11.529944266488892
Ag 14.206952718182896 11.07492419304223 10.443224836424658
Ag 14.12719385983486 12.335842800360608 13.159740535364737
Ag 10.185775490240358 14.126066215876227 9.49989287718768
Ag 11.823285727088662 13.65334803992938 14.389575756315315
Ag 10.505758085421988 15.197509527989425 12.296675310047506
Ag 12.72288262224547 12.943336100552758 8.82781581204971
Ag 14.658221776802582 13.781993249467773 10.70769734447365
Ag 12.481046637548832 15.477987995707073 10.208235123433846
Ag 13.460839123932388 15.17454878922504 12.809087223470062
