36
Energy = -74.90772218 eV
Ag 9.812541612966001 10.622578254436561 9.294850162955914
Ag 15.148277991902669 12.114966229033488 10.14195404332517
Ag 14.365365284038607 16.373023951469186 14.951881372956395
Ag 17.35434650970154 12.855377088837084 11.64442815815987
Ag 7.86471966360193 11.472816787115425 11.196209762660676
Ag 10.900211198165229 12.96060177285915 15.440840440435004
Ag 14.480563878369855 9.491615921285831 9.25220295610544
Ag 15.301571804322133 14.771200167621013 12.517049960273003
Ag 10.172317417165 10.184783152877205 14.783910401848926
Ag 15.195572320754106 12.053443555963792 13.171662013927259
Ag 16.414094432789398 10.073981922964228 11.516840581750097
Ag 7.793098891653564 14.300503648601719 12.097677289261673
Ag 10.410152463581941 14.790581821746285 12.89631590034779
Ag 7.43546022648894 9.340442367668839 9.614131134140958
Ag 14.250726398367553 16.577529711947218 10.407801003931043
Ag 11.829485044416662 8.87480102135556 10.071228027025537
Ag 12.844790485812785 16.056886212067717 12.759022188543709
Ag 12.433871555190512 11.577980573113726 9.44831005032937
Ag 13.679550278035313 14.140962506616672 9.045837544148098
Ag 13.114818889998883 11.852180361357153 16.789552879955952
Ag 12.358830178715246 9.213658885355514 16.172268548478513
Ag 12.122588039779558 8.506433221312234 13.392832810304236
Ag 11.56871595009894 15.70143005428368 15.31209495591119
Ag 13.828349471043143 7.476233399095868 11.346986330279812
Ag 8.920446304261812 12.328910886251286 13.610951248533528
Ag 12.712231134540291 13.092756576031027 11.93409308662439
Ag 8.739097428288988 14.74258634085566 15.033588952358937
Ag 13.638701695221155 10.213730965994419 11.75484037170741
Ag 13.489229012057294 9.828451246502958 18.55952735461053
Ag 16.27020376710133 14.698159669988943 9.858180279811023
Ag 13.54592992184188 13.78904930515603 14.659906360335436
Ag 11.6316535798653 15.381557644727375 10.403321358410539
Ag 12.692673744730723 11.17182490790513 14.154087540086822
Ag 10.72511031871905 10.747955414124723 12.027142905671226
Ag 10.026891015337421 13.131406891210373 10.705648836895671
Ag 11.077113660488497 13.638899131680176 8.182124757312263
