31
Energy = -63.419221 eV
Ag 13.901066081593191 11.94249720376287 7.286968839121277
Ag 12.094749662918495 8.923739245700588 13.693195961366943
Ag 15.72971157346463 12.159453610430102 11.39207617252576
Ag 11.777341568993288 16.16856115239999 15.164344833512356
Ag 11.864079959124226 12.294057698429 9.103710448801339
Ag 8.405838868903738 12.507703009071468 13.258076908396605
Ag 13.395720423123395 10.780321745508767 15.38748353538501
Ag 11.556652604590411 18.651358520678325 14.060305027171854
Ag 8.989567827753387 14.713139059845938 11.342304144928454
Ag 10.647121516344198 7.415698688847492 11.875280221797805
Ag 9.356806677640648 9.862198357644987 12.614408429786694
Ag 14.229585341342577 13.669711244049877 9.448066318721978
Ag 10.501116129873234 16.825382992307677 12.280915947872128
Ag 14.455948691186011 15.276799401236968 14.851648796248886
Ag 9.668900174248753 7.8732226768770275 14.472250635374936
Ag 11.524554060771388 7.465408001533609 9.26396469464936
Ag 10.996670924857574 11.522755139765682 14.042952185750853
Ag 14.367415468832839 10.118146989669057 12.732491272755903
Ag 12.284466966562132 9.744776386614133 7.89551359158523
Ag 12.411449709179845 13.451101918762939 15.460641748529444
Ag 12.90606752460217 12.309577516775349 11.852996667377681
Ag 14.911153210785516 12.652583896899788 14.02603805662151
Ag 10.720897655947873 14.237061370821042 13.429532652080763
Ag 13.431341937647842 8.018316560718175 11.234519830055728
Ag 11.505496394836927 9.895118085201911 10.681284668668432
Ag 11.939460092462834 14.817928011813672 10.83658661107428
Ag 13.170198322774509 16.758741660303933 12.797442115995777
Ag 14.187771816490033 10.47114376130798 9.806019355870378
Ag 14.700537846002426 12.964016564022492 16.797869578665818
Ag 14.589989573717393 14.629643698008039 12.05483050777494
Ag 10.140907490812141 12.24242192837576 11.218866338916358
