38
Energy = -81.00995727 eV
Ag 10.468291999959417 9.778390493749878 7.733602836227437
Ag 7.771718312245796 10.693148412822705 7.776987191978532
Ag 8.421177610876192 7.946801365308912 8.25860942858094
Ag 12.6932439066777 14.19911224962282 7.14791117260821
Ag 12.754452950163474 11.47391273645617 7.575928022000547
Ag 9.894189049956916 12.499864501121845 7.249350784181298
Ag 14.11386237469939 13.187874074440318 9.427589772795013
Ag 6.472828756150981 9.22628477853313 9.819317623892386
Ag 13.015826380779007 8.801397450903089 8.326808540282423
Ag 10.812741424216187 7.731873369943555 9.669825149728931
Ag 9.294563875843176 11.350084881144475 9.969060578225168
Ag 10.125332124167242 15.287760783338364 7.624115987174786
Ag 8.41370206659582 13.931385475301452 9.317293989170139
Ag 11.315708580541255 13.402900270429758 9.432430517642187
Ag 14.783491755691387 10.368104037270959 9.967105093570817
Ag 12.295085727433547 15.990902627867664 9.377350817557351
Ag 12.067444996142777 10.718697257161669 10.230340888047673
Ag 6.516796815777329 12.003527641613795 10.051786641906903
Ag 8.3657855464514 7.641947183334848 11.043564306282066
Ag 13.195273345470657 8.19519724763801 11.095732811356964
Ag 10.126892704161552 15.14394056734716 11.273204248315588
Ag 14.324630134953498 12.231292756953883 12.044298920996516
Ag 10.906140450940596 12.482107610276557 12.122341176188328
Ag 15.087561040484186 9.515471038575589 12.717669618350351
Ag 12.891568795298895 14.536469281999562 11.639183748540542
Ag 8.201763141097338 13.123831585219946 12.081343867035924
Ag 10.226772401910296 9.601797458677503 11.988786294219528
Ag 12.589426016476672 13.290051267543538 14.135850892837194
Ag 7.403484721007459 10.392454772665237 12.188261403794598
Ag 13.338487243968787 7.438208569511468 13.74069686135178
Ag 12.538536052770796 10.44268584621332 13.306200029688448
Ag 14.651400752322889 11.509760587800834 14.772533647365567
Ag 10.861186087327054 6.98939857512751 12.426014604133114
Ag 9.354719209609673 11.211400511080226 14.138240610842644
Ag 13.498890173542463 9.23200602750065 15.818161875022657
Ag 8.45433389584783 8.327142222181163 13.717097381507122
Ag 10.966406167026829 8.668422702723488 14.778251828902523
Ag 11.632796629928613 11.310171794536267 15.857305331274727
