34
Energy = -71.53015908 eV
Ag 15.336846424984298 11.885946440128864 12.886425874098503
Ag 14.816974487543698 13.36207482034709 10.645548678720218
Ag 14.566677768244304 9.219351215182941 13.012745932231216
Ag 13.367846562515554 11.214825865891301 14.68046521939372
Ag 14.409846316761332 14.85797508593135 8.387359531754772
Ag 13.81725614925202 6.594080021495445 13.105166242014391
Ag 13.923204384604261 10.704054065301557 10.621401430195442
Ag 14.04248357686076 12.070762017892369 8.186320993553341
Ag 13.637768728864026 7.881994762941574 10.671619672267735
Ag 12.275473317895147 8.498438358666025 14.6042279404887
Ag 13.507890091510163 9.275524941336075 8.223245051089222
Ag 13.19687453254065 13.622642518702847 13.07557861384401
Ag 12.870254319113668 15.30886625595084 10.78899967412613
Ag 11.960402747811948 13.339044668280666 15.698450167300749
Ag 11.843216302520903 10.285073624423351 12.470764792145882
Ag 11.58225146397462 12.618687767999337 10.83315356925627
Ag 11.265878608585705 7.3865686423307375 12.178431376305227
Ag 11.817420918366196 13.775757374640484 8.079920126101602
Ag 11.389419197176373 11.0508382332913 7.922411200774825
Ag 11.26222740017147 9.105499201165642 9.917508637633661
Ag 10.487055477249653 12.594705635660125 13.499739174188425
Ag 8.795749519605419 8.19084782383528 11.060836213586748
Ag 9.472110830940402 9.145736795125595 13.591950379875524
Ag 10.770187509276953 10.637914047809819 15.568515657490552
Ag 12.17211123938054 16.501450072930027 8.397549575956457
Ag 10.767581922147526 15.20828101053831 12.614009113240593
Ag 8.419727968604079 14.51890164576975 14.111658622017387
Ag 8.887165515094308 9.880585704044519 8.758250888609032
Ag 10.155330264801414 15.176926935040346 9.879870207494157
Ag 9.224361623146567 12.83065567504876 16.12535972630484
Ag 9.362517427992561 12.642515927251345 9.038658761237954
Ag 8.546505649240913 13.601556916891651 11.540909515111279
Ag 9.184443130777838 10.892836825505231 11.353981430003122
Ag 7.996618133742894 11.581083136205756 13.846098756406098
