32
Energy = -65.96853218 eV
Ag 14.280638412814481 9.423908456965323 7.939341681882694
Ag 15.20458615445582 9.78096374745353 10.562303206071832
Ag 12.01326055442363 10.985633704776163 7.345153227512685
Ag 12.448784671493213 9.920619643758643 9.965484514778332
Ag 14.131721810555014 12.004536148801096 9.022249658912717
Ag 9.64975481202631 12.571876364752683 7.0857888190803
Ag 16.169822184659292 10.178856554600863 13.211643785616882
Ag 9.966846315948827 10.97396555741519 9.30067370730992
Ag 13.424680686551167 10.350427175290637 12.777807729317573
Ag 11.802526839441498 13.500714489672442 8.583084114069672
Ag 10.699564457440042 10.570337348253583 11.989239784318233
Ag 15.292059369677855 12.32139192391164 11.64984099150966
Ag 11.355901857355038 9.653540357517825 14.568812942973866
Ag 14.019468605426033 14.58291298664186 10.124849020967362
Ag 8.12317663272574 11.462227519744827 11.323450691814287
Ag 8.669158722508907 8.887182248341132 15.31810234953454
Ag 9.841241827316805 13.39242674764367 12.35581971982865
Ag 9.115699270342622 13.628590208472389 9.611661775284054
Ag 10.087432645338978 10.645556588451486 16.801958613639755
Ag 14.797629274305548 12.222505302490521 14.521875573812984
Ag 14.716595431378584 14.643502212805794 12.863967228866038
Ag 9.03069797487851 11.304700957201277 14.075960446215104
Ag 11.200390846664176 15.264044274125318 10.66346118237554
Ag 11.808004241774407 12.389994303842697 14.130657354631223
Ag 11.685167153719066 10.840208661876954 18.91856604554537
Ag 12.813719640588353 11.55367470676401 16.54004154904741
Ag 13.33761736545224 16.798227866246936 11.764630676540035
Ag 12.447678416335444 12.724856952391251 11.346623231888843
Ag 16.016168566308284 14.76491063319675 15.236710956972818
Ag 13.280289127191235 14.209522171540877 15.699797042331314
Ag 13.997241387354444 16.663413313710677 14.587463245706548
Ag 11.867808011669059 15.08010413946242 13.408312399763547
