37
Energy = -78.66270327 eV
Ag 16.362989779124703 14.08376928373404 13.739528833832415
Ag 16.433593821454274 11.516841475484856 14.750846907320762
Ag 14.117244798438671 13.161654304432735 15.349680934855844
Ag 13.788504423304184 14.974841999390708 13.046334140572622
Ag 11.708929700771765 14.572923436160046 14.990439455023978
Ag 17.25436109131692 11.894287329740404 12.12228637597182
Ag 14.012880511279112 10.245098060632268 14.887926746499543
Ag 15.606662124991514 14.007356959135853 10.985232400052347
Ag 11.119972213941795 15.683623357887987 12.340057359143831
Ag 11.664170955680966 11.77270614117228 15.318947655792313
Ag 14.454912940051909 12.13791480309193 12.735159173309178
Ag 9.324873540920274 15.943381333549397 14.533059145669954
Ag 15.357363287916503 9.566334439771397 12.405984676113306
Ag 9.242213318376981 13.212859543442828 15.254775858270945
Ag 11.572661537230825 8.98018614461475 15.107334032436254
Ag 12.883589779061852 14.704355680444891 10.3709499693673
Ag 11.729182265095819 12.94691347234394 12.630990232526546
Ag 15.622913669425497 11.191531012844264 10.038805153517375
Ag 12.885995095497021 11.808631494269816 10.328943593549198
Ag 8.893447004130824 14.035842250062394 12.57436668908122
Ag 9.215934707492355 10.44221510232002 15.609644222460798
Ag 12.441152072576198 10.006159416638813 12.573820346155848
Ag 13.64146786176759 9.068919424816064 10.140611035725504
Ag 8.111881405879407 11.4857383854748 13.288439612240094
Ag 10.256399620354157 13.820270756995447 10.130693809238165
Ag 13.976634802927249 10.782493746924205 7.77712742784897
Ag 10.18212028573484 11.151995390181012 11.120523344664079
Ag 14.491630802075674 13.411898077394497 8.524868808986584
Ag 9.685695673258678 9.166942891426304 13.129546710761982
Ag 11.791339224902195 12.799870154946154 7.95859391892745
Ag 11.449117477323112 10.00634813390176 8.417895961226684
Ag 10.921875147901488 8.447115430494028 10.689745251960804
Ag 7.682844533781365 12.488329852564656 10.6062489738648
Ag 7.7828170548346405 9.66080257003409 11.151732292397908
Ag 9.23470022863806 11.767432653585498 8.369710998523713
Ag 8.938361114573425 8.986451211807395 8.725759519123146
Ag 6.629829384469815 10.597573710352647 8.784797155290407
