37
Energy = -78.62601079 eV
Ag 14.165129625372574 6.821625523248098 10.670805404745305
Ag 13.590708857297617 10.372625374053621 6.785851588683243
Ag 12.868120525586908 8.55820410326854 8.799581105561694
Ag 11.810339144770309 7.972834541777903 11.36765301188586
Ag 10.914222777381335 10.289398198754409 7.541034636988361
Ag 14.492171146611286 9.526243204293822 11.020216369743606
Ag 13.68048099093613 8.127187685896015 13.36967932342759
Ag 9.892168186936868 8.611862820874732 9.464473169487194
Ag 14.314982745095572 11.679853741452996 9.085200005746042
Ag 9.180494219028926 7.084770106286988 11.71591789371515
Ag 12.236478252584497 12.776188267047052 7.436295134236483
Ag 8.16534501484112 10.55500504528918 8.407564824473104
Ag 8.074726561578204 8.219411709086003 13.936814563299494
Ag 9.513431225046617 12.570603351830556 6.660412917437257
Ag 7.385348342109186 9.090411670332978 10.774324627703075
Ag 11.896130976716625 10.668905611916061 10.337252874132647
Ag 16.302288880936356 11.666215532585165 11.062339073024637
Ag 10.008450259175396 12.442312166507891 9.326656833442685
Ag 12.666987242911198 13.924013305143282 9.927904571189224
Ag 10.876293070465557 8.092318176307732 14.009300334824712
Ag 15.077459176659607 10.589425284322296 13.599528159854215
Ag 9.731107573010146 9.934723405245727 12.07572598126319
Ag 7.092288365877316 10.654149543110059 13.22160683077474
Ag 12.210241309561194 10.57914553787048 13.663401178362532
Ag 13.801599753594326 12.284080471254752 11.833530321322643
Ag 7.761521846992794 11.94516078632285 10.870303762784584
Ag 10.554774443223002 14.946041658736746 8.351555757516975
Ag 11.269069711543345 16.141827812564554 10.823161559343548
Ag 11.00304896500643 12.694139313788362 12.07315291263372
Ag 9.52748319048489 10.573569006917197 14.789872243386167
Ag 13.76055809569495 12.920069966058527 14.55639189660899
Ag 8.57022667191389 12.978393271538174 13.416255016677258
Ag 9.047054443526262 14.46857908522008 10.958626691663365
Ag 13.0292114800871 14.85182797972766 12.608006457978853
Ag 10.993191866031541 12.930231221274504 14.946273131278238
Ag 10.359166481101601 15.224160797082838 13.401050600291157
Ag 12.459789329046167 15.30466219695126 15.296880638493542
