31
Energy = -64.90122097 eV
Ag 14.360932397923383 12.223381796125993 9.603937350566568
Ag 13.950902256749025 9.499373685379155 8.476033943566637
Ag 14.202950339987362 11.990373938796772 12.68986324318313
Ag 12.837612542686069 7.292086520236111 11.66221356683219
Ag 11.581151012067352 9.421553501579135 6.801066916725193
Ag 13.677682946552055 11.75847704685743 6.780913267780253
Ag 12.188244629400868 13.217912808149817 11.113537395847104
Ag 11.385576173811398 8.602595106452256 9.549642493928264
Ag 13.035129274390151 9.229156224823178 13.826177452570198
Ag 12.287638763582182 13.9960391240194 8.296531326045326
Ag 10.87570860141365 12.19920962538706 6.371832777213332
Ag 13.052455284958585 10.162097996808239 11.122569879042867
Ag 11.866784225269164 11.343261538955234 8.785989613174323
Ag 11.477965008877986 11.591884330721065 13.370265833070786
Ag 11.088357046268026 6.754258576479665 13.831147002808516
Ag 10.45187125897441 15.1655670517805 10.1692407175708
Ag 10.71629443090906 9.00209719317664 12.31721477576651
Ag 9.991670062536521 6.621249478580683 11.112189208976384
Ag 9.471903680127964 13.111486902910414 8.628351653606007
Ag 9.604230502938192 13.494815143054131 12.333635841929645
Ag 10.398842638251713 9.260243596113195 15.027181898845708
Ag 9.230890476737109 10.344906388488118 8.143412090065178
Ag 8.359018436654758 7.981850274542558 13.237726794963216
Ag 10.059673755967834 11.198782404091657 10.830542372396769
Ag 9.409555565363249 7.523557832340342 8.117529754412264
Ag 8.37364266919124 8.82523492036564 10.426000329945918
Ag 8.738690894235909 10.91666564884372 13.475219140932545
Ag 7.729514062396508 14.371877106568308 10.416909614441929
Ag 6.520988478579633 9.902761969215518 12.190758826649338
Ag 7.420456189430691 11.516167885523368 10.012563141767094
Ag 6.825505111549532 12.709746398951367 12.499277295776558
