37
Energy = -78.68138706 eV
Ag 15.828107067083456 9.80113381062479 12.553930008613538
Ag 13.775268709920745 7.967702239219413 11.51897003931794
Ag 14.49905603171565 8.164289586570225 14.395019111706427
Ag 14.270239398055258 10.598350778738897 10.404573791401752
Ag 14.886936790421474 10.95013488003989 15.041026438877322
Ag 14.245407730616401 11.60025168585573 7.728655106135176
Ag 14.762258200426995 12.51440233099445 12.698307874097308
Ag 13.06010964406519 10.237026452628466 12.991702714620946
Ag 12.700826347930798 8.748720254580137 9.029872062507982
Ag 11.847447209774595 7.7691945524949855 13.61222531058184
Ag 14.52804145953731 13.326563417792334 10.017791894722258
Ag 11.74029538909358 9.988528165092807 6.683845780157746
Ag 10.992210359762547 7.493283018324871 10.926754509357389
Ag 12.412690154724174 9.735784386808648 15.645586289005987
Ag 13.481972246679774 14.550032703996102 7.811851067375452
Ag 12.008356839643554 12.74396932088822 6.350917597834659
Ag 12.233127844973641 12.625698218187326 11.536509001924445
Ag 12.424400938074756 12.471198513481289 14.518403832596437
Ag 12.489794554205956 15.224706977242281 10.464429800974655
Ag 11.878904440514278 11.502144362500792 9.022262062630176
Ag 9.922172904373788 9.361516810369462 8.763315733177357
Ag 9.515375313853989 11.765036906971323 7.37646553629167
Ag 10.786890357152705 14.195850291411743 8.463982484520441
Ag 9.77628820284259 12.683511505021485 12.796337272210796
Ag 10.049023309450256 10.550168734740263 14.487797036001805
Ag 8.235705439923484 8.38277636280922 10.666248562886524
Ag 9.196694179737879 8.206806952123488 13.206630360529116
Ag 10.652831554802683 10.190991191548392 11.55104673928711
Ag 11.503727804070577 14.835547510888167 13.208407898196201
Ag 10.001071602187823 13.479687269175598 15.426184306275745
Ag 7.391752436053534 10.757036747152531 9.486074847287059
Ag 9.699334923107793 15.014563133148636 10.981677034333135
Ag 9.468054411630083 12.370379599702083 10.065291287927588
Ag 7.544307386568674 12.444488326937805 14.395631898633185
Ag 7.83987692979842 10.569056409744737 12.3422743119514
Ag 8.454142525639867 15.02375287485981 13.494892689711461
Ag 7.27689649441967 13.217060780413895 11.550600303900868
