37
Energy = -79.236359 eV
Ag 12.30761556547312 9.039637931358635 15.599135874267215
Ag 13.722102633153352 11.174684080274869 16.62852808148277
Ag 11.053552412448669 11.525106141392905 15.61315287908057
Ag 12.483581394068187 8.004314853215732 12.999827443259347
Ag 14.600779072168118 9.717074577385036 14.147415614235202
Ag 10.1163852903105 9.30226442612537 13.944932329702434
Ag 12.707071802126315 13.738756151845205 16.183757230531995
Ag 9.906616118651286 7.208690046076088 12.094801759221035
Ag 14.525710908192142 12.55114620942198 14.369677970115804
Ag 9.00774990944135 11.799896550168068 13.702776781668971
Ag 11.77253993706482 8.27597458157848 10.292671252156689
Ag 12.33071805802448 10.952232127241084 13.057302050021605
Ag 14.273322337405784 9.30471168561093 11.2899750524614
Ag 7.903399898216519 9.231650966141352 12.213787946966349
Ag 10.39876262057728 14.053395953095976 14.573714034739035
Ag 9.979967312057786 10.688694958565561 11.210702748348641
Ag 16.04560217534976 11.264235164695462 12.313422130287536
Ag 9.001448654676794 8.316841418774604 9.713398895936532
Ag 7.278476924621567 11.859583805877314 11.560085325114722
Ag 12.490296839153824 11.294987805212271 10.270526128776089
Ag 13.542598003848532 9.435724928822768 8.468021972130614
Ag 16.74161445269015 13.476057809076654 10.714699998626559
Ag 13.00743200845524 14.81647493715702 13.629156793823807
Ag 11.236358561281842 13.273473733513253 11.866989932109167
Ag 10.776102794985576 10.047300781376343 8.305467492797481
Ag 14.154921838734156 13.187026960046962 11.697869276299103
Ag 8.568602870411581 14.237635289810944 12.281290371671245
Ag 8.104104238450983 10.895792165860566 9.066676840737866
Ag 15.237469459586588 11.411472292450467 9.55253428555108
Ag 7.749163088278958 13.720069296387763 9.577438935558153
Ag 10.315322213952903 12.706272687927898 9.017484835438351
Ag 12.90868241563597 12.1160027645893 7.68186564960877
Ag 14.54606593718378 14.055717080223573 9.016941571208557
Ag 10.708596253923421 16.060430525278715 12.63733859407063
Ag 12.774854829314279 15.463318042044069 10.784991592606906
Ag 12.01841250037121 14.75218495948693 8.181200255493154
Ag 9.997913425445228 15.335081067622214 10.034354829627135
