37
Energy = -78.81092474 eV
Ag 11.107359891998843 11.585794823491382 7.486752253327841
Ag 9.797029625796881 13.858984812044467 8.40134088771066
Ag 9.786315606357777 9.129672327008912 7.315489168653577
Ag 8.439513651228351 11.355153076140002 8.385608079984157
Ag 13.67515653381647 11.32485026921848 8.41956407008237
Ag 12.309601941291426 8.855077425033999 8.36328754288201
Ag 14.48728441697549 13.950265251279191 8.92343678160616
Ag 10.320390891236082 15.28898180322867 10.711804550683985
Ag 7.418176131406429 8.58917154437083 8.526245844937272
Ag 12.021312692838327 13.1354118251497 10.01106380134962
Ag 14.836335990315535 9.004161594441998 9.596251016319238
Ag 8.068369978721416 9.98857913793448 10.783139034854292
Ag 13.14596089605629 15.676924344685396 10.721456719325952
Ag 10.878962990724707 10.578887125128622 10.132128643475033
Ag 16.02381262367054 11.71008665785837 9.851696079666809
Ag 9.037232258104316 12.774291903119238 10.870323632829816
Ag 9.879680407124289 7.944112468628498 9.887679315680804
Ag 11.366553789597566 16.85802943208068 12.713920526766582
Ag 14.80736346910342 13.52223064465207 11.643965097579683
Ag 13.571984570662426 10.939388114452095 11.268173004778882
Ag 12.439624546814676 8.250925798590695 11.115907615271077
Ag 9.899900647506518 14.501459638439957 13.371433385013205
Ag 16.142400568808096 11.188409423994056 12.592241030484146
Ag 14.952968825175068 8.62457000278582 12.366899585239416
Ag 8.420373074927596 11.264874996095122 13.167164211030348
Ag 12.652181216047653 14.48711738431549 13.148509802805822
Ag 11.277735013474027 11.922998284317137 12.636748904855121
Ag 7.313092332784526 13.766992795869076 12.92475954025036
Ag 10.132972939638975 9.128409800377831 12.513081458389925
Ag 13.897089010570562 12.165129564137162 13.998019202308743
Ag 12.62867605391237 9.439501943437014 13.737729570765122
Ag 8.766876974895636 12.902790856145208 15.372933961486686
Ag 15.183835264261546 9.849317592847513 14.88226055519309
Ag 11.558222277454941 13.149543510711705 15.291050174256464
Ag 10.313381991777229 10.45462294355578 15.01583987937933
Ag 12.81951875991942 10.778122558101053 16.251103221838633
Ag 10.41394762587019 11.817906904261537 17.425816931322508
