30
Energy = -61.39505187 eV
Ag 12.016978023328473 7.5129393805219316 8.30515549094364
Ag 13.155934686824448 7.3902502986657765 10.853304529000438
Ag 9.255558394295006 7.501924986186841 8.04132129095372
Ag 10.378293501837884 6.827631666313372 10.487235793150447
Ag 11.497807326812998 6.905306210521747 13.060436582345716
Ag 13.000491491224354 9.834290743781864 9.486480151632424
Ag 16.80046114555339 11.657008007292665 11.494145338024861
Ag 10.723936916721268 9.96676852276254 7.949886042847582
Ag 15.14362786175563 9.453064850092396 11.218939401432165
Ag 14.326372823944618 12.173832585377136 10.344415149703577
Ag 12.893474982380004 9.28160782532521 12.870887205650781
Ag 7.9679912852004 9.936040601201752 7.8504719942964005
Ag 8.059569711723473 8.550080379200072 10.302130630050634
Ag 8.830856755551823 7.4906397406076595 12.687299126077194
Ag 11.995700600416368 12.350958378615417 8.82655586876872
Ag 10.413635474351189 9.30989420601438 14.115707432640628
Ag 14.540447295009141 11.535240571165621 13.051597777230702
Ag 13.239086727529726 14.65614939460007 9.752969067760159
Ag 9.298037723379931 12.394240414922427 8.208684480509516
Ag 8.174642558082237 10.175433501324699 12.651626703768507
Ag 11.908055072258499 11.719766432400835 13.796357859609097
Ag 13.113664244225298 13.802081561599838 12.39728886702472
Ag 10.472035709011601 14.627421622262032 9.477264671749921
Ag 7.535513737709583 11.334176747111247 10.216729240292766
Ag 9.290097317688142 11.871893864672941 14.591841598161794
Ag 11.668874070187071 16.006490209367264 11.629904849965577
Ag 7.785884077995773 14.060306347415699 9.84808862345808
Ag 10.536811109010692 14.14058516277723 13.490912216929294
Ag 8.167900347550075 13.041739449806855 12.384272077550156
Ag 8.951236742655883 15.643832720135809 11.757509588438646
