37
Energy = -78.78183776 eV
Ag 14.243234236739841 12.235092929605553 7.38239649039941
Ag 12.012709453234834 14.18477125872894 7.054110738498312
Ag 13.37723316678512 13.992640952870419 9.421561184953989
Ag 14.74568193947113 13.937081631226025 11.804917305822181
Ag 14.978295582481936 11.75325466964101 10.038561641967584
Ag 10.537936147520977 14.05304271386769 9.551502865916275
Ag 11.636702660351432 11.64981359775483 8.072301522322444
Ag 12.088510816014905 13.066233702289308 11.782061705763981
Ag 9.351837957756088 13.261693598993348 7.185198978900491
Ag 13.67925428528973 9.703523164896193 8.520854916073569
Ag 10.158202583741087 11.309261321550952 10.447102892211873
Ag 15.119989291242796 9.056074287619152 10.867230925449707
Ag 14.73838276502161 11.147359759440441 12.788817200428197
Ag 10.165403654084743 15.978010156115994 11.57530600195899
Ag 13.833123279771469 13.285322352120678 14.305385837232217
Ag 9.02010180442864 10.550124807491137 7.536920620835053
Ag 12.167401765918015 15.318040224553704 13.37676368227976
Ag 12.578220936909304 10.313547982613283 11.083296096576174
Ag 12.74435987583149 7.573250781668612 10.443484745137638
Ag 13.491538787774582 8.500467612722243 13.089832177703132
Ag 9.358756657630678 15.168591955749676 14.134638597372478
Ag 12.946102257129903 10.725509042351948 14.920751773237262
Ag 10.978196549551434 9.02508578607516 8.849352408155585
Ag 8.85697353135315 7.7248152114060575 7.588684766736403
Ag 9.069606725103238 13.49252511640707 11.935491963722939
Ag 7.877091716285281 12.377368898568447 9.47733299812548
Ag 11.179012214235433 13.279720974883592 15.04614747589227
Ag 10.676771329652084 11.135088668593925 13.250974470134597
Ag 9.949595569880964 6.753042651253506 10.0749340967776
Ag 11.401866929281192 6.511198584531399 12.623991862573103
Ag 11.132057063903327 8.555544870111493 14.541736499036835
Ag 8.47216212080608 12.462549851917615 14.484487422983289
Ag 8.200119678437517 9.235457303483239 9.837517316918175
Ag 10.347636930797572 10.85005690100551 16.079847552446672
Ag 7.860527086999247 10.96723053082888 12.030022135515944
Ag 9.966344925677385 8.765141778226278 11.93863110906382
Ag 8.517681635628747 9.561088281558701 14.316473933599225
