31
Energy = -64.64466091 eV
Ag 13.641050927329998 13.221010235833027 14.342804673278843
Ag 11.654760038713446 12.72550207789729 16.374378736688456
Ag 14.894038909599653 10.935899067672873 13.2246608388773
Ag 12.604134497783678 15.128835023888357 12.54928219351608
Ag 10.86643617525497 13.410401510304517 13.81210196697363
Ag 12.390947124451104 10.710038339125276 14.653057767534294
Ag 14.683699871457168 13.554331433674871 11.638740700060492
Ag 15.395958455786687 11.154929169055968 10.489482641295867
Ag 9.588821104355262 11.253898470964176 14.970744285910918
Ag 15.480224681981205 8.635659833340279 11.458686581326415
Ag 12.467126935315267 11.773910987590359 12.026472897958953
Ag 13.015712753632236 8.966793639534913 12.545457865690961
Ag 10.695911329451842 13.778454413166367 10.975807242239586
Ag 8.837367736403387 12.169406507181247 12.253777623671382
Ag 12.806583708137373 15.150196680100636 9.770002495997943
Ag 10.379848900199137 9.779952672918556 12.686623996122034
Ag 7.657096202493798 9.94241464100641 13.350316786455043
Ag 13.157741427101382 9.517333392716539 9.723172941557156
Ag 13.293295444045107 12.491726602760005 9.354535443391844
Ag 10.86457362236169 13.365805009083768 8.209645523920967
Ag 11.16394436526321 7.814947629240542 10.807791074127136
Ag 10.667186913603306 10.979582123673715 9.990442979687863
Ag 8.407194288942437 12.811423556416807 9.540272197586413
Ag 8.425362617059923 8.273337628255549 11.286259244644995
Ag 7.017473910359832 10.652177202839136 10.724871958429986
Ag 12.0874703474982 10.895358660930127 7.44545638654848
Ag 10.711036264787117 8.658805272899718 8.207243046607877
Ag 7.906395272524346 8.951158890421102 8.608228755209414
Ag 9.216680221572055 6.568698408959641 9.254625111648156
Ag 9.293430226358762 11.11823304213857 7.438873239237322
Ag 6.582936867131423 11.329107549822014 8.07495425917142
