39
Energy = -83.14497728 eV
Ag 11.68364500810462 7.556029410371202 8.35087814589842
Ag 14.43118268965171 8.599911357909766 8.149154920567888
Ag 11.52314936654432 5.874103882197018 10.981750471712552
Ag 13.900240520685328 6.613644868069491 9.885402531009278
Ag 14.978141996254097 11.147120531965594 9.045896261737536
Ag 12.341526968225937 10.362678304381138 8.254005049801142
Ag 9.602244324789762 9.51640490278323 7.800514133820569
Ag 14.849796555498543 9.762699439592275 11.532375149574904
Ag 12.281648643481619 8.827742780177596 10.741772528108058
Ag 10.848489162332168 7.640456327295273 13.030841828986992
Ag 9.620602017745677 7.7208501342212505 10.288349564943944
Ag 13.660817136614844 7.3047142426322464 12.61030502848577
Ag 7.4950803333500975 9.40405950725285 9.863593186277567
Ag 16.00063516257151 13.779504453402762 8.895581325226853
Ag 13.272560824361044 13.166008288800734 8.274128812222033
Ag 16.293961686386222 12.194109945805696 11.223995416717194
Ag 10.553621503251861 12.360534689686858 7.800202771743718
Ag 12.583099769788884 11.741726756176995 10.833638000799976
Ag 10.098620429101919 10.600048178697016 10.21184458874411
Ag 11.363650763385914 14.977958268882555 7.323896673231195
Ag 12.665994209851346 9.835390530008066 13.378073064090945
Ag 8.704595010150028 9.266427226941104 12.537131883001052
Ag 14.244097659968025 12.178141992087422 13.132933461019837
Ag 14.240275296496684 14.091585223248552 10.9727909647783
Ag 7.9837670736176705 11.931889175528674 8.759852049022868
Ag 10.455078166582865 11.55956757124888 12.771584436797987
Ag 7.707753716122412 11.674671438441871 11.603155462779688
Ag 11.656043616456259 14.572686193290215 10.073110766893288
Ag 10.305947237604277 9.67128930835132 14.941271167798346
Ag 9.442071153916462 14.088808070259718 11.696776930802969
Ag 9.109649918813501 14.504837871255784 8.884557033030626
Ag 12.065187847413249 12.11424533659229 15.00424879019148
Ag 12.069241170418431 13.942991182393582 12.772499841985399
Ag 8.084939172032218 11.392269751164047 14.416010680598395
Ag 6.891686266493213 14.02277157413401 10.480075239305902
Ag 9.818650229260282 13.81889079806246 14.511394830149325
Ag 9.75929745949704 11.888992084869614 16.596553283437032
Ag 7.170026131524982 13.853959690822823 13.343296558186903
Ag 7.539542824742915 13.615781733837347 16.088346432391226
