35
Energy = -72.49030144 eV
Ag 10.201165293512004 12.637593010298787 10.7454600320186
Ag 10.975828318904195 12.946876314039862 16.331401898704023
Ag 12.570095722184053 8.308478855582004 15.157196481642663
Ag 13.656452259762087 12.348531348521277 6.64993924763368
Ag 14.05174467346303 8.179954980707123 12.653590595409955
Ag 10.535309463323483 12.409460496009837 13.58915386932779
Ag 10.792539870557396 14.651728155281416 8.844243593672164
Ag 10.500253259251743 15.011701025041175 12.426047385799826
Ag 9.247803680667143 14.71767578542357 14.932976567040328
Ag 17.178792219096138 11.560695491065657 10.946864022736913
Ag 8.13120493575724 13.353818037857518 12.639826975047646
Ag 14.967271712455343 9.714808993291799 14.808554532386557
Ag 14.28270605890284 14.947317355706806 13.123188826846661
Ag 13.399386364004998 12.784260749540314 14.696466640687104
Ag 10.589417211936352 16.936879633143537 10.453305134562683
Ag 10.532020123431613 10.260466316958325 15.379316005089661
Ag 12.53219536759005 10.388204085858677 13.34715124899587
Ag 12.863402267624325 15.267430765104999 10.662267019241959
Ag 10.967769395316472 12.405324754758828 7.240521176893217
Ag 8.37484815764414 12.071906756980477 15.24704925739127
Ag 12.726892564925048 12.787677883312215 11.992571933185639
Ag 14.39150917666785 10.649191262271442 11.16474396918679
Ag 11.993158766338576 15.204766169112494 14.888484600134591
Ag 15.623125275021465 11.996731755836553 16.26719608758208
Ag 15.76726039742765 12.213171364113268 13.31616957047725
Ag 13.55724644308454 13.548806957454522 17.29850911282542
Ag 17.579791471027974 10.61081209675755 14.84657068139175
Ag 8.453913796859313 14.986509296576648 10.358517839454061
Ag 12.359547036568872 17.04980702613976 12.788916650208304
Ag 15.343260206805924 11.644335950953298 8.701213181336467
Ag 13.027455667369988 10.782656303527395 16.594552780131842
Ag 16.56315383557637 9.405166647244 12.545531263668847
Ag 12.848896460977583 12.700038134841545 9.248035940353066
Ag 15.14619190462464 13.479135031904313 10.841826863823451
Ag 8.562923685823675 12.930961591146115 8.517149134138602
