39
Energy = -82.91954506 eV
Ag 14.572583431609901 15.14104621426897 12.571314259356596
Ag 16.285515368059617 12.964071030095996 12.441783391804734
Ag 16.416385678304746 11.371061142382175 10.089712514000306
Ag 16.24160619022313 9.656708494105944 7.773538036113531
Ag 12.750296092522268 15.491668080041123 10.419859177588368
Ag 14.16633930575358 11.345929799541448 8.449121775139819
Ag 12.427317030418465 13.44847933480782 8.390151666509432
Ag 13.61059905980044 12.636495396273798 13.544987247725217
Ag 15.092308870718515 10.469710287014802 12.43881616247088
Ag 11.82611800831202 14.791303324744023 13.126067340012037
Ag 14.110303587735677 13.06432579926119 10.68417789517324
Ag 14.790466994301712 9.043052145105595 10.026456586147733
Ag 10.206698797372624 16.24508007676795 11.359710526076396
Ag 13.38757326052599 8.765351329140694 7.613895166810654
Ag 12.884667529901396 9.944279577345457 14.12707033941659
Ag 11.052437251437725 13.351752201802741 10.777919901851243
Ag 11.468531845893198 10.649122380806297 8.381474266330798
Ag 12.51842554829164 10.775701405999687 11.192151092081247
Ag 13.601577203413033 8.042764027337697 12.294001336797333
Ag 12.116246547150931 11.863325793087403 15.88850258910633
Ag 9.707349880802267 12.762605679459199 8.279746586786295
Ag 10.877596644426086 8.779329631178486 12.546971839116903
Ag 10.350330806475903 13.889163681869901 15.333154605106813
Ag 10.825469822056878 11.912439541203153 13.225007764009627
Ag 9.01684682920363 14.327526464531667 12.948244772842942
Ag 12.008080635936425 8.231094901142242 10.01372533625159
Ag 8.4310472759168 14.396077791106185 10.20433315178303
Ag 10.529889463287724 7.992267468944272 7.7538704177925615
Ag 9.67279536291268 10.908593022357456 10.669429041283738
Ag 9.558684587344752 11.74056762419074 17.00579225647516
Ag 10.10346382911037 9.796128061686957 15.053150389742044
Ag 8.278962353296025 12.084145368005483 14.553588023691058
Ag 7.1005761033140855 12.23510696948564 9.04316276982353
Ag 8.749742103295853 7.145031863397596 13.042715315485298
Ag 7.435998125801147 12.287638524417336 11.861638244953072
Ag 8.67633369353964 10.037249529662358 8.151944345291781
Ag 8.250305805176321 9.802401540885342 12.925821560906153
Ag 9.190746215641841 8.071086362324833 10.351177654296574
Ag 6.982699249473038 9.841524538751411 10.458394933806666
