32
Energy = -66.96292345 eV
Ag 8.168102043005176 9.920384828722879 14.325713088368163
Ag 11.042008246358709 6.8544875834245005 11.757555677824636
Ag 7.430928244164303 12.631283189450624 14.206856882328074
Ag 7.6548320675520545 11.141073978781709 11.81077981502213
Ag 9.992407670745022 12.012749315071012 15.18003612473484
Ag 8.666985775101375 8.482766129227393 11.86288116175871
Ag 7.184597767447601 13.896842387913791 11.723863421210876
Ag 10.41832020443834 8.260828707724835 14.095600937793122
Ag 10.442364302807768 10.688601880761858 12.756452381280154
Ag 7.674308862992021 12.601320787419306 9.254854483393334
Ag 10.961355754520962 9.283218115563411 10.307422466802597
Ag 8.382625601305794 9.91579681029105 9.432039242436552
Ag 9.708960867525787 13.612103558042865 12.884512852017311
Ag 9.390698666131959 14.770271321421857 10.234466043943867
Ag 12.266893814130993 10.354248084344007 14.883566358788364
Ag 10.139742196314867 12.092315898688552 10.329220966589245
Ag 12.856793050236789 8.854770250681021 12.557868603311563
Ag 12.334392511120221 12.888168786327007 13.707283776383404
Ag 13.27075265896563 7.699480231521638 10.035963615231653
Ag 10.618864775118022 10.878237112005287 7.900266634448262
Ag 11.997112704411593 14.285774393490764 11.276306651765061
Ag 11.603628450933282 8.205405811554641 7.80483591905172
Ag 12.74369922609464 11.442761040907936 11.213236659170729
Ag 11.681496667464483 15.64472304544968 8.897734163616953
Ag 12.431609922472123 12.923569448816446 8.676179309883183
Ag 14.583875815001832 11.037762394108924 13.396030152850862
Ag 13.31077518992722 10.206711059373355 8.614040430196434
Ag 15.046278661817956 9.713450122526769 10.84382726445227
Ag 14.594451207017041 13.508534561714766 12.013611991136585
Ag 14.27569239059369 14.881149757129116 9.60194350497488
Ag 15.075799582366352 12.208118990167492 9.445678398891687
Ag 16.729819003736132 11.786530362237642 11.642122642765004
