30
Energy = -62.51834045 eV
Ag 13.811855496692882 8.638679419614634 9.02145816807023
Ag 11.73788541972735 7.399504524757177 10.869726729543387
Ag 14.286013786148253 11.003627685316914 7.473412999777805
Ag 14.426217950771159 8.317607830974989 11.741244601266201
Ag 11.722973187186252 10.235505957313542 8.216315037039601
Ag 14.731817683246451 11.129465998564712 10.252261598040183
Ag 9.647396572635758 8.250077802580396 12.535026598460693
Ag 12.04159893107076 12.369141874487111 6.488590442458386
Ag 12.289547428815894 8.205192165084492 13.536302048285503
Ag 9.691274270124385 9.653576592675135 10.060097067035446
Ag 13.26720497632762 13.16663007564681 8.941316040764843
Ag 12.326227353457272 10.034812284462632 11.024963339459028
Ag 13.855711444681274 10.580293805658787 13.375891423958269
Ag 9.522054345935528 11.675492089557117 7.56271911501564
Ag 10.775483048125094 12.230522827821876 10.31223622494322
Ag 7.360967823198433 9.652301972011406 11.585351051370159
Ag 13.169503868037264 12.861180736658156 11.822212244736722
Ag 10.71611093884695 14.24801847046815 8.121235919045699
Ag 10.929364572564397 10.804518891545348 13.241750945573854
Ag 7.751471502843878 11.733596343788594 9.670878020012774
Ag 12.172907659643498 10.27430812688392 15.69335369414102
Ag 7.954292055661349 13.958230855760757 7.916035267397484
Ag 10.171310654009613 8.376757258169983 15.311686024374792
Ag 11.791049841175962 14.942111482240549 10.569418472830145
Ag 8.575145755639408 12.080771330119196 12.32450429631003
Ag 12.576144309990573 12.792334652902653 14.59274117224
Ag 8.99971861909309 14.326423201556892 10.464764602673256
Ag 8.281431751259955 10.042961729216586 14.21694931915207
Ag 10.652042770796658 13.814708025427729 12.864143563012757
Ag 9.838943350367035 12.246287548727425 15.250545337222293
