35
Energy = -74.56984424 eV
Ag 7.941654088036724 10.519815998289225 10.913597702487925
Ag 7.177673732108071 12.35678594302763 12.855500653891887
Ag 7.8439517190152355 9.753884307274756 13.572957381634035
Ag 8.879895316416487 8.69861862284917 8.92101352124237
Ag 9.18502057191625 9.871524299222058 6.319875710058679
Ag 9.045053757711083 11.489348387689407 8.560784905282887
Ag 8.328772776056725 13.355634140712922 10.519069524671803
Ag 9.282355407347959 8.117354738570992 11.796281697015544
Ag 11.166793361783773 7.266528308611687 9.793438460440216
Ag 9.292125278952197 14.137061288859345 13.188101087276122
Ag 8.98131812937753 11.994454250527733 14.968897395775153
Ag 10.488963322462192 13.847561922280745 8.677716874000044
Ag 10.834937145645492 10.019249216981917 10.507563128022053
Ag 10.682665950631325 10.0830845837389 13.421262427280121
Ag 10.274804619363486 15.420055713187447 10.972692782648584
Ag 11.475286269140787 9.350994127705052 7.826716695325967
Ag 10.972243599252513 12.654957080766929 11.329144430977351
Ag 13.057904733719148 10.885245506421395 11.982205408402242
Ag 11.113335602849522 11.890906170797336 6.72436997695701
Ag 13.477853109513097 8.89804668617233 9.76779908826913
Ag 12.184056174096396 7.9872151662912 12.281676389692553
Ag 11.093201890845181 13.825037965548757 15.259243403076827
Ag 11.56662681806473 11.1586791252371 15.890208475133859
Ag 12.842737697921923 11.597113106867535 9.072959250140666
Ag 12.256161453414695 14.693987781701717 12.895115689922873
Ag 12.982733807794123 13.844779660896016 7.4313816628151885
Ag 12.837506235330457 14.598846247837026 10.123508246043484
Ag 13.390079586448737 9.606838783510733 14.436694879512556
Ag 14.889616531977751 8.64308335078126 12.175112107845264
Ag 13.412840019528772 12.548767235126753 14.34725928511423
Ag 15.407525723005483 10.890242352791871 10.441498582158571
Ag 15.584116949770488 11.11699755053194 13.291356385192291
Ag 14.599341141870923 13.360941569422122 11.909748384614408
Ag 15.134813247028358 13.300079534099847 9.148207478609034
Ag 9.456910445341858 9.351115909688675 15.811421292112925
