33
Energy = -69.22742998 eV
Ag 12.385066866468394 13.421341350133337 13.847125131577826
Ag 12.662979070809367 14.665464064630045 11.267934305903308
Ag 11.412594335898687 8.745897939332758 14.766714385848054
Ag 7.37896252758206 14.522365144241554 12.272863669270375
Ag 8.456677193148504 13.099806539627822 10.0316839608716
Ag 12.577259409236666 7.216370898974457 12.651536996045378
Ag 7.789777701479409 7.1205852147480835 12.02213903919585
Ag 14.78810326865184 10.432555370661209 9.549971086120202
Ag 10.980699201441485 14.005325748415931 9.122121896624261
Ag 10.04742365622104 6.570497159221166 13.574928035487432
Ag 9.875120194864106 15.28288691433815 11.33714447320674
Ag 12.914288196562616 8.209191124165896 10.071750897124172
Ag 11.70235053679172 9.913620510031732 12.091700553948625
Ag 10.682106311490877 8.833141319162216 8.378729415038881
Ag 14.324055443237619 11.46246247053043 6.950516748758121
Ag 11.680897293872261 10.474185365230488 6.328699247938802
Ag 13.681824490247909 12.013205490663177 11.664880302442668
Ag 13.26565084644961 10.802660553326646 14.281817034138376
Ag 14.45883603687102 9.29853390308326 12.140646183945618
Ag 13.557121320723805 8.873388100180069 7.517813478853317
Ag 13.837218784424765 13.255681067007597 9.090949792561961
Ag 12.03881272891804 11.080720125099552 9.340376858271933
Ag 10.27318655403461 7.659279187656973 10.924883110053994
Ag 12.12931146445816 13.129895406745769 6.822378140135982
Ag 9.356781289774394 10.365426547566413 10.421064663028758
Ag 9.724691895151341 11.724576461768821 7.9097302730183605
Ag 10.52103061426433 11.40409148003225 14.44761461064735
Ag 9.104604311268092 9.225145211021802 13.25205923663422
Ag 10.818897880752385 12.567605882742136 11.642151728764528
Ag 9.643803111155451 14.02871914545202 13.894770963466529
Ag 6.8969116474987615 9.715884891954701 11.609563704332814
Ag 8.227695883541186 11.867246717643173 12.809382091211203
Ag 6.05257458652061 12.321956624333627 11.16441804394223
