32
Energy = -67.09500334 eV
Ag 6.9207423497921745 12.163327645322765 12.797350421937548
Ag 9.612704541711347 12.380134555806366 13.746541648421024
Ag 8.208662634275656 14.201261031046023 11.542954550141983
Ag 7.009823331822451 12.366707873644476 9.625860160706509
Ag 6.330029899367604 10.064753147505307 11.11816386949171
Ag 8.214121503930322 9.77291700855067 13.281006184403095
Ag 9.175345891510919 11.442570044301062 11.159903254552725
Ag 10.920916907662155 14.061085994840804 11.769531936919178
Ag 12.423884008670825 12.234264580749922 13.454723741474199
Ag 10.976886305255704 9.91630497805482 14.131782574604863
Ag 9.531191056431831 13.66328579445567 9.184192142790259
Ag 8.078292320696685 7.975579247014159 10.933640472858078
Ag 7.555828386349828 9.706573515259903 8.682033188843741
Ag 9.374394132868085 7.30013880474757 13.270618362500027
Ag 12.178159223142561 14.339922146736258 9.210551902698532
Ag 13.669183292868494 13.891088105887683 11.484308116474566
Ag 8.62680919837087 11.866957322974612 7.2914675369684945
Ag 10.839171611850036 9.067657787566635 11.459256660071883
Ag 12.08416900249794 7.3780130240758615 13.477718951045325
Ag 13.897884290206147 12.180035089162779 8.654376539703993
Ag 14.944331855602066 11.489537938280534 11.269658789186566
Ag 13.447690407545574 9.610701589214417 12.576755691101402
Ag 10.401776713977375 10.25535514558387 8.959937276802945
Ag 9.170443232464757 7.496248668975298 8.45124332267698
Ag 11.355214115064545 12.456770609017699 7.355525142781829
Ag 13.201791205317086 7.222717392686008 10.963426159881537
Ag 12.077376916069412 11.616614533174317 10.738104694091291
Ag 10.491157356174584 6.404850051386895 10.719458470485296
Ag 9.981979478398369 9.406959477205634 6.505343744453679
Ag 13.940124877478777 9.503058869822057 9.64983738411375
Ag 11.909802938650207 7.796637121711332 8.595286816456495
Ag 12.741730624173261 10.041399582252602 7.200820708669222
