35
Energy = -73.56754518 eV
Ag 10.364896001664567 11.025043922781833 14.752032840375298
Ag 8.513695907357489 12.609563094802203 13.220036800800056
Ag 15.456094583491074 13.108936805998733 10.453013468601931
Ag 14.725329575419062 18.00818518174172 12.865723269621306
Ag 15.044676324076383 12.423400804219813 13.227838491265627
Ag 15.138533090196232 9.429394941894307 13.632523752188618
Ag 10.857518461475747 11.820260535637306 11.851761920193809
Ag 17.09074053552528 17.32461085278233 11.54814927776549
Ag 12.409591892267343 12.81667871021254 14.05922471308335
Ag 16.90323268845676 14.570910297950578 12.370517639560024
Ag 8.069926822388327 15.354504062956241 13.74368059842298
Ag 14.001600464379614 8.518225302273141 11.297298108125482
Ag 13.44668554246521 11.196407053347437 11.03879735879551
Ag 14.241641948891388 15.078644430435936 13.788555502505448
Ag 9.896563974102051 13.907395317844736 15.35085567150551
Ag 17.743277203879106 15.958059675739888 16.740501501966687
Ag 11.728707121635063 12.363740930054142 16.846495520900117
Ag 12.285924376777487 9.742369011718162 13.129260827912184
Ag 14.377493228860025 13.084097049770959 16.20252872635017
Ag 10.51274748858097 16.52383230309795 14.559857814991089
Ag 16.83163410988212 13.907065510414881 15.12463649819304
Ag 10.381182472113489 14.54968769842138 12.48387488429602
Ag 12.872102690997329 13.867495610965472 11.480777792009462
Ag 7.970009993961044 12.052303595280003 15.877134641377268
Ag 16.17218503492626 10.492405735782837 11.292591314673922
Ag 14.712851427075787 15.86692575797627 11.01539906390547
Ag 16.702985483087538 16.709091002604957 14.312934944755696
Ag 12.304354397557212 16.59046086132897 12.377269643525931
Ag 12.33572171519721 15.007372285813675 16.104218000897575
Ag 13.104961123530016 17.44354229849688 15.022482022919268
Ag 17.049862018014636 15.309866457337515 9.618301151602052
Ag 16.255600363135986 11.117411711090737 15.498100774093556
Ag 15.037055989419844 15.857121720378748 16.411618950822813
Ag 17.714322929909727 11.942835354774164 13.207774347703786
Ag 13.405427481570861 10.538434074546876 15.531278889936909
