37
Energy = -79.45263299 eV
Ag 14.72399414438156 11.230676570028638 8.49360248196298
Ag 14.633553025275361 10.294836128345901 11.113410798261931
Ag 12.816648546000359 9.250290042014532 9.178277638923058
Ag 15.981118356220843 12.693608385791322 10.480113802916634
Ag 14.125600043961148 14.055272134286092 8.79978173208818
Ag 10.66192585322984 8.856141288416467 7.446427453284958
Ag 12.360373732017734 11.049342903470588 7.051853745424099
Ag 12.54205243160235 8.551764797410193 11.86886335449982
Ag 15.339126242375405 12.150018082139914 13.130679135258333
Ag 13.741035437383346 13.970494829489185 11.67712417132876
Ag 14.29178578372436 9.62539440361273 13.799702075095562
Ag 12.306336580757135 12.156037375898498 9.794364889705673
Ag 12.373194721969215 11.511362540105594 12.569271227709823
Ag 10.692796909918307 7.560498016555093 9.92983631232642
Ag 11.550837880178504 13.70381216126826 7.565998535133466
Ag 11.807405256658027 15.126619549307588 9.981283402380871
Ag 13.948468202560024 9.010372764431066 16.476718438117135
Ag 13.253338267023864 13.499778486789952 14.497595797538716
Ag 9.824120148231861 11.462410027645964 8.181819360592991
Ag 14.910982140804224 11.577351477599954 15.839182526373518
Ag 9.169797872726331 14.07565157419251 9.035070383955434
Ag 10.39315173747528 10.328976648854617 10.838773042558012
Ag 10.189219241855351 13.146214344762665 11.490000747304434
Ag 8.398212500025553 9.115370339587729 9.106128362274427
Ag 8.078314417960389 6.851605877327448 10.69625085481898
Ag 11.949856467133754 8.231658675651412 14.590652983567871
Ag 9.997141163480183 7.5851993394878265 12.626369851666057
Ag 7.84709516500637 11.663618315782923 10.151891705755599
Ag 7.327889074224742 14.140528567515116 11.212206621667203
Ag 11.541100559188271 15.17544850980083 12.9635108617081
Ag 12.230787261717785 10.939836841893197 15.406014945897192
Ag 9.478123680472269 15.999441854416752 11.111398494276214
Ag 7.914298944347554 9.397793518418405 11.926393818911633
Ag 10.01817241655157 10.149176996617399 13.776189968205362
Ag 8.050035776850288 12.009500650483055 12.991039479738111
Ag 8.779497662846614 14.750183240109623 13.527117745487137
Ag 10.504362100229843 12.855462486856103 14.426832999651868
