33
Energy = -69.62625427 eV
Ag 8.538219963055226 10.990350257212707 7.897255640445606
Ag 7.138155324372189 10.206636540154141 10.257716091441718
Ag 10.048069870392334 11.805747679178296 5.6422041780310215
Ag 8.09317150047052 7.842355440987694 11.497642005350835
Ag 9.670474315488052 8.946747047711485 9.485176582211507
Ag 6.671306162488829 9.516121000911602 13.212161243552712
Ag 11.252409321417348 10.143978942331218 7.497179818191529
Ag 10.920143076593542 8.068786701601411 11.937866641360198
Ag 12.461456990885457 8.632537474420507 9.614870435918526
Ag 10.560135394670203 13.017007274606112 8.106813799544144
Ag 8.771620468930717 12.532201035535975 10.21548117407818
Ag 6.970137626919626 12.104965317965647 12.38766917685042
Ag 9.316333452787914 10.383934626477313 12.092490300713196
Ag 11.484038128792047 11.209233507398713 10.258715561364616
Ag 9.040581271177745 8.340661777591498 14.129396540962468
Ag 12.688330873615389 12.398370179572433 6.400289036446897
Ag 13.867151502476391 10.784418576246464 8.315418163150255
Ag 15.180885898521899 9.227615299765116 10.21284868365579
Ag 8.599688734658958 11.152486396168582 14.714589281917991
Ag 13.236924541150097 9.569117266419775 12.199133678541866
Ag 11.2872385636361 9.950131320770366 14.17376096958675
Ag 13.229257851758229 13.54392083554861 8.948369887059872
Ag 11.107498272054391 14.047157938782382 10.670619120036788
Ag 9.499954616626969 13.129148078626226 12.891299849581612
Ag 14.518241953368598 11.856013587095333 10.839405965496836
Ag 12.250394447302348 12.278888658509596 12.703320178112856
Ag 15.908590015050976 10.236353918927646 12.750273549372448
Ag 11.048800707642995 12.590189580038231 15.21491824315016
Ag 13.89778170841594 11.031731215629229 14.58696995769328
Ag 13.77964154846446 14.454478410650353 11.626067612073344
Ag 11.52093471401881 14.965275096398859 13.308617680145987
Ag 15.597754508762655 12.940895180939641 13.19186910712956
Ag 13.582533169501833 13.858448766969836 14.7785018232257
