33
Energy = -69.17818865 eV
Ag 9.740815668919268 11.736894625687583 6.183021670587115
Ag 12.696035036804258 11.566212181379777 6.344960973391197
Ag 9.742894098300882 7.838101553810367 14.605069858431278
Ag 14.640697312176492 10.365952111105516 13.608614168195592
Ag 7.663934513060218 11.472855284930896 10.776389368069369
Ag 8.441113287719642 13.12376824395607 8.429110569787897
Ag 9.939809065402113 15.514206565218473 8.95994839947613
Ag 10.128911351624511 10.544528653988355 15.12202768007425
Ag 10.327202406908603 13.364477969932173 15.559269567363748
Ag 11.160065279684849 9.979974759683797 7.9406080148626685
Ag 10.461616466450787 16.223119970245918 11.639864025959483
Ag 11.204405673273374 13.219119270076725 7.970896072608634
Ag 10.318033016973052 11.520436086252916 10.274569709717184
Ag 13.036927531832768 11.71158529348671 9.416820350900833
Ag 8.523006905445119 7.102045122938824 12.110235251212078
Ag 11.792222808346827 14.037328844062866 10.556372619549727
Ag 12.08842406473959 10.355057384771113 12.147646276521211
Ag 8.764047898011672 14.07040732829994 11.038830380728232
Ag 12.373044158825103 8.904323621733889 14.589253452969247
Ag 8.99689631909016 14.99632740407517 13.697205581746877
Ag 14.070482968306752 9.654456820795227 7.904300407038748
Ag 9.69890533398643 8.668852033209877 10.031458413179836
Ag 16.538848508342706 8.673199354606613 12.458703719038144
Ag 8.395687706124155 10.381423108603636 8.275938639597127
Ag 14.825342958602535 10.107756576732587 10.78545746026033
Ag 9.180778134217082 9.748104229016407 12.55373631338921
Ag 13.66838985589265 12.606737770579334 12.063287621611037
Ag 11.218923649555482 7.568676808436312 12.256212237565157
Ag 11.849123111279729 14.397103701132593 13.32467493422623
Ag 9.87781815560607 12.371641039087628 12.97966166113704
Ag 13.930033186860708 7.896538304659444 12.39420968285352
Ag 12.555293926605854 8.60077009393305 9.975197190445158
Ag 12.516520305899808 11.9029300161847 14.554816877192065
