39
Energy = -83.45667423 eV
Ag 13.215826437715306 7.25532625897016 10.109914161205502
Ag 14.892620605742085 9.538323066735735 11.351169279230739
Ag 14.04512548970055 9.752780393100762 8.638757901499487
Ag 12.729563085758086 7.605563979135442 7.382757231652342
Ag 15.38108010495982 11.88102818460352 12.88981127072209
Ag 13.837678032066721 9.446898663954416 15.264465363865867
Ag 13.164463160769852 7.980815586987413 12.875432043163508
Ag 13.496402591074142 12.609500247457108 7.659068276976444
Ag 13.999339172704092 12.02031520718895 10.38450470001281
Ag 12.676701718916803 10.249783522637959 6.2890730617227835
Ag 10.551825413922426 6.892941852524663 9.05498064107413
Ag 12.145044257365326 9.64739367999107 10.777185194671166
Ag 12.810315978413323 10.866288552948369 13.196636032569899
Ag 13.784724422875906 12.66239135709467 15.090799167548735
Ag 11.3618023194109 11.200278857973263 8.601326626425719
Ag 13.284669217708139 13.806001138830018 12.524089422957974
Ag 9.496316335422593 9.387668080545206 9.621883781656644
Ag 10.762081817748966 13.673953512207433 7.533955441302176
Ag 12.461556333131517 14.371494404399611 9.712743872656834
Ag 10.319533697821193 8.947870303090598 7.035920477768414
Ag 8.841457829228622 11.32485529906203 7.433516683973035
Ag 10.074671382359613 15.778973028210238 9.266956182420275
Ag 11.639767058082898 11.071296873413534 15.936872902199894
Ag 10.553659731458643 7.495103555674125 11.802960419512024
Ag 11.304244737800778 12.315009318418113 11.226959332566349
Ag 9.945190893016422 10.27673243160039 12.362683415349224
Ag 8.81168663669986 12.052703735540735 10.104269200871077
Ag 10.600452089991373 14.888007208676752 11.90337314654778
Ag 11.069814608225895 8.774592861117295 14.494244368044287
Ag 7.8145574449247635 7.746174806804326 10.95977508578173
Ag 10.984244137245796 12.966573223732416 14.016968704206837
Ag 6.828129575839836 10.158143752581715 9.396948239191534
Ag 8.081743875001564 13.934424849975771 8.214854764442252
Ag 7.99647597959602 14.815977452106019 10.870436649260476
Ag 9.01319251286651 10.872121238396048 14.839219629362209
Ag 8.429056378503718 8.264156469114884 13.651483697499017
Ag 7.157266642653925 10.313934043503865 12.180503181880741
Ag 8.508395555499131 12.829795114304272 12.77520822977714
Ag 6.24240608869982 12.621398744866692 10.84392848133189
