37
Energy = -78.36580914 eV
Ag 15.103163410393027 14.382054002562912 6.726940623098791
Ag 15.332807841351359 13.842086246504206 9.440506256453855
Ag 15.727363665176563 10.874574677796423 10.00602669471385
Ag 13.885080442951818 12.138653906638678 7.871075197315603
Ag 13.954746707914223 9.431658973274216 8.315208676629487
Ag 15.436943230762802 10.119485394882435 12.817736360345425
Ag 15.201864937653806 12.813545820364554 11.962754034716149
Ag 13.836406950961852 8.617918472321445 10.93866927747398
Ag 15.555274680576678 12.292947428977316 14.645029396710086
Ag 13.569443371070296 8.205541751762501 13.677554089585975
Ag 12.818161425933447 14.706369863709915 8.23632393998143
Ag 11.740100509346485 10.602311697917182 6.978771468709178
Ag 12.958147106745683 14.187856062460916 10.964321450071523
Ag 11.17903143381689 12.502390446428223 9.044052926787538
Ag 14.228238164544132 10.037157039287614 15.717914114393192
Ag 11.36157353348705 9.379453048621304 9.442042655004567
Ag 13.079253555927192 11.314737662695283 10.706488605039596
Ag 13.483622142945066 14.215941583377688 13.670938328373229
Ag 13.276751123744775 12.87228385095826 16.121124086505933
Ag 11.954054898766984 10.722398924204954 17.28506977371967
Ag 11.396936631524827 9.297204730251865 12.205115004083968
Ag 11.436632638429247 9.307945190985345 14.987456615971508
Ag 12.98957284420615 11.37493942039827 13.584941954404451
Ag 11.500161585468927 14.960095150954785 15.425153794840048
Ag 11.11733926637851 15.477166666658407 12.645971872902065
Ag 10.564786844063812 15.100221543608288 9.869256026837574
Ag 9.190757991236174 10.790102415795669 8.118819137943149
Ag 10.88267924562373 12.576560634201591 12.189741673041876
Ag 9.281960724683309 10.59220378536173 10.865980461375205
Ag 9.217807683596515 10.314013530476297 13.629580715334605
Ag 9.267105334336772 10.172893027242106 16.525653895827453
Ag 10.6737710029178 12.249450644182266 15.174329310583166
Ag 9.059227279230292 14.432506939230567 14.186345376085661
Ag 8.49839829790425 13.090840943830573 9.735301786464637
Ag 8.413102855632394 15.196186424368976 11.595398845705972
Ag 7.927151549447882 12.544612595811579 12.412963448510057
Ag 7.80765872811461 12.170769138761452 15.186521761324512
