30
Energy = -61.91663212 eV
Ag 13.115588005203334 12.742615817267405 13.477065999232234
Ag 12.840447095194033 15.407362329023945 12.731895654003415
Ag 14.571790276598493 13.721543603875388 11.231839468363061
Ag 14.23316392765389 10.925435188733713 11.692884070844675
Ag 11.329232137830322 11.784075331454586 15.44041272018649
Ag 12.168467982304632 10.103060258783334 13.342668549303403
Ag 16.14600577254545 11.774301277925305 9.88954297234949
Ag 10.787863301572383 14.078751068637258 14.066601962213158
Ag 13.014637688574027 8.458297868121821 11.281413031561856
Ag 13.446239018176618 12.115197334113937 9.213107469790705
Ag 12.033006892349336 14.290207949719905 10.279768958915382
Ag 10.130314756296572 15.656040055553422 11.858669813069252
Ag 14.677285367336747 9.488052358302907 9.252740837415136
Ag 10.215048764197876 9.190803525101353 15.028177986876289
Ag 11.643680454619801 7.25216625308007 13.376008593140446
Ag 8.15389512398197 14.017565625793956 13.47402860217861
Ag 9.418188880945811 11.419391204394126 13.399043218683666
Ag 13.043810524174017 7.162211117568522 8.859255925801609
Ag 9.695636166830697 8.810118691010693 12.286604801027181
Ag 10.838264127130863 6.808866616953227 10.687281759156656
Ag 9.303106458062562 13.083568656088794 11.188848259327349
Ag 11.918986631625504 9.74621665088888 8.741815255784083
Ag 9.52522670773885 14.827898214173786 9.133627365343445
Ag 10.739113514124304 12.281117712433947 8.813146073924193
Ag 8.13816221833719 10.600402162013143 10.961232671885337
Ag 10.396397184782995 7.526797396392559 8.01515427334987
Ag 8.35595912165631 7.975606794470739 9.951734156558835
Ag 7.912096028103142 12.411309599961333 8.79705402708615
Ag 9.208295247974776 10.014332280754665 8.20033042191783
Ag 6.519193759819611 9.854759790661566 8.849280684726706
