38
Energy = -80.98999276 eV
Ag 13.604173008092689 15.70128986784274 11.376502482942165
Ag 10.110641979051161 14.85360827292343 8.001177628882207
Ag 12.869907506839029 14.58227879656879 8.7817476117959
Ag 15.017214293061649 13.516632724033531 10.410060187625442
Ag 10.957929237155318 15.516611595300013 10.609923475297595
Ag 12.96633232827992 13.928661776785427 13.599867815460117
Ag 10.874558680506018 12.259586798957681 8.460568259209623
Ag 8.841851931649757 13.734531214561649 10.271318033382332
Ag 8.20046876059089 12.716323879430325 7.7080447762461874
Ag 15.595453435937515 14.600830779765603 12.990356061007878
Ag 13.627390479584736 11.813207943828944 8.539348872924185
Ag 10.209135732937861 13.836627171671543 12.729093186898899
Ag 12.28537713910791 12.887572275539364 10.93519382693922
Ag 15.466669528332131 10.778164660476847 10.318465351576648
Ag 10.860753799341152 14.583888474765747 15.37132962964428
Ag 14.71475217122987 11.921427473079484 12.798125347773718
Ag 7.18415004265049 11.501596011760562 10.04792122588131
Ag 11.576593008538207 16.29406707841131 13.254631899293571
Ag 11.76960671328938 9.727064327594384 7.712032467388764
Ag 9.013457601131966 10.118308174745964 8.393585604785361
Ag 12.515819395679348 9.96366574055422 10.389685363735257
Ag 14.96816634214511 6.49363232815523 12.219792753223082
Ag 7.759615615048809 12.5247437839196 12.663030523410752
Ag 10.461949698193006 8.088885126711178 9.572120272390938
Ag 14.487122559921628 9.17349371810984 12.355325495965944
Ag 9.904768406656077 11.199339019137417 11.125177444266791
Ag 12.015009716450542 11.116151361647297 13.02874182826283
Ag 12.255239980581276 12.148363084376731 15.691478841855877
Ag 8.134572168943258 8.953486648134906 10.901297846822498
Ag 6.087567879140371 10.32054017461367 12.34062715759965
Ag 12.565213585244296 7.119077392860287 11.07404016331007
Ag 14.771075190081122 8.151294250913464 9.77927591330825
Ag 9.586770881215479 12.110281127915954 14.833059162603769
Ag 10.630873873754522 8.648179242334653 12.322891038702553
Ag 13.827905414077565 10.027688276306225 14.8832749872704
Ag 8.52221977706674 9.916097470141578 13.568269600022134
Ag 12.76807107630616 7.593202646903342 13.860819589671571
Ag 10.957539076450473 9.545517323483711 15.0477162868858
