32
Energy = -67.18096924 eV
Ag 8.092309332590547 9.03001330510866 14.761284949782741
Ag 8.87249311923691 7.051161756428023 12.904158244437754
Ag 6.680877760193514 11.271790878026934 13.905468277504335
Ag 7.731734023057476 9.418537575834211 11.9665287607409
Ag 11.389238908318502 7.121139855070831 11.829383782304108
Ag 9.177090449066434 7.796742181532499 10.123885614439557
Ag 10.76833080775378 8.795103113985308 14.029643948224466
Ag 11.569804850432085 6.7716634347440445 8.99574755991052
Ag 6.8204529262855305 11.897346444834488 11.173920594196241
Ag 9.473532561392485 11.26468679114431 13.70821459615299
Ag 8.520361722365605 10.467129562039075 9.433562517970286
Ag 10.595680328557174 10.001181719855289 11.340606473053402
Ag 13.378517694170538 8.387737623706318 7.58581846977229
Ag 8.04731461282959 13.60418712701421 13.104596837726403
Ag 12.524424050619146 10.976239821780945 6.758041290373347
Ag 9.42373955429293 12.746886651054588 10.791186404128723
Ag 10.888695414120091 9.405539078335625 8.449616800944224
Ag 10.613998923005457 12.178861142445076 8.362385875322591
Ag 12.316025964020932 11.19221850795439 13.457302737715091
Ag 11.006369929606068 13.559390111554855 12.943998073687474
Ag 9.478099161912725 15.529058432221657 11.680378373833648
Ag 12.366486713780041 12.028365430425072 10.588805706679155
Ag 13.384845972059049 8.66865111485193 13.161272053536681
Ag 13.26023263694728 13.328921793769881 8.174657002069374
Ag 13.044429297808001 8.846781054094244 10.358395813100152
Ag 11.265948277638735 14.602016389713247 9.74742102932356
Ag 14.32790623962279 10.747138167046263 8.847680712163287
Ag 13.814548988476618 13.532420651272965 12.518926797030419
Ag 12.221103407560808 15.92935093729168 12.151826040088018
Ag 14.594962019386777 10.807408738843266 11.848238994341578
Ag 13.971185801404253 15.204174125758268 10.195090627083745
Ag 15.395400884919992 12.900982294554831 10.220050421426016
