36
Energy = -73.65644232 eV
Ag 13.40871460887587 14.491386794105177 7.7729131271446485
Ag 14.037011292659708 12.245153673442115 12.886274893489778
Ag 13.284502305263677 9.670749167501308 8.467671235464206
Ag 13.63701619959891 15.779020942765738 10.287037504317375
Ag 15.498255832070555 13.5550758252407 14.790028977600636
Ag 11.52491662720929 10.581917043093128 15.656961534193016
Ag 13.836341742348825 13.016840536950367 10.248761980930777
Ag 11.258971660832469 14.3520613474841 9.555359194731036
Ag 15.439659200136514 14.523204389680034 12.065273494916312
Ag 8.140340825634826 11.304352172114568 11.919258490006685
Ag 9.525815983989318 12.020380005002309 9.517758864897287
Ag 14.530680823494398 10.33172272039472 10.914054851598074
Ag 14.279448496758738 11.1539745856537 15.460065406031513
Ag 13.404432525926227 8.585695727511418 15.772120973249628
Ag 9.834132807424838 13.636515161522862 7.27299712493723
Ag 14.800950730894423 7.825486472959703 9.801845382922924
Ag 8.80156388724146 10.38891216130397 14.517129191128433
Ag 7.728568328385014 8.55712494916956 12.594295354302421
Ag 11.89455817222832 12.016103273234096 8.04523614169566
Ag 10.15254584293507 14.726076922638331 14.132068703053042
Ag 8.699840524434514 15.156002860161935 16.366882677345455
Ag 10.776702178985676 12.089119353774072 13.27220512382662
Ag 9.858334912245997 6.9723419273043215 11.542736809735802
Ag 13.199624609532705 10.826938005462988 5.946628672302359
Ag 14.812566992520175 12.046714626622075 7.846637901377625
Ag 12.289355907414512 8.325190343997473 10.848412472945318
Ag 10.23156645478375 9.511819309315477 12.260076713566722
Ag 12.56991778303863 13.335658155794194 15.074974623862696
Ag 9.867250247472555 12.745698081479858 16.019295061194722
Ag 12.858864617465102 9.739601266334326 13.283474244233716
Ag 9.27812667912136 13.909286011552355 11.620230000469892
Ag 7.066640271511761 13.05600483656902 10.0828521219063
Ag 12.12231748123717 14.348420131031059 12.198050839067553
Ag 15.95322737567458 14.303375150910997 9.19995846583613
Ag 9.235934285151455 10.368615418749608 17.221715285354936
Ag 11.864620749361686 11.189173270287913 10.819575883324815
