37
Energy = -79.04521404 eV
Ag 15.238022396510178 12.090155705541491 8.827443159233749
Ag 13.221657482657628 13.840754331344469 9.880509922269523
Ag 15.534067908410483 13.30655003152479 11.416175420144087
Ag 13.355970190210181 14.922504414351199 12.521977331872437
Ag 15.292822630004729 13.813638693035067 14.253323496214191
Ag 16.0848207669183 11.337395829290859 13.47459607515267
Ag 10.9926561787451 15.291876363821954 10.989094116493074
Ag 12.75254395002256 13.87973102559781 15.306990977214566
Ag 10.888995689576621 13.843208786866876 13.36123395611962
Ag 15.21044256099184 10.382607943284501 11.053276792930237
Ag 14.644337329038539 9.2253978030052 8.567835854383587
Ag 12.831869921503332 12.548369178984796 7.382541722169957
Ag 10.707122663322522 14.04940809997403 8.467748885673156
Ag 8.539317136234256 15.441319008677846 9.604029236357823
Ag 12.785319747848314 10.899694764576148 9.680095115055058
Ag 14.074151854011385 11.409569406767172 15.468428935321135
Ag 13.284011902120252 12.127832836672303 12.696868580878615
Ag 10.790112785767636 12.44637255542206 10.881323410283182
Ag 8.484535656487855 13.954037426794182 12.042019408300074
Ag 14.091721798122526 9.384962657560518 13.42768746162403
Ag 8.298168307804303 12.696981762332875 9.377985745138421
Ag 11.273622743180942 11.478320681542966 14.936169327249802
Ag 10.339434214898796 11.257375581432921 8.148567654234277
Ag 12.40840119669351 9.819570706323008 6.973442971604093
Ag 13.286550566325076 8.226845270223103 10.893662488115593
Ag 9.020048891384796 13.13666235056471 15.213224375170904
Ag 11.5310993860238 10.021309517710105 12.158470052739863
Ag 6.192179577364556 14.209710786063223 10.5263335832443
Ag 9.144534765944416 11.418508528925495 13.087977952006346
Ag 8.996095369110604 10.162340699646984 10.379478141180488
Ag 12.413927763256844 9.082984643444053 15.655287335677848
Ag 11.089986452938204 8.670113289008754 9.18311804960413
Ag 6.8324423440743205 11.639676642442952 11.560336347504991
Ag 12.096610991625758 7.430801396378574 13.369393412898908
Ag 9.917172494165985 8.973086086862974 14.319597164877813
Ag 9.955400228955705 7.787770321098829 11.58802864813845
Ag 7.672735291461018 9.098998136716347 12.604790665504115
