38
Energy = -80.55066111 eV
Ag 14.148574763985728 13.507085411303633 13.595964601128436
Ag 6.716898111913817 12.15324892445647 10.453767782255104
Ag 11.623637754877896 9.873186801085991 10.157665313911371
Ag 13.633997199865997 8.305935768882195 8.962034268875
Ag 10.794999342598368 9.758697391897053 15.885167994817175
Ag 8.85793616535463 13.042427158042756 8.89450381994759
Ag 11.659831530358591 6.785808033444088 10.417329740003144
Ag 9.369157750764092 11.606239635547798 14.391005241189886
Ag 16.095763354421912 12.393984546861777 11.81438466079418
Ag 8.059358570616654 13.357260127874838 12.694708572169306
Ag 9.430542201337783 8.303124173412055 11.32775601270657
Ag 11.23613812113521 7.120072535957591 13.21667490699301
Ag 7.764693639289271 10.439686382958618 12.358176443031786
Ag 13.453400708135964 8.407154021380277 11.904011191373302
Ag 12.773287161647412 11.94003786326733 11.70309330400886
Ag 13.303336857924037 11.136136597762071 8.133771141748293
Ag 14.672778839624337 10.595230271672357 13.360483507855395
Ag 11.196855373885072 9.928025187762765 12.999944209906612
Ag 15.5222143454029 15.078037582550312 11.62442770812307
Ag 11.068968447451514 13.646846592233976 13.345580482395414
Ag 9.99080355918093 11.87435000793711 11.279551951457474
Ag 13.118886684094813 8.74517446055183 14.692135657602595
Ag 14.779607480775649 10.381912605561334 10.431034145879055
Ag 8.473484897085873 10.215006494511385 9.52763097575825
Ag 12.127699557795292 9.023393392414173 6.693866332086199
Ag 8.940156055536384 8.654394204352984 14.099627654601626
Ag 14.449793825237673 13.183538197294947 9.697152359104493
Ag 12.497605580161343 11.67053652140728 14.835480711610558
Ag 10.101352929047703 8.207830379337203 8.464733216343653
Ag 10.49707695243291 11.059022559370602 7.745651243477991
Ag 11.672458097027711 13.222933278534192 9.156442155210213
Ag 7.182442563843744 14.86466716977902 10.415663088784054
Ag 9.976402258932646 14.79186881362724 10.8305383355475
Ag 12.739380028752528 14.861028792105014 11.22319189037943
Ag 12.077963137352473 6.404371676823572 7.634298829668876
Ag 8.311659797056715 16.12450871843587 12.618729541209746
Ag 11.032721007660799 16.386294224363162 12.949531280478288
Ag 13.742673853529523 16.24712985566419 13.410926853681717
