36
Energy = -76.8072506 eV
Ag 16.59253550497062 10.986484370903247 8.524838608283225
Ag 15.24373248795322 9.5712056461399 10.482721698798798
Ag 13.966510810294855 8.088961706664348 12.433347217764242
Ag 12.771712970286446 6.531913354873736 14.376992426010302
Ag 13.843991643584728 10.36192781483193 8.11463461860218
Ag 12.546313642075525 8.71561356751718 10.03977091950166
Ag 11.22072626501311 7.324905385908211 12.13511611801406
Ag 11.06151996327756 10.32069716565695 8.248803123012664
Ag 9.722047588163168 8.75874133087543 10.284067636578593
Ag 8.291916538737453 10.246714693037065 8.433673764687605
Ag 15.758016568775282 12.355178906289602 10.870727511048255
Ag 13.12255593279924 9.307638633028544 14.886832680874956
Ag 14.577227715680388 10.82262220628402 12.965173408886265
Ag 14.716881330050569 13.031167109433753 8.34109558626289
Ag 11.947144637338042 12.997975734374435 8.269015131428759
Ag 10.551051391495953 8.180691804760503 14.733997255408047
Ag 13.009579044212565 11.61290676049358 10.540935482631571
Ag 11.701334735119742 10.11337777175205 12.545942930003624
Ag 14.2865267878027 13.62903164666382 12.852405156751592
Ag 10.094660905270198 11.574964727430242 10.623950866559209
Ag 13.37415807967057 14.442806642987891 10.31127359375713
Ag 8.931370508802834 9.480366440301895 12.893348345550086
Ag 12.925975349444883 12.083576841867648 14.886244111420657
Ag 9.168191739863078 12.91497815479428 8.28104718153481
Ag 11.503766292880634 13.012750899600382 12.58851426353642
Ag 10.349648628385491 10.943241794517064 14.929129079478598
Ag 7.368297283546312 10.828134259487332 11.03217114868462
Ag 10.544459767312897 14.51574597016613 10.194293428917547
Ag 6.440687919936065 12.298513693385868 8.784782754660169
Ag 8.638682735134823 12.288712338997763 13.129822611670754
Ag 12.775377681299151 14.853335029482352 14.823466415374115
Ag 11.991363851867401 15.807552605806382 12.291578027770573
Ag 7.8781610727651055 13.63348104627911 10.735347301649872
Ag 10.206169733302445 13.721769142530047 15.034316449840064
Ag 9.25752474101222 15.041067600259074 12.679469067431357
Ag 10.551548810474511 16.51845491147586 14.628036555689825
