36
Energy = -76.89439635 eV
Ag 8.313035443155837 12.852099597508387 15.615851128288156
Ag 10.407856066305659 14.11274003173781 16.948002066255107
Ag 8.642079701280478 10.492469766261 14.064853807014655
Ag 8.006994841191066 13.119255447928083 12.877333969093907
Ag 10.859778358457232 11.775273517623646 15.39104293315665
Ag 10.23543579032486 14.335111596972586 14.128390006569292
Ag 8.162391905437891 10.722102563780405 11.254954989356126
Ag 9.094236474783843 8.266144726893573 12.339392799965186
Ag 7.772481708140751 13.385635492545433 10.163972111759723
Ag 11.265298535578802 9.419308141115453 13.896851161998855
Ag 10.017469231999403 14.551834486331506 11.337224331775754
Ag 10.626438927055364 11.903022962816404 12.508478052108652
Ag 12.731845517139321 13.876290370849613 15.335703552095621
Ag 10.385740276380881 6.663515868197002 10.219496305513628
Ag 8.724353566170361 8.717121373332576 9.348970192303538
Ag 13.693646456368851 9.193171277168947 12.337249910330861
Ag 7.657058774395267 11.149461674159841 8.507414449121208
Ag 11.0872595191292 9.483939001894276 10.867421950853034
Ag 11.846030482047249 7.121240070696315 12.470705157181877
Ag 12.562282212762941 14.200895798044186 12.516207406592635
Ag 13.2418057028726 11.474733700859755 13.916698881076705
Ag 12.932870009074826 11.636450793072513 10.87912025445868
Ag 15.032591086335298 13.658088553700747 13.73305754142635
Ag 10.25281708555239 11.931059007907383 9.64801429643885
Ag 9.85428865861786 14.440252139745699 8.528421220896847
Ag 11.073842890460405 7.938443481576332 7.9010937129521635
Ag 13.08798950571046 7.723926628178748 9.931049250682598
Ag 12.388169183081725 14.201744811264573 9.697576342152697
Ag 12.643109425575714 10.155173608498375 8.365459000863366
Ag 15.527730194717769 11.310696658102353 12.272434192227069
Ag 14.893948193773168 13.813377110642394 10.943531469548745
Ag 15.022191509964111 9.80645840674423 9.897266827825153
Ag 10.029876832506377 10.413362752689725 7.273040522120713
Ag 11.779260479128432 12.651047352865845 7.402005770656015
Ag 14.37131563406536 12.437436896092406 8.51595788765838
Ag 16.78242015148127 11.99534320442015 9.913581343110543
