34
Energy = -71.40123586 eV
Ag 13.120002520177694 15.239138666709483 8.633000050755856
Ag 12.216910212621913 15.986027145952358 11.117716496795602
Ag 9.407775137285554 11.0936385994916 8.230205487231949
Ag 10.706924998393964 13.735477532120994 12.109006944568332
Ag 15.005566918666446 15.179501448047104 10.862418562984665
Ag 15.325290019244543 12.93508791190315 12.47544956024407
Ag 11.43893417836841 13.7031916451963 15.06676892040528
Ag 13.628528168982932 12.659410623094152 7.841655864545478
Ag 9.639397961828019 8.767026924119321 12.343788432173048
Ag 13.099062686618073 13.226616139299477 10.630957715283758
Ag 13.446512250991315 9.912951911959082 9.843215839898313
Ag 11.975833191466622 10.408601350721314 7.576329263538819
Ag 8.540868161111728 8.486476166753613 8.144576738702787
Ag 14.83910015422909 10.241423365091809 7.518089264418314
Ag 8.798233461794927 14.095501415171903 14.06875011352526
Ag 9.447247062271918 11.827067204558158 15.626423962589433
Ag 13.755416127690106 9.850727483296621 14.69954675526496
Ag 10.832991269255784 16.04887651146349 13.619414858596572
Ag 10.949208167973799 9.732996808890348 14.574443536984573
Ag 12.393125052435435 9.057155569465367 12.255017631642835
Ag 13.347457527276024 14.685824571138436 13.27749904453475
Ag 10.987428397094996 11.264143348533446 10.797024144150647
Ag 10.821859245104019 8.769731302688585 9.686931156934365
Ag 14.939414358908119 10.211523423115743 12.158006008854302
Ag 12.58659761287678 11.797777129304777 13.07183613085625
Ag 15.475366932829491 11.89011397908195 9.870025061530274
Ag 8.898125100077394 11.557008271511524 12.837937313808029
Ag 11.038065308619872 13.268781916563489 8.681595970055206
Ag 14.71821224838186 10.800342584030922 17.098990185601657
Ag 8.146051973968225 10.019556083791525 10.439368276640954
Ag 8.141102567710286 9.56099912904911 14.582057990913942
Ag 12.102899139274852 11.411374414393613 16.503671552435264
Ag 14.218106930788615 12.730125586959947 15.151703580352896
Ag 8.653758529492046 12.813300603898695 10.318225159181202
