47
Energy = -101.97536016 eV
Ag 11.725588415006845 14.618378125732606 17.025515133125065
Ag 12.980607155541964 12.10821514372666 17.49100844166478
Ag 10.475904303513065 14.524132710028928 14.517717649868649
Ag 15.246501944698096 15.842326553119085 14.095273047696418
Ag 12.577243381546634 16.295418037752608 14.8086184820512
Ag 10.518954195831098 12.237295116616338 16.098279310589152
Ag 10.846655563857533 16.433847436829502 12.477562344227879
Ag 13.904461261232912 13.828189351647802 15.519101478421579
Ag 8.636620016282654 12.554288741262464 13.935274078553995
Ag 13.603213314353685 16.968117090498737 12.140451618761597
Ag 15.025006245637854 11.230947561410906 15.673253055611175
Ag 16.355238065401693 13.281427249067299 14.244166334164927
Ag 15.520885900574774 14.391413411262526 11.774833210090117
Ag 12.365921766680591 10.22848704621393 15.499421893009231
Ag 12.826012724465613 14.334458890891009 12.765352044195735
Ag 11.739825934379295 17.163996057281103 9.981440093558485
Ag 11.325897233650974 11.72608404014489 13.30818397370105
Ag 9.61519090947036 9.959470327706272 14.565715380699798
Ag 10.159960905780375 13.756210768165275 11.753789244053397
Ag 7.419435692169165 13.400164593909473 11.529703899945837
Ag 14.102739713356465 11.874711422161193 13.083006549225631
Ag 16.55131013980993 10.720470934697117 13.071236680374732
Ag 14.038739810568217 15.591188766001986 9.714369843197126
Ag 9.179136215211079 15.792753638580944 10.220088483893194
Ag 15.454703703866999 11.881294181446215 10.538662437869432
Ag 7.543325329490618 10.52107220650929 12.416315212451964
Ag 11.72938124069532 7.958281376473909 13.952632635986193
Ag 11.47653123170179 14.483286621717633 9.235752482676592
Ag 9.84826632642207 10.925462812837932 10.789012657623362
Ag 16.34440434438327 14.146082103612995 9.102997239951163
Ag 13.872041234472102 13.067358544259351 8.479777329488893
Ag 15.064833443356546 9.181420291431357 11.1585112886833
Ag 12.224937649838466 9.44128774160688 11.627360370777044
Ag 9.468825252901928 8.457214485146784 12.270711002723292
Ag 14.366705133780284 9.104205555860599 13.90521100831137
Ag 8.97489262199656 13.146951848242823 9.142423818420967
Ag 6.967356087629979 11.34554077843449 9.733627819468195
Ag 7.68756174205366 8.722487467767918 10.160631100909617
Ag 12.472630161019726 12.244321469814597 10.802227458321259
Ag 11.233651198624429 6.474811255726341 11.507379590858278
Ag 11.329762487144277 11.812544722005457 8.257692492486868
Ag 13.811114749331049 6.97417039046427 12.252476173965107
Ag 13.572140980086308 10.287077977784815 9.035935367056066
Ag 9.03790430964809 10.282628690389167 8.12665240153992
Ag 10.32410370663148 8.178908724349684 9.55663015132918
Ag 13.080338858949304 7.609239818260439 9.524624379487568
Ag 11.617545935610064 9.136366459802462 7.3734018475885
