49
Energy = -106.85302984 eV
Ag 15.896869334190239 15.580610936067728 10.409268058859219
Ag 16.41480355876883 13.108215511382525 11.627959184696286
Ag 15.634320647005968 15.20278656833122 13.323117791257781
Ag 15.514759255786464 12.625023883516466 14.432748060883815
Ag 15.20256624039356 14.758239577661888 16.17914804818849
Ag 14.579297387586653 12.159606840863058 17.046182631624653
Ag 12.523300868150764 14.134602592564494 17.00164556964728
Ag 11.871114142425313 14.310629987609918 10.363888585128635
Ag 12.60489466259958 12.204239145054876 19.011971712049327
Ag 15.481808244960426 10.629340310322283 12.484111200862866
Ag 16.129864606982526 10.993070522518208 9.74761274137881
Ag 14.575912930903597 13.256126030785621 9.472521582944056
Ag 13.04112512734445 15.107584238549604 14.39044608480271
Ag 13.639165075449476 13.07463596968669 12.323994749438155
Ag 14.527035296216727 10.06921587003561 15.100297140805157
Ag 11.44090187354909 17.1007306203664 10.125943011864933
Ag 10.437281526132454 14.137418617601815 15.020717171959506
Ag 12.560203180027072 12.215129742490769 14.845124850160866
Ag 12.848347981644528 9.931259535175348 17.348173757711862
Ag 10.895240696619746 15.676625756149054 12.670330725874797
Ag 13.778513670462468 10.708643371658315 8.120377856989172
Ag 13.52061345746308 15.765673228579008 8.69673317334974
Ag 13.54211132072433 16.130688944622033 11.747626295393344
Ag 10.737710839999366 11.882962635019357 16.9388741726486
Ag 12.381503138412961 13.135096201391333 7.751062247132343
Ag 14.540177074586012 8.066705028750802 13.101240076868155
Ag 13.133466997623426 7.689674567784216 15.636062836566643
Ag 10.737889038346216 15.405372632117125 7.938405351888146
Ag 11.130776160048171 9.643092269355186 15.159209291580943
Ag 14.162223883755487 9.159462268879457 10.480638138667315
Ag 12.660345831303522 10.308318013922591 12.770718445727388
Ag 9.233455014772964 11.669884742448424 14.55641362793774
Ag 10.79552733777093 12.630060970106372 12.418508339588875
Ag 12.262524404584317 11.511878391275703 10.26338130693353
Ag 8.483070480698343 14.19179735240018 12.923434102883446
Ag 9.674679608951458 12.752639796011014 9.639367462368257
Ag 10.891578378166194 10.660633781513104 7.981385690670307
Ag 9.158623815502446 15.461566671050589 10.417746775029665
Ag 9.835904697690088 12.928897156248356 6.680939193380274
Ag 13.488443820894414 5.609443344835232 13.795769613884776
Ag 8.046626088706255 14.610492402493522 7.9515646269292795
Ag 13.209366868578963 6.570902053652076 11.103842905692801
Ag 11.660804144946171 7.624125165818156 13.162833639612321
Ag 9.853571256529902 9.66036996800931 12.620865329029847
Ag 11.431078859849007 8.7301437110375 10.447427707876054
Ag 8.033652994080171 11.622663639802587 11.994420880584997
Ag 7.043494548989283 13.601151497820757 10.361357766642863
Ag 9.000328197902457 10.022670479342304 9.952763538211956
Ag 7.7153964554229955 11.709869592784974 8.05008600496309
