44
Energy = -95.52267545 eV
Ag 13.509329649055637 8.630805335555724 9.641031889403624
Ag 11.059111271961093 12.876125680703574 8.23331160328443
Ag 6.435347875799539 11.896151655325397 9.813301250790811
Ag 13.324932702347226 16.14993340279568 11.152759220622833
Ag 13.54189495014502 11.24034228007277 14.079494295344913
Ag 8.874881627580574 8.517007050527576 9.746304882744326
Ag 6.522433941924044 9.38129798266958 11.247543476561813
Ag 8.764412687448136 16.041337777301244 11.237037867261623
Ag 11.17937602968337 7.816705972497277 8.278718495993672
Ag 11.03325795724168 15.314690241202337 9.693947127361817
Ag 8.818867928935706 13.63348641107878 12.742653600313954
Ag 13.408498927876904 8.783224290004146 6.808263723860936
Ag 11.278969658091002 10.349345529490911 15.497269585646748
Ag 11.121755500627645 12.822850153673404 11.167851479007268
Ag 8.937249050124404 8.494485967091496 12.628502783566239
Ag 8.77972388738295 11.177365463485684 8.232098575411865
Ag 6.500657541637115 14.288808129145519 11.27520554018308
Ag 11.184435967023418 12.829279145853992 14.104499709655343
Ag 15.879521097072017 9.60924578881467 11.037858496846969
Ag 13.385294578458817 13.76810635117107 9.612011212811398
Ag 15.848557077356356 12.100176125413693 12.513924348593026
Ag 11.211855330563605 10.308728239413105 12.60065229433711
Ag 8.830390384782548 11.097893441117439 11.200317301036138
Ag 13.492119233758617 11.208293843090566 11.11154539114303
Ag 11.094167642048703 15.289641768713986 12.679072589070648
Ag 11.24216480274382 7.774044370723193 11.127927800629246
Ag 8.75208793805234 13.658610592211282 9.694160013889261
Ag 6.498690541418915 11.874770601136609 12.7037674954548
Ag 13.600441152139908 8.709347191443253 15.358746035637825
Ag 13.448745717750102 13.742852725612456 12.657274199490537
Ag 11.149593195691821 10.332327703427215 9.697208371023988
Ag 13.573540036052826 8.605649623504322 12.522273921644564
Ag 15.670899943691913 14.511811672162775 11.09783689112129
Ag 11.088332336517187 10.416936017712723 6.802189084505358
Ag 13.412148224689892 11.290703534284637 8.14336342834046
Ag 8.910561861993902 11.132576848509572 14.169078764226144
Ag 8.846397773756783 8.671963274341246 6.909220462711186
Ag 6.554336245475051 9.451232562632866 8.446976523457973
Ag 15.722796723921583 9.68491377816427 8.24055689593225
Ag 15.786145847623942 12.126010240732134 9.625081254066657
Ag 11.305753538326867 7.771364036385734 13.97767750579988
Ag 15.848423054544643 9.632359153623028 13.839525990846605
Ag 6.6788239272321555 9.416595307708539 14.046643028060881
Ag 9.037363175114308 8.613364997462593 15.464781787061375
