40
Energy = -85.35830243 eV
Ag 12.280937750042368 7.652971388013016 6.7450165060692715
Ag 7.142822337077294 11.03300208552519 10.246938529121454
Ag 8.624932782691069 8.625583089008183 10.699553265353048
Ag 10.526351457083164 7.982282238379639 8.862681007538232
Ag 7.132074230986914 13.041408015508313 12.250927968082602
Ag 7.87734456112302 15.25812894011737 10.486895388621287
Ag 8.423994976024863 13.123782814448948 8.773164981902479
Ag 9.69165758463499 8.220532229348011 13.248275434193234
Ag 8.8232918330416 10.759583284477285 12.468105356363788
Ag 11.39310760898932 6.886826237847794 11.453687016876106
Ag 12.268249351646155 10.050782978490677 8.130113520835692
Ag 9.822932767457814 10.813645532690103 9.432745360691468
Ag 9.841833756262096 13.374655638578128 11.342566713668868
Ag 8.393051157414652 15.306797941482577 13.325571431564562
Ag 11.735247574521829 9.54175410151024 11.119240938189588
Ag 9.190427116293778 12.818789664152197 14.31784082750403
Ag 14.648693276903611 10.072668897867002 9.932709545394836
Ag 12.25221590187524 8.893816278078543 13.881388381456686
Ag 10.18071074940794 10.286774018103795 15.14665309840673
Ag 13.260142016620241 7.658355865990502 9.344662599953846
Ag 14.094581351304672 8.081005956953069 11.959574158647458
Ag 12.74544892785797 10.016442453090985 16.367704218804228
Ag 10.288486695312427 16.341022169115313 11.562088780483903
Ag 11.106425744180264 12.631894062108087 7.711597058493182
Ag 11.45544814409442 11.758048989719553 12.913173520103838
Ag 12.307935566666849 12.124058898268213 10.199241491611764
Ag 14.022560120052225 10.870930700383878 12.548053500397684
Ag 11.883336971547157 12.582832483967884 15.509237358029752
Ag 10.518493890526146 15.0111800049641 9.114338081052203
Ag 14.232941840588209 12.00112837676641 8.022488905104309
Ag 11.195542745828288 14.672818439057629 13.660271983068085
Ag 16.4864579027737 9.648958112232437 12.292063472422454
Ag 14.939283884700925 9.133802878782834 14.598925311780407
Ag 14.614980200601341 11.811227605651558 15.347158121531844
Ag 12.589526664826044 14.86208649760009 11.21040340283901
Ag 13.193804860779249 14.465295371394408 8.578705964007689
Ag 14.906921965767646 13.003804120077703 10.690196712074478
Ag 13.747866567800465 13.578028092594186 13.385592103987012
Ag 16.271517215230517 12.366696364620223 13.12012051277018
Ag 5.776902875638135 13.525080109210105 9.888810397179368
