46
Energy = -99.1980621 eV
Ag 15.863815887795024 7.4187586146603115 11.43735134957343
Ag 13.432553608833524 7.559708488140571 9.909805685654321
Ag 15.747985700725707 8.971974644877005 9.060639360388452
Ag 13.490154777601918 6.96770238419081 12.754343454731641
Ag 11.13893385709437 7.688304806440888 11.55906317250793
Ag 16.276113839379338 10.123983655224091 11.446836766651375
Ag 15.048713743569602 9.055945119042441 13.709185749579692
Ag 13.344990194131093 9.750373999724475 8.015582893441788
Ag 13.126842347167933 10.093338840809341 11.00611943790103
Ag 10.874489106518235 9.05720727306943 9.258053029913897
Ag 9.52945208540294 8.274518574742716 13.660607316690339
Ag 14.744578199712857 11.878802849574228 9.592391231766152
Ag 10.478654339803363 10.925959129259132 11.746682349831376
Ag 12.180441772834733 9.284018147349858 13.675672389518763
Ag 16.88570718151091 11.2878176466005 13.94464133279583
Ag 8.554905448547608 9.02418908639934 11.05601591040743
Ag 14.37149103332115 11.778118450627375 12.950600774510894
Ag 16.850111010450437 12.739264793307987 11.441907122371356
Ag 10.786735482057132 10.434503101208954 6.7666399382343005
Ag 12.992893091510096 12.253635343923243 6.669817264258082
Ag 11.681114983027108 11.734612038145126 9.020193849920478
Ag 13.628546352552588 10.67182867630564 15.55260738200233
Ag 15.863804165492903 14.042063466831033 13.722271597300885
Ag 14.780705650875976 14.485022344286964 11.020621034862918
Ag 13.863395831520277 13.445948303656717 15.597442338396753
Ag 9.818386998493837 13.032312969231223 7.284337764210324
Ag 8.94597440575943 11.179658082212129 9.266101483064636
Ag 10.116751630724861 10.39789487196387 15.278337682273396
Ag 12.407116657295823 12.975806544818512 11.348157693947304
Ag 11.738011544454313 12.26291906551389 13.959671798319691
Ag 13.08388040001014 14.145471747106413 8.71619561126143
Ag 7.973862007574572 10.528472094102046 13.406128981552067
Ag 12.259725849054869 15.805035135699594 10.858005270035408
Ag 11.584052807037255 12.265783389873084 16.750440706962657
Ag 6.586061496722199 11.28009038101043 10.967372862937188
Ag 13.190965772707871 14.905081729432737 13.352616487684186
Ag 10.281803719363264 14.096225287497376 9.816335716182111
Ag 8.513330671281535 12.98195949913953 11.78332325929101
Ag 7.579675344840028 13.585163977901717 9.037633678253377
Ag 9.029287866501718 12.930466807839121 14.667995939777807
Ag 11.183239034090153 14.689641460475428 15.377211764069404
Ag 10.391015991425935 14.789447978481945 12.703994328282745
Ag 6.232049849296373 12.628205108213379 13.562837120330697
Ag 5.941478802051545 14.108183925009257 11.23994929758173
Ag 8.279007397768972 15.706387810549003 10.857704726842222
Ag 7.612146757868198 15.059010075874932 13.512447010610492
