46
Energy = -98.98315368 eV
Ag 14.48586708445003 10.355203068586361 7.576972958642329
Ag 12.616412765086709 8.872582361315866 9.109962530616476
Ag 14.992553024841877 9.777318220153616 10.269061096715458
Ag 12.65273841533982 6.893968214105954 11.129341864198427
Ag 15.49614362338427 12.475009915652585 9.192952066574255
Ag 14.02621233261583 13.083507442904596 6.856053387922431
Ag 10.146801358734795 9.760519282839697 8.220798283969854
Ag 10.236076030952873 8.2184225551595 10.599039640396096
Ag 13.071507662500453 7.444074123985652 13.85373609902574
Ag 9.554397926064668 12.446259619480722 8.083174454432015
Ag 15.038212079230789 9.374963893582795 13.109586172792115
Ag 12.29663825451335 11.700561173750488 8.655936015520016
Ag 7.927005436593472 9.699175223578466 10.07966159391575
Ag 10.50635363302091 6.724752639257785 12.974823732095501
Ag 16.343069100474764 11.67131475533551 11.838117739500557
Ag 10.313173762678185 11.211064664955455 10.675009721285443
Ag 14.009977211894595 14.877456681351864 8.976862762059989
Ag 11.583604098069967 14.257782832436497 7.635656569133437
Ag 12.553951896863966 9.587291088379484 11.852368526467805
Ag 13.668454945381482 12.168440636100128 11.229115396411744
Ag 7.646624035149149 12.521718937911443 10.076509109285272
Ag 10.789135723947702 7.966171278109876 15.50531550895155
Ag 8.022847991140459 8.144245993041206 12.423060848541626
Ag 10.245418520138262 9.723577539960374 13.309683179026923
Ag 14.479816625730146 11.999479059870662 13.928155232006796
Ag 11.70496620618113 13.914745989848171 10.53425525166464
Ag 11.636905803461984 16.558198331756742 9.157918416018216
Ag 9.278210020345337 14.817906881602712 9.513451831584826
Ag 8.408371705134526 6.7160565511935815 14.784356457196319
Ag 12.750263763351793 10.019203542475479 14.794134966002368
Ag 9.151181623485384 13.647709597294549 12.129343356023158
Ag 15.444042075439969 14.395371022604731 11.419796351606808
Ag 11.560098950333474 12.203646814611702 12.97921689237103
Ag 7.887202350271425 11.052384225547883 12.539157325557401
Ag 8.218365064041235 9.52984135862962 15.09917218816764
Ag 10.568387431268425 16.13212694493535 11.743305469220747
Ag 10.591308503606621 10.588647548604138 16.446224789905685
Ag 13.51836895460319 16.552663381168923 11.150509302458577
Ag 13.241620316479164 14.473753548425442 13.158023688331724
Ag 15.276674642653363 14.331898802114106 15.12238603762527
Ag 12.269177005078644 12.774117878745306 15.626471453561816
Ag 9.327426756289537 12.247467391711009 14.641577920831082
Ag 15.165038396991356 16.514063782972258 13.380055446532902
Ag 10.653270760535143 14.747753084326973 14.235634153776859
Ag 12.324537353869566 17.160200462178622 13.613986287090338
Ag 12.89515661699219 15.535831961410802 15.803625337945244
