44
Energy = -94.58722762 eV
Ag 10.974727906679853 12.448468128647058 8.024738185890756
Ag 10.30893161226174 15.777054306345791 10.87449272723134
Ag 16.425617892679107 7.661157769218769 10.776006093947666
Ag 12.37233138202268 12.753665158889483 10.39368184426839
Ag 10.853270505313835 13.381319858659298 15.186293815556825
Ag 10.189389067883003 10.168764666993598 12.177837952924095
Ag 15.369204660380952 11.790759709804059 14.4133761468758
Ag 9.038645934203512 11.24049538408285 9.710104385141218
Ag 16.30921194524532 10.327468823989811 9.961915745698919
Ag 12.169319362679863 11.97490757865684 13.190654245895493
Ag 7.38222880653674 9.66092058392225 11.673921196197037
Ag 13.432671193560896 13.939750816817249 8.017033447286133
Ag 8.805256891435015 13.945328485365868 9.17044339594913
Ag 12.99075965282147 11.662801202819745 16.057146531315944
Ag 16.481717785762168 15.069042177452252 11.311559113352795
Ag 11.880611503860392 14.929147457201376 12.945346886943415
Ag 13.703736725457468 14.111468318014078 14.926341960574723
Ag 15.447600643065638 13.025809727580473 9.716494433887775
Ag 7.596451631366387 15.188398316818134 11.350994087474753
Ag 6.445700942998202 13.936074737998181 13.60957799445088
Ag 14.070795148128708 7.686200589471694 12.339440522188836
Ag 9.15118882177459 14.997193379972385 13.61281074379529
Ag 13.99495504226787 8.496181107057708 9.63617237328641
Ag 13.86639932602204 10.62900093894502 11.45792999874473
Ag 13.582037249147794 9.685476445493158 14.203634468136537
Ag 16.124358580451066 9.645552227824645 12.756057188948033
Ag 16.898448333825606 12.278249287031366 12.014054078453547
Ag 11.07466282928303 15.323533286103432 8.251244196686466
Ag 9.923364571190955 13.062235261802547 11.718419115393685
Ag 11.566049427474809 10.0406912051984 9.504513691780957
Ag 7.158263210434218 12.448246059775462 11.34882694739929
Ag 9.106649604890235 7.557124958112337 12.533792619709546
Ag 14.38493711938412 16.18957655939657 12.992641082528507
Ag 5.978213364679825 11.144130722567684 13.558704096264089
Ag 11.548421998413003 7.938056507793175 13.754423793201381
Ag 8.113204268016574 9.387737709405805 14.389214676715866
Ag 9.226404321354318 8.481531397121412 9.89992445474742
Ag 14.348603365805996 13.520240543447178 12.233339799174164
Ag 16.40616495534241 14.364681322721076 14.014459050866606
Ag 13.862469811070445 11.144894377089262 8.460472666539648
Ag 13.160267702258158 15.477042254271238 10.433284376506746
Ag 11.641053246715307 7.668549932763686 11.012836600179083
Ag 10.700302112855328 10.383407468245169 14.976546387875183
Ag 8.587246601266775 12.109510307378851 14.061143938280866
