44
Energy = -94.51721491 eV
Ag 15.559769575908984 9.186718320756064 10.541544539623729
Ag 14.093935358853892 8.553000525561052 8.070286451087275
Ag 13.792294525369403 13.868633800245648 9.251929305868593
Ag 13.916665374870707 11.046758386457794 9.224649558413175
Ag 15.243970817369588 12.336372178796696 11.23217840396287
Ag 14.196049055423668 6.473761639367317 9.903857047537267
Ag 14.973877644662592 15.182010288423134 11.616450795671884
Ag 14.69852038066842 10.21774777998276 13.016756456116154
Ag 12.754601068515525 12.29717425497065 7.056640188339276
Ag 14.428366082032186 7.435532729947614 12.507549645176683
Ag 12.605653476180558 16.33290397025268 9.664100118647506
Ag 12.742519858803803 8.894590711399141 10.59167014583072
Ag 11.466216920155775 9.788249001045664 8.168657074580095
Ag 12.380302519648703 14.42359353003241 11.664188618146051
Ag 11.220078180086919 14.513910751271691 7.805025976219413
Ag 14.257045743263346 13.265317719724566 13.66518831523236
Ag 12.50979036799456 11.578003226754895 12.030734103906864
Ag 13.170101216994562 15.930786661663609 13.836772830849009
Ag 11.831096406337114 6.499822469229219 11.535445951385082
Ag 11.857139998119534 6.840240108166058 8.457059494115859
Ag 11.372097210519119 12.312907693601009 9.500182678156559
Ag 12.11536489278378 8.84873396088541 13.395331454460088
Ag 11.589419701659036 13.688519704566913 14.419219217976446
Ag 9.986513057413656 11.916184019195741 6.902263991337041
Ag 9.696466195914637 8.022277049240405 7.040657697587351
Ag 12.809777461851949 11.14983579236225 14.89163759637002
Ag 10.260743609568834 15.759366885068266 13.033442338892327
Ag 10.266058449201454 10.220106656431014 11.076914606202799
Ag 9.683954811083387 7.815371509791183 9.811281801246341
Ag 10.147384141108176 11.058771874057179 13.765766577609181
Ag 10.033484700040487 15.307251159978 10.227771315739862
Ag 9.66660722968651 7.8584997826494645 12.633014357317553
Ag 10.602541867718305 11.912318398857622 16.399799588864248
Ag 10.002129262876677 13.013445485822297 11.842572987851078
Ag 10.19695774172721 9.127159059338197 15.601311839283877
Ag 8.614950527802188 10.270526596563542 8.638763235498141
Ag 8.683217620987717 13.191261852644327 8.960176888191754
Ag 8.756334937369052 13.697184864962184 14.262207644901048
Ag 7.719749861422699 9.161121804744042 14.009751529429224
Ag 7.624979780827385 9.292068565651261 11.154568543625544
Ag 8.002808304409125 11.330807895907125 15.624508408054652
Ag 7.631109648346311 14.214940617912575 11.422685143362154
Ag 6.652998477363987 11.729951308948172 10.079806342789398
Ag 7.506946712849133 11.669222583079671 12.732704822633908
