47
Energy = -101.88742138 eV
Ag 15.095944768529105 16.299543172788294 14.761905776853178
Ag 14.269700717862309 14.074277587237468 16.113542556231586
Ag 12.341480981388036 15.715667810314809 14.802975147643666
Ag 16.63720118402356 13.793477518871248 14.477802804690532
Ag 13.4269637655181 11.920813475772468 17.597406288587642
Ag 15.645165373681706 11.563962343537712 15.851725843606543
Ag 11.449248163738062 13.66308205209507 16.49521313302905
Ag 16.412420149096686 15.743947285009643 12.41213344818532
Ag 13.606157699446115 16.722358408585798 12.407545586390853
Ag 9.717974124618843 14.676928137405591 14.454186619604704
Ag 14.13180026432983 14.021491997792342 13.168636743271414
Ag 12.919850190327098 12.000404130306304 14.650801615479816
Ag 10.844376398951052 16.47027337504416 12.550641330044698
Ag 12.044693481052064 14.024999618165532 11.286003485788763
Ag 13.626759394234966 9.537344445952584 16.200972647919386
Ag 17.205331551882672 11.194974246094274 13.504360525630187
Ag 11.096015826077714 10.812700149073402 16.453775638866375
Ag 16.378485625249194 13.055916134978446 11.616114689255621
Ag 8.938049888094524 12.536076506993354 16.02524757459933
Ag 14.631157828142747 15.00103505529957 10.39831983451008
Ag 14.798126478062017 9.864710701441572 13.739602982260726
Ag 12.092638634618584 16.43579238217679 9.992539026618987
Ag 9.235399337379393 14.421904965858042 11.708855967331843
Ag 7.940175523456144 12.506329871261453 13.395979224412098
Ag 13.15478719146981 11.465574789655314 11.82170461074395
Ag 9.198411949445497 10.167445273214474 14.564061042876093
Ag 14.64772765775124 12.37165340563087 9.47943443061275
Ag 10.534940444032216 11.920835015928343 12.655680032364343
Ag 12.893677997063405 14.233319133121832 8.370818154223304
Ag 15.686931040869398 10.381199129456132 11.164213205662387
Ag 10.16866384575238 14.558200939931568 9.0301582693482
Ag 11.901453290755505 9.449548353140575 13.921442270828868
Ag 10.850173765543142 11.944185970764707 9.77869123168104
Ag 8.040434772900618 12.278974944719058 10.496378418852586
Ag 9.719625988096878 7.811372589132151 13.176678579424637
Ag 10.885810986464605 9.462904898275152 11.173600075177179
Ag 8.207357025200448 9.946074558641598 11.968573119590635
Ag 13.407856959324006 11.813510534468422 7.03497130518088
Ag 11.029079746295436 13.239334830623333 6.60316607163499
Ag 13.018219857551038 10.087654835221123 9.255490810871287
Ag 13.480557773934883 8.57603017864295 11.64529848164598
Ag 8.728453350849561 12.36641619536091 7.820165452021946
Ag 11.43024784883011 6.708186101127614 11.158469014832978
Ag 8.778268679292449 9.921233339314204 9.135983732672278
Ag 8.768327278090489 7.52990793514239 10.545207785491634
Ag 10.924920087071902 10.491789522686082 7.2988622878663945
Ag 10.938787194672253 8.096468234764059 8.714495206602358
