45
Energy = -97.32209841 eV
Ag 9.672433856827364 7.8932486898532845 12.020337045454754
Ag 10.977533888770859 8.298888143100877 9.556070161275514
Ag 11.105384762483398 8.281250576789034 14.441502736337377
Ag 12.535455696523476 7.732288197691385 11.871074855941366
Ag 9.038953704693597 10.090427704621327 10.371108766711922
Ag 11.115604992079968 10.64750758785771 7.984710002939843
Ag 13.16640033404877 9.895829217672004 9.99300696312577
Ag 9.773806604807309 12.342353037593016 6.183280431308044
Ag 8.585564461556382 10.242362556222846 13.24620498495741
Ag 8.889020150853359 12.391513549320925 8.783799719579962
Ag 11.213037271479612 12.033793822816993 10.3503647914414
Ag 8.551106296975528 12.551884670591486 11.639797754740359
Ag 12.637094361550615 8.882597784595255 16.70716804409993
Ag 13.61149942098289 12.225899427313626 8.461803945798419
Ag 12.998985341282548 14.1093154665129 10.448447135958618
Ag 14.842820630582557 9.33438439787671 12.235334574992777
Ag 13.181814642887963 10.43898144759118 14.51534939263751
Ag 8.535527051055467 12.88577823054813 14.411740662562854
Ag 11.272779623998293 10.208493606345032 12.43877629753567
Ag 9.952067291281914 14.58138656443303 10.388184408459741
Ag 11.273937511942268 13.824630140465164 7.967195673904978
Ag 9.508996629617158 17.244646851748197 10.895037821214881
Ag 13.904048924500724 7.705833560785895 14.409010756739562
Ag 15.800897228141018 13.949631837630381 9.266755751324919
Ag 13.56333470986336 11.904276845889596 12.128013891727868
Ag 11.137101190485888 13.095369070876565 13.00682213375464
Ag 15.62092769522431 11.259703785677937 10.231614533468369
Ag 11.712235077623012 16.457483601461398 9.287706080078552
Ag 10.112797148233 13.39429583255147 16.711713339852313
Ag 14.567742632068581 16.147438421383164 11.101383099509587
Ag 8.515816690357555 15.419287515616274 15.671376858886617
Ag 10.479753747858652 10.993067861837199 15.200725353845767
Ag 15.911874714583496 9.702959606695748 14.845870748169204
Ag 17.985878780798362 12.72105290351458 10.54268133195604
Ag 9.011871247150353 15.233055660315937 12.910038150138357
Ag 13.750305609212175 15.17081313057586 7.95558208804689
Ag 11.772846098842935 11.348229644586976 17.612822550728403
Ag 11.168263191612928 15.274688757271282 14.823222606176031
Ag 11.696076397038219 16.079093209609592 12.140409222273925
Ag 15.835204025545016 13.695761867491516 12.01484918010083
Ag 13.61772236482215 14.581306228959964 13.431925200342349
Ag 16.952348709600948 11.15558973218038 12.679883042625121
Ag 15.242491355162874 12.480201407064985 14.515441204518162
Ag 14.508883617676823 11.101068277672509 16.933148999163055
Ag 12.751994300544867 13.090258640959034 15.651077333806054
