49
Energy = -106.0559223 eV
Ag 8.249592698660438 10.954694949168438 14.632054556714845
Ag 9.744908207200668 8.749450630180995 14.075266541223016
Ag 9.641480581362192 9.554700467268097 16.796028530895455
Ag 7.784192265218894 12.875671885127934 12.585477706853661
Ag 8.076963706059676 9.937465348274353 11.78738701423846
Ag 10.108188435511106 7.990975837664025 11.410344621123613
Ag 8.870832165951926 9.40529007241222 9.059090199554571
Ag 8.684819044029709 12.193288102967951 10.017077454062324
Ag 11.995704579503016 8.345315725830893 15.843879160592289
Ag 9.766865009063885 13.359514715201621 14.603010553343378
Ag 8.95417760933856 14.95067616147638 11.022316264150923
Ag 11.273982492901064 11.051709880606266 15.129885237916792
Ag 12.232038426351037 10.727925289692324 17.650637426125993
Ag 12.27216448115192 9.528098584827505 12.764123373040768
Ag 8.145579119792373 15.44947127438336 13.693444741045834
Ag 11.303339386984932 13.34691187500017 17.00864408930256
Ag 10.20905744587751 11.386477807170088 12.573939937283553
Ag 14.150770655188614 7.9420416536916285 13.982113853565227
Ag 11.190958376532144 10.373433903662736 10.129104943398515
Ag 11.403223682391449 7.653103397151443 8.977793600659993
Ag 12.889421355154099 7.221167015202568 11.230176459340537
Ag 11.576113699607161 6.727199194146354 13.606727736267489
Ag 9.37413030445166 11.844784106557974 7.366429503903097
Ag 10.105803551518466 15.731185971942654 15.873722813350046
Ag 12.674344502763889 14.95089702053239 15.11466673696896
Ag 11.257862974955813 13.293432576685703 10.760480606129539
Ag 11.200175171803503 9.778027257169386 7.310219619759749
Ag 14.91766169826291 9.059559236966782 11.542180443614354
Ag 14.394057007977015 9.704475918420998 16.16673772227809
Ag 12.477640255315787 12.83932334200545 13.23801766921658
Ag 10.137116129284244 14.356375950182846 8.475869465480955
Ag 13.722668291173614 12.439873895243371 15.865030832269401
Ag 13.48710886767102 16.342357049655593 12.776667133233117
Ag 13.64482657046243 11.518566823937158 10.947988719806002
Ag 12.048852419055436 12.293606990422765 8.115245508216578
Ag 14.63030823596442 10.961133862141507 13.631081469340192
Ag 13.587200886496477 9.53742334033901 8.910189936093019
Ag 11.549225672871781 16.099235009066597 10.414979504679698
Ag 10.846256565896475 15.494589129288796 13.039065366802104
Ag 13.825377497034353 14.338838466197199 10.932429027990441
Ag 14.990213268065169 13.93393462800433 13.569863218078888
Ag 16.155832344284644 10.526245741166424 9.595249596413064
Ag 13.04211209484593 14.927317114359429 8.297653458276896
Ag 14.747451261926768 12.643314934808869 8.545510277652003
Ag 16.205284044261735 12.935341968838184 11.0976788624175
Ag 14.173538416034047 17.039123217546965 10.015562959238682
Ag 16.169242888021103 15.760762327642956 11.747150152744357
Ag 15.928063345131381 15.054123009753736 8.98435593808888
Ag 16.900638666084912 17.519158108353295 9.700443489681716
