47
Energy = -101.90509949 eV
Ag 10.97765114155016 6.53883118763676 11.846329342855583
Ag 12.430125375651446 8.157270237859587 10.02276172603203
Ag 13.520976518419154 7.4395284513384885 12.715777825285564
Ag 11.245434663846899 7.488314347465475 14.514034019736377
Ag 8.930762890594027 8.652850806977286 15.727514279207012
Ag 14.007842993766232 10.157193673882063 8.973837197761348
Ag 15.187047505966598 7.886707351998741 10.34145757357534
Ag 11.142828433902135 10.199386508369246 8.406138445042567
Ag 9.660443511911724 8.54993635011012 10.255572997633566
Ag 8.872686902450742 7.9771981806348435 12.982297523940272
Ag 11.479237360112675 9.325772654474148 12.407993511363728
Ag 15.802650133256531 12.444491939161203 8.243373640701991
Ag 12.920748855826773 12.48346476677398 8.023557294782576
Ag 16.50249536729941 10.396426812934495 10.132983017269446
Ag 17.215777283804535 12.492730737406507 11.799570694098282
Ag 12.008872000951463 11.4778228192365 10.73043497455351
Ag 14.281079461574938 9.994660501684992 11.885595397301222
Ag 13.224459066171852 9.960184906290188 14.51983998926506
Ag 7.074007572434905 9.295533335288015 11.238795642703913
Ag 8.443493801144097 10.924704837632621 9.272397747824396
Ag 8.197039465165524 11.418387437082151 16.18491343639585
Ag 11.492987133598078 9.229522321841003 16.658188764471934
Ag 14.619642729771067 12.62079510383254 10.733841237913307
Ag 7.313936430928929 10.087195487579253 13.921930721378208
Ag 10.206475347903615 12.931002901064915 8.730471006559942
Ag 16.628721336071163 14.550188823664683 9.989684217178551
Ag 9.233172003868088 10.88595388113171 11.930747051832274
Ag 12.296450216717368 14.254659779841418 10.2170555635559
Ag 13.402516048853109 14.172579845446595 12.800214400029645
Ag 16.100121842368807 14.825879810605258 12.777510300900873
Ag 7.9530133991963226 12.815665508171632 13.567006400492344
Ag 10.813150580076401 11.855787557532866 17.1634611212897
Ag 10.829856379448238 13.09468170029886 12.711471071902869
Ag 12.559118410975788 12.6991854458021 15.067661321560582
Ag 14.962965024482635 12.056296786866406 13.624782430208286
Ag 11.725057855059909 14.948230250696648 7.486627600954879
Ag 8.444764761869632 13.403574749519047 10.84838949181421
Ag 10.37530034264822 10.847541686040248 14.542633912253677
Ag 14.402889631259582 14.942023289576772 8.35067713647995
Ag 14.103466010724697 16.72176836007372 13.653171853675234
Ag 11.779652068525571 16.46507129525409 11.958451115708066
Ag 9.802442281290427 13.71867562390934 15.39447858917428
Ag 14.52204271079123 16.195267311557416 10.911658540407792
Ag 11.68368533641968 15.467383780727292 14.542514373840833
Ag 9.886959609111468 15.613667709848873 9.995073029410698
Ag 9.24750904522733 15.320383677023313 12.87047455468392
Ag 12.421750840272935 16.94892715111758 9.25995559825468
