44
Energy = -95.06280465 eV
Ag 15.530784835981713 11.42540454291719 13.88479914141529
Ag 15.590817798628983 9.82732576653075 16.244245378576604
Ag 14.341287803045333 13.915801464517909 14.078245579366591
Ag 13.67953508992249 11.892140177189102 15.932453617425073
Ag 12.845400571589979 16.38365175927461 14.208395162616936
Ag 12.949150997201498 9.530248843001278 17.213976938487228
Ag 11.845649451875795 13.957724682126626 15.269810586575012
Ag 10.992680411447397 11.614069257699548 16.769444646479315
Ag 16.287332172553114 10.394920302246339 11.446673476804955
Ag 15.065524268316755 13.023662290785 11.508616812424096
Ag 14.132404375787292 15.655441236755008 11.851342720449589
Ag 11.66078307293318 16.907547987604147 11.660183339062563
Ag 16.193096605565113 8.668893110416038 13.659462168308755
Ag 16.69186883264824 12.283098475050043 9.402234552082703
Ag 15.587286489934149 14.980633241741678 9.589999228040606
Ag 13.231122610159407 10.990932492658441 11.957895722858057
Ag 13.55504754172494 9.339760373309193 14.430036818777813
Ag 12.09240425589713 13.657613330974643 12.297658822158988
Ag 10.834030271282577 9.031377396425269 15.419315859039239
Ag 11.46441254175413 11.41991686978015 14.003692026404048
Ag 9.138044565164366 13.821963798342331 15.747179122070614
Ag 10.198280861911924 15.63939348651854 13.699317948978319
Ag 14.254787177453583 8.422643785285022 11.588240577038256
Ag 11.566001600145503 8.689150298392358 12.623381558200432
Ag 12.48288996933822 14.978216018275214 9.62464370391228
Ag 14.18398848739768 12.93231664475925 8.442298961289435
Ag 8.821645451495296 11.09003060199971 15.053642807904566
Ag 9.246241307689244 13.155414528716756 13.045370438798132
Ag 9.883183743854016 14.88155711201199 10.91175839793482
Ag 11.80310687608656 12.27023406236133 9.826288314855603
Ag 14.488151334392546 10.34811747523147 9.352003324328841
Ag 8.892445677715749 8.833804860336624 13.381851574150298
Ag 10.03296863199856 10.900566840554449 11.537947433433553
Ag 12.014597643490177 9.305263418945758 9.905637900532964
Ag 9.471653852989846 8.29626697110661 10.65867541421468
Ag 11.964075615592252 13.619647220432787 7.0235018355507775
Ag 9.640409640457932 13.655439543587871 8.414899122016157
Ag 12.363226949011104 10.827142076007021 7.461466633319777
Ag 7.380859918352983 11.101583654291693 12.641700081679456
Ag 8.079781211780247 12.762309463001412 10.479473975234667
Ag 9.782705770577001 10.473350524730721 8.666964004038297
Ag 7.379336490762322 10.084970527686165 10.036819370830683
Ag 9.919364848776953 11.88976988835062 6.248498041853958
Ag 7.544685155353905 11.878501256346496 7.814437472714732
