45
Energy = -97.22833414 eV
Ag 12.094294005720776 15.117449827430544 10.321993924518065
Ag 15.307096557810238 16.040001790031788 10.316639190980426
Ag 14.428177387492955 13.53254194523286 9.532377487788484
Ag 10.6030999317555 16.702785160852955 12.342723317727073
Ag 13.310949726727788 17.175158419968454 11.808182583185983
Ag 9.175307036901257 15.716950715519607 10.118485325406521
Ag 11.77271358463681 12.711737184744685 8.587130082539137
Ag 9.113265210229859 13.713036115737175 8.180943346834365
Ag 16.855699754141376 13.88691184535216 11.251361520999549
Ag 15.226122425995486 11.679910181220936 11.596024843290916
Ag 9.96933214882643 15.678692443053567 14.946504773229881
Ag 12.571201761104351 12.458193818705523 11.265886713810527
Ag 13.614831748011216 10.6485723018975 9.361836488874042
Ag 14.294199290399542 14.522559943444188 12.445277727741155
Ag 11.361537902171944 14.115598625596375 13.090578746574677
Ag 8.474140802017521 14.726130191847938 12.705290066384624
Ag 9.616158427898672 10.914562080770127 7.755014048753633
Ag 9.888744971124463 13.122608855214335 10.815485968111002
Ag 7.167570580434502 13.59551001473912 10.31145629913238
Ag 12.763353607106385 16.162986449184864 14.356280876185245
Ag 6.942954391889502 12.102302641804984 7.805675637523558
Ag 17.84565939311511 11.162465566292608 12.121359313566911
Ag 11.531888894705295 8.805063469419299 8.315330317663761
Ag 15.79010114529765 8.959740801828055 11.440551059756928
Ag 16.40608966732295 12.858504952873455 13.87440191578784
Ag 14.577856427658276 14.282793697331272 15.358003987336005
Ag 7.918848246488602 10.857657374172524 10.027363851646808
Ag 13.693704752123926 7.918476035443585 10.003208830848205
Ag 7.889616427141806 11.943806888061816 12.608737784363841
Ag 10.754499750917656 10.455818089759697 10.268139907644919
Ag 10.679937389054194 11.300115895878768 12.95572556908208
Ag 13.418502076213898 12.148702750840473 13.929522177339425
Ag 13.124944212686511 9.850390926451608 12.152233558040077
Ag 9.334365434627783 12.945324947931853 14.903975998871802
Ag 11.184408108582183 7.812327912001652 11.125143654762754
Ag 11.907945700651089 13.759530295618728 15.880092916574087
Ag 16.052137801723454 10.049041708069415 13.961321705280286
Ag 15.009106557855565 11.606019281008656 16.124714283171706
Ag 13.580824391931586 7.29570959754898 12.820301788313488
Ag 13.607893505917733 9.228192432468102 15.00030296719651
Ag 8.831213627169138 10.156762870566583 14.71626047543438
Ag 8.922658145354259 9.220000609236829 12.052983523129726
Ag 11.460943289979223 10.965357356973527 15.659313755002312
Ag 11.135972603595743 8.62111724307884 13.84449998388453
Ag 15.891402432941806 9.028156713587022 16.527438458833647
