42
Energy = -90.7936771 eV
Ag 14.492223156466583 6.573981966562985 11.005208535808112
Ag 13.492876551336096 8.239891306084873 8.976970888740055
Ag 12.599733925233197 9.982261227484651 6.937437991094662
Ag 12.231589066887556 8.201358983137922 11.489767370686502
Ag 13.248581906062801 12.722816999552128 7.084359441493145
Ag 14.864725301849276 9.316302511348038 11.289431612670551
Ag 11.249369824270847 9.950146138317336 9.372002682796975
Ag 14.116477351804356 10.966112674399824 9.124865832075066
Ag 14.127930752892432 7.738160859066293 13.563231688505676
Ag 9.179467682410637 11.844159539043764 9.872711566112429
Ag 10.59470970280146 11.97270518279829 7.444709757578456
Ag 9.988842267689813 9.870161375819466 11.900287216061184
Ag 12.606621398807224 11.046401386827316 11.72579122284962
Ag 11.441384167573354 14.800939230287765 7.754046647665957
Ag 11.934759941778614 12.96958911027731 9.692733542289508
Ag 11.851416799988804 9.371267296729133 14.0586387948705
Ag 14.605422918956103 10.544924291681884 13.846839761452625
Ag 15.235604695142023 12.138770267656323 11.509204280439489
Ag 14.757024018162532 13.712255946513439 9.23778199659059
Ag 7.855492571947036 11.558901777253867 12.436217912362551
Ag 13.795930523802673 8.950361818321074 16.06559152498453
Ag 11.547233383292534 10.646368441902064 16.562459706943933
Ag 12.25932067836451 12.318953220638615 14.302825585770995
Ag 10.383837578492242 12.869017903130484 12.184024823055683
Ag 13.450349293101622 10.21773328608858 18.56238022996063
Ag 15.443402708930718 14.982460963051496 11.680398814091514
Ag 13.089521959657676 15.875655622294174 9.849698466580875
Ag 12.895269891761556 14.046583356341296 12.088520327419314
Ag 14.197562909080725 11.764573103174392 16.355818250459674
Ag 14.90645054263359 13.376824416646148 14.050200790702299
Ag 10.399517156905931 15.247517132742981 10.351723893694107
Ag 9.679737854264786 11.146678036848561 14.498006398463431
Ag 7.9955125607636495 14.11610392853035 11.269135200476715
Ag 10.42508525803083 13.316929063565421 16.26515954691873
Ag 12.347137480105948 12.776858053684625 18.265295826465422
Ag 11.143883734851405 15.177856761708085 14.244107114245557
Ag 14.473434102240187 17.584307597554915 11.607867300016292
Ag 13.114223305866924 14.416196200089258 16.095377831978603
Ag 13.874526564347677 16.055461529281743 13.898724701042369
Ag 11.797949063367046 16.965876796647564 12.148539887648242
Ag 8.602970161340176 13.846125195992478 14.124924290350148
Ag 9.152302941898691 16.23107190373897 12.652036786508965
