46
Energy = -99.88349654 eV
Ag 10.718019363105654 7.775066518781054 15.347418490778223
Ag 9.793556725896376 6.404780445938628 13.16460080603137
Ag 12.449765847984057 7.521952119021792 12.936260686216512
Ag 8.13442671264885 8.46128541152057 14.31152013609778
Ag 12.685788463135427 9.667150749196255 14.82273959639245
Ag 10.783733624805734 6.912892471223796 10.639884369019246
Ag 10.006121725858991 10.432641292070754 15.686213583296807
Ag 8.16382138543234 7.823498578775816 11.46931685394492
Ag 14.586653650686113 9.460790784178327 12.686442264610788
Ag 10.387219938158342 9.461066145279277 12.980285768025919
Ag 12.23025379628644 12.072009003960092 16.389999447255285
Ag 14.304792821420785 11.826263187263933 14.357759388506562
Ag 13.199935406862934 8.436179025328576 10.388047342039188
Ag 8.801094371440305 7.96872945928833 8.758458208290945
Ag 6.365217152564563 9.631258374082726 12.490790137051254
Ag 12.675285384686303 11.100094318450274 11.548817752444432
Ag 7.953482342928773 11.33096077796466 14.049354061603585
Ag 15.187191992972737 10.322356006744245 9.949998112674692
Ag 10.580100192156287 9.686990935328962 10.22602420145842
Ag 9.655578181440083 13.29769133691625 15.527630927532568
Ag 11.486649043912529 8.120066699996752 8.096765320951105
Ag 11.402802214503996 12.169770605226784 13.774273455073132
Ag 15.670119132971063 12.152169920963058 12.009660660614525
Ag 15.769861717844742 14.224626804886892 13.87553957040517
Ag 12.76703859898559 10.579039178351858 8.431576225466715
Ag 6.712222667128649 12.265753034178045 11.632099731441954
Ag 13.078164026137845 14.286911162391641 14.761345809911816
Ag 7.730387037926575 10.190653511040061 10.019989698080586
Ag 9.546361544363156 11.875730889302782 11.714578265268003
Ag 14.021489747718775 12.896127001204283 9.800399295293527
Ag 9.892008430050437 10.76288007074719 7.822395002841503
Ag 16.814076813005908 12.873222846150508 9.513176953088106
Ag 8.299247505990827 14.005143695876784 13.151267662929989
Ag 15.85091129748585 14.89663783556748 11.142547575599453
Ag 10.70262563550026 15.234388547264741 13.640054946892437
Ag 15.19166824156821 11.842655764660714 7.477256520306149
Ag 12.515703523601404 13.978010835344426 11.890939019790014
Ag 14.074459855636034 16.185402488936884 12.878307688371617
Ag 8.421051732428985 12.83290596470143 9.332335316488654
Ag 11.1714576518208 12.644120774960887 9.520305522912144
Ag 12.78714363759752 13.264674995728086 7.3030553857376335
Ag 9.863086515295185 14.749657910241277 10.913641308796949
Ag 15.004769653120873 14.983519177465029 8.30622378069816
Ag 14.264272225693443 16.960408742966422 10.212032814194725
Ag 11.721812818347038 16.82485270224041 11.496604641880099
Ag 12.302046673131104 15.241103342042658 9.260612387005406
