46
Energy = -99.80089852 eV
Ag 15.378230454042491 12.221212342251807 13.16876368455616
Ag 15.206170270999285 9.42693495762652 12.22939993972786
Ag 16.28365294707195 14.28178629874706 11.570591815665404
Ag 14.612814916022966 10.108569681514178 14.899876328390487
Ag 16.500752421030842 11.556127567225946 10.643235542666572
Ag 14.49285262143349 14.921299141856231 13.665463021923449
Ag 13.325229082365253 12.590686890703457 15.128207013461477
Ag 15.110027471003049 14.871022190802142 9.137387334272024
Ag 14.800860544984657 16.62703388792642 11.452212401434386
Ag 13.086003136098864 7.889118679545555 11.17898564452019
Ag 13.144893004338776 7.897973723532108 13.926298308037392
Ag 12.899371057229292 10.956873443278177 12.744747146937504
Ag 14.632652716676237 9.763992497294286 9.516252480378395
Ag 12.265437716933134 16.565757286056375 12.879266200225013
Ag 11.803716131195754 10.087635017052909 15.262592647948653
Ag 12.109422270344258 13.761319176099997 12.839508764840177
Ag 12.066446305817163 15.093165454503216 15.346811327690961
Ag 12.624387377423298 15.346802134001486 10.35741530535455
Ag 15.266935200891757 12.177913340715055 8.166045377171098
Ag 12.532311346154296 8.091706244864511 8.480492153415666
Ag 10.592699870244617 12.62684481819113 15.77423939212666
Ag 13.882684990059222 12.618091698931288 10.660254145459994
Ag 10.175715807619351 11.71083559974177 13.05221376881341
Ag 9.046663118112484 9.782653706685956 14.910357196695248
Ag 12.833016661769562 10.779181925310032 7.5754810815438205
Ag 12.793414156390353 13.50731253778046 8.18506335701846
Ag 11.110973052051168 6.272243137786542 12.46537632264254
Ag 10.977288254519157 12.898761059045126 10.472794650522268
Ag 11.873347535926829 10.264445875084242 10.202932955476095
Ag 10.385677968297598 14.937544594432335 8.588730913453533
Ag 10.488085908108756 7.43217120156825 14.95343289963028
Ag 10.828636384152539 9.055359271903553 12.67322776990599
Ag 9.609554371717017 14.644345073063738 14.061934864209348
Ag 9.971889275612213 15.333761522032788 11.405489075915163
Ag 7.987568838904896 12.3985348145298 14.697973393236826
Ag 10.300765769711514 12.178482990129158 7.7990191174068135
Ag 10.151816218847761 9.438149095721752 7.986150950918411
Ag 7.531261748789385 10.352786141258122 12.699161708912609
Ag 8.129513925408117 13.190275662083623 11.967229879655703
Ag 9.147069178088916 10.745309271451106 10.40267915661717
Ag 10.117106759777858 7.828937970473562 10.302143343080747
Ag 8.17259575882593 13.353706006610418 9.213144627069129
Ag 8.48520606450493 7.6265246303003345 12.832736729396444
Ag 7.754132946627117 10.867817919698313 7.90478122370662
Ag 6.41732954652736 11.430609747809875 10.340581532323432
Ag 7.278782535822803 8.673347411252937 10.464281144119628
