48
Energy = -103.87255065 eV
Ag 15.697461994391201 11.727784866478139 6.763189014751094
Ag 15.024641181954651 10.30729355236783 9.06675912162111
Ag 13.044311582031755 10.616775130516611 7.091899070955688
Ag 16.05965440834189 12.89002876466573 9.304431945978386
Ag 12.579507094705757 8.773053796379308 9.159009330063405
Ag 13.705533926493066 13.29327260451712 7.708790850838433
Ag 14.488426916116843 8.740554650404817 11.320140531953738
Ag 10.426393942733197 9.736591675956 7.596987284395949
Ag 12.517927759029508 6.556902875756959 11.026734677702514
Ag 15.63290092137109 11.375955584355737 11.7334832292661
Ag 12.911979738767647 11.385792810014111 10.602458141322217
Ag 11.153800856047638 12.361878253418551 8.378766088072823
Ag 10.033034985772776 7.655695123588405 10.088211461572136
Ag 13.855132103021106 14.442856167183853 10.244607799543473
Ag 15.831224322643223 9.267805278421864 13.869006523920502
Ag 11.67838495104728 9.033207736721097 11.839571645284202
Ag 8.371505016262825 11.856842251309518 8.563296437732872
Ag 13.292135313441078 7.645665710362927 13.721545996897053
Ag 11.762426806964994 15.091332573431544 8.49047090259283
Ag 13.473598255303411 10.48374163850497 13.372207302835866
Ag 10.010905475484357 10.581802603387464 10.26926395203093
Ag 8.020400628898926 8.994777320440498 8.744724227054865
Ag 16.177175557880222 14.180548238719512 11.734517843568074
Ag 10.473295605804484 6.928156998421113 13.059668397802286
Ag 7.159607935186013 10.521609598003621 10.843950999057824
Ag 11.228524714766262 13.718758262101522 10.931287660785019
Ag 13.739996115429348 9.491430609734469 15.933318788559085
Ag 13.606598886265825 13.274885470602301 12.877255724123088
Ag 11.917712256185425 16.5091798201727 10.889761697485831
Ag 8.672798711342939 12.791490962172889 11.62075903679465
Ag 11.120542678961458 9.26351559922592 14.675459860426118
Ag 14.160600626387405 16.12301403200296 12.50877291290807
Ag 11.024520370838484 11.62751844624829 12.764086331665382
Ag 15.735112629887768 14.712977814776469 14.387493954733207
Ag 15.104662278305407 11.934734820561788 15.007312977457207
Ag 8.986359297041423 9.50097390522247 12.751304771949757
Ag 9.513152286286738 15.537739662807303 12.195528978819318
Ag 6.9303269532572775 11.501079160511543 13.425786393322287
Ag 12.040285310487874 11.802159448965902 15.528846089366882
Ag 11.115893453515776 14.149148175051375 14.0050108544707
Ag 11.705031460964591 17.04336518411033 13.601985730103765
Ag 9.273396453500425 11.446363469250791 14.981623660595162
Ag 8.091491963717248 13.858843111722159 14.234596662491533
Ag 14.058789371203618 16.810593640356828 15.183497671353805
Ag 13.510142399857942 14.095177839958206 15.88319651160556
Ag 9.918791783741087 13.770229976755452 16.458392004544372
Ag 9.259733370840047 16.240712247192445 14.904696075977329
Ag 11.634566009993247 16.000446403966354 16.25533127845296
