43
Energy = -92.30513576 eV
Ag 15.083465880821159 13.962724165708105 15.972782289839971
Ag 14.571752890904191 11.552867051322163 14.49916733134302
Ag 13.214187576102395 15.954859749806323 15.019774103769235
Ag 14.42860172853157 14.119674197452687 13.281398814026678
Ag 12.497611166551598 13.277178212663483 15.376555592316189
Ag 15.391900948400586 12.063064422166994 11.64213482897979
Ag 15.87959006284249 9.603968433127122 12.934829650338353
Ag 14.951283326572524 9.564157206219964 10.149851291466634
Ag 11.594415077542774 10.709352374734044 14.640029923863501
Ag 13.692925266458793 8.840623911659467 14.642580612928269
Ag 16.882306773996365 7.805614942128055 11.101610142187042
Ag 9.81965394955573 12.692474444709182 15.369980897115113
Ag 10.564834554403877 15.205395546925192 14.492250997078457
Ag 14.251380503476634 7.506482648610139 12.022961410085104
Ag 12.291357217179776 15.73029688064643 12.322712725359983
Ag 11.078274230841991 8.232229977320385 15.685611949996117
Ag 13.183185409045779 10.420445795477363 12.290453142437558
Ag 13.762923312418176 14.056123433666091 10.607916588140888
Ag 7.21368800513062 12.226996943805439 16.045560380642414
Ag 14.820352000727192 12.044103258083005 8.83198188399998
Ag 11.579907375977703 12.946948026071555 12.639474369421913
Ag 12.17390313765469 11.69507855626977 9.91046708357408
Ag 11.635710142403127 7.959217453028198 12.922761011481423
Ag 11.051061660949722 14.38555016061052 10.044740396431775
Ag 10.399531963006632 10.55611203274951 11.82024579920199
Ag 9.07754815143906 8.721090364488811 13.624373409053678
Ag 13.167354443729009 9.892461530512737 7.920665576263209
Ag 9.429699868537808 15.54111954514284 12.00605012788182
Ag 12.917361706364765 13.925706543403892 7.954742058518408
Ag 12.321256264754476 8.544654813340179 10.247929046303529
Ag 9.061915617602425 10.12105016611189 16.065392831230348
Ag 13.963920808322877 11.987139107232833 6.140741967200178
Ag 10.282766600395933 9.762556177536856 8.828770428911163
Ag 7.916492957326606 14.124925744714744 13.97665724296373
Ag 8.40885549454975 14.891872701005143 9.393011601545183
Ag 9.596321136067443 8.016805056820154 10.945642495620845
Ag 7.913152617672269 11.236046068775 13.53238378698086
Ag 7.947130362829749 10.355019000876755 10.734309690922363
Ag 8.621266211176875 12.966433196814902 11.511423187812104
Ag 10.229846695357338 14.42549185670046 7.2777536044018385
Ag 11.30186548482905 11.77680274579049 6.99051882311461
Ag 12.156274683620769 13.967966508430411 5.3104491593349925
Ag 9.340856669077167 12.303365381416619 8.949286817724579
