41
Energy = -88.21766413 eV
Ag 17.005937016353254 11.935190796665372 12.4882340269848
Ag 14.972820686131877 13.326747275529666 13.879613723581041
Ag 14.49883290402553 11.997875539056965 16.353301807290332
Ag 16.902982308810092 11.78937928909874 9.678330143557483
Ag 15.185683217793452 10.454609500725915 14.058138406132768
Ag 14.939129946891413 13.311415609579512 11.063319446079625
Ag 12.387540669285203 13.32723262445565 14.95816810892111
Ag 12.849317271174511 14.621894778855653 12.462769910379148
Ag 11.853938044464167 11.939944875926429 17.337498149245068
Ag 15.131510734209556 10.238964574501876 11.24492685958333
Ag 13.004129590305496 11.670545407242244 12.603971743331964
Ag 12.613156301628107 10.248485172917434 15.193312954609707
Ag 14.762121664704031 13.075541405683868 8.257764851000214
Ag 12.716352113185696 14.521845787980403 9.593773778009977
Ag 9.723142635873597 13.159571945705563 16.00456808509064
Ag 13.240574284835631 8.771554164486858 12.85144672995832
Ag 14.939464270043732 10.24985801916506 8.40457219144704
Ag 10.202809975500728 14.556707725566262 13.538585958517627
Ag 10.671377161747925 15.804985233439556 11.066013357309501
Ag 12.826579792231948 11.591137080961355 9.732489516955852
Ag 10.368373484564998 11.61980981984835 13.691148355288185
Ag 7.562274759023004 14.35505839256644 14.525098775815273
Ag 10.780377517423192 12.936598427626581 11.205550004713906
Ag 10.578712465376622 8.776102517749521 13.833590335044251
Ag 9.897945016116243 10.288992535310419 16.150803544718904
Ag 13.170631269317687 8.623215617557529 9.9980299131137
Ag 12.762242783611601 11.608429198134836 6.949578000933104
Ag 10.98524091865556 10.077659210166003 11.293481018728082
Ag 8.034338095474242 15.712256859635422 12.072425593103583
Ag 12.822417311736178 8.78999400433776 7.205717833062216
Ag 10.445988454028333 15.740162331979015 8.299236956245307
Ag 11.209651780388615 7.270538136934518 11.522505434373889
Ag 10.598882308495497 12.933053610394538 8.29149230416937
Ag 8.349551977310222 10.06780051206007 12.330847026137263
Ag 7.744624317843919 11.544309130842692 14.701068614451534
Ag 8.016697183979096 12.894812172439714 12.16916916139241
Ag 10.644657246492555 10.122172686932636 8.329693941366347
Ag 8.57955020460575 14.256228297880357 9.75004124573764
Ag 11.008973366409332 7.3202294440241955 8.71920654019272
Ag 8.907696115131419 8.615581697043215 10.002557230566186
Ag 8.667816952992847 11.42913469511887 9.835043082007044
