41
Energy = -88.08370369 eV
Ag 8.907432920287842 14.687417023892879 9.63325075785778
Ag 10.241864582120824 12.971969786423116 7.87201549623912
Ag 11.476483896019687 16.04221024678496 10.003309648924022
Ag 7.298362422325465 13.889800690950993 11.898124102673833
Ag 9.837269693913857 15.22130895123618 12.140253489120397
Ag 12.762921747126763 11.80998170855804 7.407160886801513
Ag 8.824177660707083 12.01881599610466 10.45055186863545
Ag 12.713458064326101 14.4587167752213 8.089097501379358
Ag 14.279962529671753 15.149622691892889 10.35255859180959
Ag 10.879802812762527 10.54946118683571 9.252049080286085
Ag 12.618919391458219 15.832947482152946 12.55835262716582
Ag 10.87079609368602 15.570092136854013 14.679919735249157
Ag 8.559831183991419 14.073019161908254 14.423036861275822
Ag 11.395297241009715 13.208719616966514 10.348350250597472
Ag 6.106951244531968 12.863129824189993 14.373729348365204
Ag 12.90594882883825 9.015849078233986 8.076140338230214
Ag 13.696822678046754 11.075548409954498 10.08403013680495
Ag 8.218451337136 11.53101410808017 13.184119810560132
Ag 15.106154690819979 13.057487514974664 8.586251619290875
Ag 13.48774538535959 13.094272241039697 12.095756220196929
Ag 15.18871327748742 10.479103385476414 7.485663345577169
Ag 10.899154457334639 12.74543442927387 13.18881726822457
Ag 10.216115483224584 10.067386466515106 11.937266845140742
Ag 8.172654654305491 11.823356526308599 16.08209017480289
Ag 15.249344472875782 14.928525284390927 13.13622339707425
Ag 16.733722268414652 10.900027656340937 9.688025572925293
Ag 16.13033853972894 13.009455725753357 11.338304416299923
Ag 13.167140639604941 14.053500427458186 14.829961957204093
Ag 12.884354143592807 10.556990974003437 12.896345228935262
Ag 12.269713426377141 8.570640906923277 10.762673902510768
Ag 10.662217444674097 13.104333014416758 16.04337403989359
Ag 10.344540518432662 10.383178279624317 14.742054815291679
Ag 15.088493487637537 8.598233459712196 9.871786062891196
Ag 15.705699772859903 10.271016341983811 12.19940104109009
Ag 15.198236416287939 12.183100758389669 14.179100965379577
Ag 12.89573167244871 11.444605004918696 15.77037625282872
Ag 11.75096903404587 8.182045611568752 13.5821485684713
Ag 10.417010597645882 10.711365687609218 17.46249714842881
Ag 14.339365348447693 7.87813482565904 12.48356051651248
Ag 14.581632340405038 9.41050728916959 14.792714582962812
Ag 12.181991625497956 8.84346733771729 16.285349551560568
