41
Energy = -87.93435415 eV
Ag 16.2830649234033 10.778953640068927 11.290959961106978
Ag 14.611948024374138 8.035332022536418 14.503322228902997
Ag 14.67912993325867 10.72761528534263 13.652445716840862
Ag 14.481702527953882 8.59908713779016 11.81541174784062
Ag 15.678278621672197 12.64616121584051 9.304955367405856
Ag 14.2116316511992 12.665215482208568 11.721279095912944
Ag 14.133026925532835 10.272245912956025 9.59241386904049
Ag 12.279812417802235 7.0006260075176385 15.5234136223663
Ag 12.399128699362311 9.733212506363078 14.830635131754892
Ag 12.381734311152078 12.428461184257854 13.911410517390795
Ag 11.801157471781343 7.735484768691682 12.853155584851368
Ag 14.975482779530724 14.456093198759278 7.332670463003543
Ag 12.191243110964159 10.430525158414452 11.860673821351725
Ag 12.41070212037759 8.048434302618501 10.085629798645545
Ag 13.640464823431207 12.029915149001214 7.3553883427979105
Ag 13.850009423760227 14.775476767853974 9.874867696582015
Ag 11.965707891759148 14.37348529166701 11.96788175126504
Ag 12.043412289393173 12.321903380246512 9.715817347693308
Ag 12.214324224610278 9.650941324583021 7.650278852765332
Ag 9.916611718849953 8.371696108057233 15.091345535611337
Ag 10.040099883036484 11.23285267001666 14.82590105800475
Ag 10.553575713311313 7.419729734736243 8.150348783615295
Ag 10.218303880073877 10.030860908034215 9.745837672028431
Ag 9.964596223079322 12.203691164782073 11.651269952296797
Ag 9.970975264880554 13.901159340437179 13.9696884722522
Ag 12.129038701111678 14.425690829419805 7.652050932496411
Ag 9.75788814187906 7.39123198843445 10.836548627107668
Ag 11.321673606860623 15.99976811716081 9.794650670058356
Ag 9.476553408008568 9.517053818624385 12.615553139172023
Ag 7.676624098896444 9.954688718762412 15.480840573502123
Ag 9.525136254377145 9.638564156333349 6.776366924613122
Ag 7.994914846702466 8.534775517967319 8.840856004666804
Ag 10.73696286363351 12.052643236662341 7.166521463619153
Ag 9.641601854296056 13.826900567696445 9.058862933818325
Ag 7.45321139688173 10.291564346226524 10.831041451037597
Ag 7.600977554703683 11.62171346891757 13.211057231871576
Ag 9.266992370487639 15.140854424535503 11.52470400177748
Ag 7.907565269481185 12.867256911026269 15.645439423968012
Ag 8.146507533869297 11.508157297889449 8.400746223067278
Ag 7.428431825927296 13.104692505016713 10.725846075214497
Ag 7.250218386490871 14.375290081903266 13.311202856628288
