43
Energy = -91.83439425 eV
Ag 13.057998739026024 12.882203352680285 18.120032101806824
Ag 10.959933395519641 14.884591640880284 17.569469242988035
Ag 13.158072993910361 14.454548169619297 15.85826114670498
Ag 10.671089760563596 15.07056017004625 14.712122563042
Ag 11.117075985986968 12.510712009634322 16.18856225588381
Ag 8.620512329306415 13.966195368001072 16.31480697931767
Ag 13.828277397327792 11.547304298977565 15.727996640960374
Ag 12.911182907322525 14.634344037205791 13.117821997860371
Ag 15.253817592754457 13.621445947726214 14.304879317173484
Ag 6.397035089854242 12.805216446981984 15.068207413658076
Ag 8.347448964558149 13.932286339517871 13.421398996963
Ag 16.025756229855993 10.996085743179123 13.829491718135703
Ag 10.48401234461932 14.982500417589614 11.829199837630876
Ag 8.822247504847628 11.408538070080159 15.072854840320222
Ag 11.473698782312717 10.15626041142736 14.816317959771785
Ag 12.908644576332538 15.346359239821203 10.429527199860722
Ag 8.251317403594069 15.194544682468871 10.269468256343618
Ag 13.387683387501028 11.54115828394271 12.969617421130296
Ag 14.84863109496271 13.477908532841704 11.47307581780665
Ag 7.146912414236547 11.365259586343111 12.798880662796865
Ag 17.393322085106213 13.26100361813306 12.59987797363619
Ag 10.792808151740756 12.481476927515779 13.255792731487016
Ag 13.946009829729048 9.055427595792175 14.006283898290707
Ag 9.41602857401991 9.71524396902378 12.95139518450917
Ag 11.43019888843417 7.849443136061303 13.298039707366984
Ag 10.578511598900482 16.586754043275064 9.463549921347218
Ag 17.913606459595336 10.67209016722602 11.769749254967504
Ag 12.166200501731064 12.506824287568435 10.718471938668012
Ag 8.993212119571844 12.563157239168486 11.014739189253874
Ag 16.937324742079458 12.540838673098259 9.901121230131693
Ag 15.190706242907849 10.270785099918358 11.159346586223448
Ag 13.357557821862617 8.157475718536068 11.375172229500604
Ag 14.692072595170877 13.912449659881956 8.747100179337798
Ag 10.32177434269226 13.881935775341905 8.918498964089473
Ag 12.4423857148411 15.257640212385436 7.6936698753554875
Ag 10.661624811815477 8.736919526420117 10.703875740136281
Ag 8.139811640320785 9.954786710998315 10.504136151418006
Ag 14.987776440675958 8.34732295715008 9.084503776771832
Ag 17.325458351481423 9.808526253225578 9.195946063735073
Ag 12.506907653486044 12.391316942024083 7.907050969117063
Ag 10.233415927609022 11.04678606069409 9.025449628333261
Ag 15.04003141335974 11.134298460827432 8.328141624546689
Ag 12.762500820182305 9.995906361829835 9.379727006137509
