44
Energy = -95.51662478 eV
Ag 16.16007968731392 13.617051850341136 15.98299301747057
Ag 13.653602066682351 14.325103481265849 17.152070606894892
Ag 15.904340432644835 11.804788348698239 13.765166750621898
Ag 13.909905109046468 11.927010256859907 15.726791357749288
Ag 16.75203337165182 14.441559784866792 13.33351555386684
Ag 11.438473190719325 12.570533316455311 17.001528415755914
Ag 14.100879189345857 14.54581874894702 14.376009445071187
Ag 14.410051249183295 9.521953383168071 14.280895435119154
Ag 11.533247276148636 15.142426221567849 15.455243404620408
Ag 16.152708872527526 12.727855620088123 11.140375259283363
Ag 11.81746635903118 10.06580191218287 15.601716350508333
Ag 9.122151422435802 13.922863611133263 16.144152910591835
Ag 13.501610063575168 12.543397824298829 12.376343794968225
Ag 17.16990859995894 15.304162581328901 10.658042099562985
Ag 11.39896275342556 12.538697059647124 14.235322343434499
Ag 14.599329531531824 15.153314754698822 11.639013929373782
Ag 13.999494497605768 7.622235950406825 12.195304619628585
Ag 12.354484724515755 7.600124480827974 14.499555610158641
Ag 9.216057327662439 11.20433340336404 15.44589767156231
Ag 14.911704776227431 10.201065610058608 11.511993597415975
Ag 11.954092604451459 15.003988498357705 12.588802457196948
Ag 12.165517625347434 10.007217590471898 12.639095948812857
Ag 15.208366867620938 14.243457497705366 8.950825531564758
Ag 9.851562048858002 8.890591726811303 13.891326848432325
Ag 11.230630860811269 7.152616959463172 12.01677556725029
Ag 15.194500354336016 11.390283537942443 8.905825048857603
Ag 12.611916538574159 11.363855448786525 9.977542812965616
Ag 12.539728003912339 14.259074481523704 9.964776894163585
Ag 12.514808585595041 8.612631436121077 10.014188433218354
Ag 9.849939898505882 14.973810597445846 10.631834250810076
Ag 10.591097945079587 12.392742762843962 11.563998941444261
Ag 9.418015266815866 14.520181564295894 13.465372182351791
Ag 7.203231262068708 13.04739042479047 14.332379029579846
Ag 8.358000452358839 11.025031467136904 12.776457088486733
Ag 9.866358257763226 9.391251754060661 11.073669700337092
Ag 13.205059029966135 12.907251815344907 7.529145867673287
Ag 13.075424810371821 10.057534724047565 7.570457897957864
Ag 10.481612304698197 13.000840232652951 8.589401499331045
Ag 10.404180136869362 10.082193394622117 8.456071064486474
Ag 7.865154507279853 13.994235145060463 8.827017646050571
Ag 7.61062438377676 13.495253746907148 11.595826711879479
Ag 8.33377917525528 11.400271205458996 9.916500467530694
Ag 11.100691566299759 11.600924233800287 6.203403838250609
Ag 8.463962856430266 11.734570569078343 7.144779583994566
