43
Energy = -92.52057153 eV
Ag 12.839752384222653 12.377109410160898 5.827810983619154
Ag 14.155086150298835 13.39140670968113 8.085595947434017
Ag 14.861140609323385 10.854812440672566 6.938399850348742
Ag 15.207472411604865 8.745351656641757 8.713419006661505
Ag 15.278206723259915 15.790471858291683 9.00806658977474
Ag 12.283441512780513 10.804768319139463 8.08918548709725
Ag 11.29551011875333 13.603619398116063 7.835089155973808
Ag 14.872458325389264 13.753539443210569 10.858855393926282
Ag 13.159825924300131 9.393048448944402 10.56068291788904
Ag 15.091280366190261 11.298949313227993 9.72781902318683
Ag 12.618373399346419 15.314599339632034 9.72775592690712
Ag 15.806578384123009 9.275437351442353 11.470320412631997
Ag 12.244997618729347 12.470181954746383 10.27727502081171
Ag 14.277713119920266 16.31109840206592 11.700356610715755
Ag 9.662706313655425 11.839745875731445 9.277150849079213
Ag 16.277424219816297 11.905519635921074 12.505768240099352
Ag 10.518334681972064 9.31515138184827 9.78875540433113
Ag 13.735894208625597 8.762772912029888 13.366614557644068
Ag 12.398687258441978 14.086719363787537 12.618077758419087
Ag 13.529246791231577 11.508479466237885 12.493109313760673
Ag 16.344276587106425 9.629196639600229 14.172107728637872
Ag 15.063530630147213 14.215114768121198 13.617423249247908
Ag 10.098276805890997 14.478009184010691 10.355905115066992
Ag 10.166719533779611 12.26625177985844 12.369847161729052
Ag 11.13114948514508 16.43069010508904 12.185654654586521
Ag 14.381031173743624 9.21699090731484 16.077058440730603
Ag 11.17352268728605 9.53382178477009 12.516401253200941
Ag 13.232747648396309 16.35466821457679 14.242588644079065
Ag 7.79390807610036 13.017698941659793 10.93504993731164
Ag 14.864129282671309 11.827146973639477 15.088161053582391
Ag 8.495774571498675 10.225459651857078 11.534783980289621
Ag 11.687969407153595 12.173648799382187 14.673829070898625
Ag 13.401909749245364 14.083211545513407 15.909741383536778
Ag 11.75066997235202 9.372687395793367 15.289301844807257
Ag 8.895005840095035 14.696249438802836 12.955816046121123
Ag 10.864764925578973 15.122247222183981 14.884685038786689
Ag 7.330734326316127 12.098546218653265 13.48387682305336
Ag 12.862578069080357 11.429504738525148 17.082999633276973
Ag 9.236403445029104 10.27329177044952 14.329107444049535
Ag 10.998185146042022 13.619219956355492 17.3035757416161
Ag 8.975094801539436 13.184975333645347 15.414609389668174
Ag 10.053719577945774 11.008455527065195 16.917473676580943
Ag 7.350554584514002 11.064968378733036 16.222812014776373
