43
Energy = -92.16183385 eV
Ag 13.618671093864002 8.95427597098275 15.482936513475863
Ag 14.079672155137127 6.585523713560918 14.283212015392136
Ag 15.717480792645482 10.591518693727574 14.687660728918637
Ag 13.415186120903334 11.697021906914188 15.804844045553157
Ag 15.283011093165237 13.330167067705753 14.227034368392623
Ag 11.150430330980788 9.810915119686785 16.595595324881213
Ag 14.82176213494788 8.857142186394478 12.652555175336452
Ag 12.833728824295836 14.37558228026053 15.060716578685602
Ag 14.634059935975538 15.96577467388811 13.372293492410597
Ag 11.44380978540503 10.17755964366856 13.967264044993627
Ag 10.964909607909135 12.726151255116855 16.433988048319225
Ag 12.524755807138362 7.295316691820416 12.125972727380631
Ag 15.736488781462537 11.557610432516995 12.116795042592894
Ag 8.972287058250984 8.86550846690877 14.818841367074144
Ag 13.88180826814032 8.47261121039222 9.886466468304366
Ag 16.27399212729624 9.694003465868331 10.254102319984973
Ag 14.691242246303291 14.021392086460057 11.374183078916802
Ag 12.999483919952015 12.286705633709063 12.93332696463647
Ag 8.9484441349109 11.611829040242334 14.89352515152335
Ag 12.197668097472853 15.136901053826673 12.387664681003011
Ag 11.380140693293939 7.447589646129089 14.719735610702411
Ag 9.926003219952877 8.386400512791349 12.24474326909735
Ag 11.132419236024603 7.888159620207849 9.768861501054868
Ag 13.957039444445934 16.76979774650857 10.754112012417329
Ag 12.202175707163669 10.10407921850134 11.326244560463001
Ag 14.312492089992013 11.65404703482487 9.671644067574283
Ag 13.818990061761985 14.76160049920615 8.805789063074409
Ag 10.215538169788235 14.0438178375798 14.121339664013426
Ag 12.01769947518884 13.112015474027253 10.29518843205443
Ag 11.990533689586618 10.280495283403576 8.547054033499446
Ag 9.628396781187945 14.681217107894765 11.41506063304941
Ag 7.965013139781249 10.365488697215381 12.502126854410223
Ag 10.213445987621274 11.975263005917878 12.151130537916094
Ag 9.519868238981978 10.16953830639848 9.9975529517139
Ag 11.382699357035005 16.068982498543598 9.80537437514643
Ag 13.050284584884926 17.308758829045196 8.053112396988762
Ag 12.800703615053687 12.636258112887234 7.414354528650181
Ag 10.151816449730664 12.483524814556862 8.29406632566898
Ag 7.749355918022019 13.244479708324556 12.911720939012088
Ag 6.961601772508222 15.015520677219966 10.679615391359672
Ag 8.108801126161866 12.535598278993154 10.217904180397731
Ag 11.376061389552046 15.036994651905056 7.243406340144874
Ag 8.981248989178395 15.048083297322691 8.732105646869634
