42
Energy = -90.51924502 eV
Ag 9.858030328666668 12.812731940683904 7.25789885902486
Ag 9.450322342513296 9.9911211561018 7.646965107225469
Ag 12.210253026479332 14.07007821116992 8.141099395609253
Ag 9.610569949814343 14.494494625552264 9.511421733007337
Ag 11.483719831409093 16.562177224081896 9.286775686504615
Ag 11.794421988716389 11.27757757514729 8.58873718733356
Ag 9.187136695927713 11.72890373781179 9.832931386740936
Ag 11.336746629723836 8.518873095139417 9.173830781579055
Ag 8.793188127587062 8.987517144505803 10.200299509977295
Ag 14.27532014176964 12.551549617746714 9.389804726499202
Ag 11.728533023820582 13.172729322184043 10.830463384709617
Ag 13.853970185425258 15.278125425529817 10.062334375992101
Ag 9.040136029946042 13.399695714137948 12.093896240790206
Ag 10.545690637793047 15.732802021899664 11.862046718594588
Ag 12.784252320208704 17.44440000644881 11.642464907924555
Ag 13.716291946581144 9.870682858280718 10.035640621078905
Ag 11.259557762736334 10.458741857332038 11.457816659466271
Ag 8.443296267432116 10.67502655396479 12.37621409333215
Ag 9.983439097896301 6.626648716574095 10.965560051603825
Ag 7.697243860385075 7.656094228623096 12.38514536834242
Ag 16.202618606871603 10.985069904528455 10.847017641749131
Ag 10.19462810813474 8.423785849754307 13.204677486344798
Ag 15.703108362386425 13.75141823125782 11.545873477586403
Ag 9.914978857402971 14.754904869600418 14.539224783371886
Ag 12.471718587181478 7.8043910124232925 11.611154970827961
Ag 15.23219197292827 16.389508882426263 12.324692198197036
Ag 11.38421559735206 12.444142002739957 13.626395265954832
Ag 14.998460746921268 8.793944977641198 12.25230864140191
Ag 13.797352348379448 11.740799721992484 12.263751696519366
Ag 8.581554806694076 12.247482134643594 14.615340247851087
Ag 17.191793431260837 12.14332284011249 13.235757829022175
Ag 13.132680409693307 14.652301520592909 12.793894457307557
Ag 7.967158350322029 9.287554517351776 14.704925416877469
Ag 12.760884775313233 9.523805028663503 13.81948018212588
Ag 11.86029212380793 16.73750135269635 14.169940738500923
Ag 10.567287033989418 12.829618411902024 16.504723312728437
Ag 15.372977430330618 10.426147119788263 14.503234410587968
Ag 17.5790015285899 9.4535369946973 12.841593064655445
Ag 12.60914944012666 14.393918841733823 15.546113482851316
Ag 14.933173571476457 13.245779117966821 14.43088816487107
Ag 10.531719423907418 10.259028633185967 15.306091484621808
Ag 13.073610383395454 11.541688547720982 15.769646119208856
