41
Energy = -87.69173931 eV
Ag 13.373568029586163 6.79097037330417 15.325451184905026
Ag 12.626864985934375 8.417183958537462 11.250413754574742
Ag 9.916560532453223 9.011509809703817 11.726505607904787
Ag 11.417815453614931 7.726464217295347 13.656794693010387
Ag 12.585659956054135 10.403110935779146 9.266565857693609
Ag 12.142015247978382 9.232138432076292 15.858022760899473
Ag 14.085802104089577 8.959383548429168 13.728951664476476
Ag 14.420343280135587 10.543199763401114 11.416130526729466
Ag 13.645797592462438 10.76505000912017 6.621318772901228
Ag 10.875474654816268 11.041849398477211 7.112363220871749
Ag 11.929126069514554 10.729680411825262 13.020945319786033
Ag 9.224011407397665 11.693892243720772 12.248391478645038
Ag 9.695109031614518 10.834799160602138 9.641992316577097
Ag 15.096798875020177 11.542197351147234 8.896839263880295
Ag 9.635622515205197 9.883104257120785 14.455293671085942
Ag 10.771222371830707 8.3572682464463 9.075412143426066
Ag 8.158971814587284 11.789071354596572 7.49271993077259
Ag 11.15023901535758 11.806830515855895 15.823397670277089
Ag 13.881623049438423 11.348041418589165 15.323275519527577
Ag 16.088552911710302 11.093469728941736 13.637362489748739
Ag 11.782407171821204 12.699521949900804 10.90005674614223
Ag 13.820702171280068 12.92314636181964 12.954281475354783
Ag 10.241762550126511 14.464494896083082 16.14271371102549
Ag 10.080944915718527 13.45357858452318 8.582745361234165
Ag 11.02653062426352 13.615271338300833 13.546766114410216
Ag 8.599118111264008 12.556738712336633 14.85554856863466
Ag 12.774318306254361 12.97557940679897 8.035767109762986
Ag 16.433177907587904 12.460965921235815 11.171082776631502
Ag 7.803957379600748 12.857716455414893 10.071760739696847
Ag 12.96728407991794 14.017161530923607 15.619360375530364
Ag 15.650627243770368 13.637176113419043 14.986522965805952
Ag 11.933017547366973 15.266762303280034 9.507906249397442
Ag 17.821434456661343 13.45384754991908 13.320949262419607
Ag 14.313742481657597 13.968130864400498 10.185905768751724
Ag 9.755566576480309 14.73649074957877 11.263250632955065
Ag 12.806719056384535 15.466881537912204 12.12236846625958
Ag 11.58991136417745 16.341992599753446 14.502654472212964
Ag 15.77381770369299 15.03171854839542 12.311882981747408
Ag 7.423972413643125 13.840066966942315 12.629235317779559
Ag 8.981922573340944 15.644872708702708 13.91797161701439
Ag 14.360269653232649 16.121362497018026 14.413918466580725
