44
Energy = -94.5565124 eV
Ag 15.518160512481684 13.374661909357549 15.075913161908408
Ag 13.241435488667952 14.831332172476852 16.045063235638683
Ag 8.26991694462513 12.366971499001412 15.915542641436156
Ag 10.724581310106341 13.635649341251844 15.999138696320031
Ag 8.413886461295732 10.004003120131463 14.176241522553866
Ag 12.957861072355346 12.457048182593807 14.462604958919993
Ag 15.449222591790837 10.881577228503954 13.681937065532914
Ag 10.776018479968895 10.923007729172374 15.259248500062142
Ag 12.942976472933166 9.675730514395795 13.954631499612958
Ag 10.542257234660546 8.278442944252435 14.24325985313153
Ag 14.604843448251223 8.818430479983224 11.78773120556497
Ag 11.895859795527237 7.976692829878916 11.866040238080828
Ag 8.524913569349513 15.000561517240758 14.694710224143064
Ag 6.407728596445586 11.861733264195589 13.850512993228158
Ag 15.86899109978104 13.250054660844516 12.27153288647621
Ag 11.28859643312937 15.600964240666922 14.179245006947111
Ag 13.953957795686984 14.952060319740788 13.327596877586021
Ag 6.413290092601249 8.943881168573476 12.637263342248206
Ag 9.399702185637192 12.713315700170803 13.427772444930318
Ag 11.716372472232798 13.566689341788305 12.075567129132253
Ag 9.08570445989149 8.513537925729338 11.73222737353033
Ag 13.663942176495887 11.536415646869884 11.599860470749007
Ag 10.944736080836664 10.771554373439791 12.14438595298926
Ag 12.284167357781957 16.36184776138164 11.593431387955459
Ag 7.79982703760951 11.059886013872791 11.568597156718655
Ag 13.606735303907499 6.9063016605426375 9.90517181879279
Ag 16.334003106301477 10.866845962736917 10.888797979177811
Ag 7.229181291639755 13.930621933545128 12.179304928270364
Ag 10.606882105698146 7.674409774077665 9.386807003871727
Ag 12.756375707612332 9.528241444819445 9.586746896269318
Ag 9.57497303970219 15.447557987280007 11.951239152162609
Ag 13.973957596717245 14.267498132001485 10.52040095123451
Ag 12.55166723069693 7.346658795544295 7.357808875508547
Ag 11.146153499865488 14.921714565185027 9.515035759049514
Ag 9.67018884234889 10.314990204741742 9.616421327362508
Ag 11.932379330992374 12.217269692997068 9.457424763218219
Ag 9.325082702459659 13.014312439787934 10.435026015633843
Ag 15.489848827003733 8.919312413180846 9.034946453619417
Ag 11.087140472973529 9.722074036415968 7.2909342001152
Ag 14.598555159815149 11.711593208591857 8.769991311954001
Ag 13.963758253299115 9.633450173955275 6.83659687034666
Ag 13.336957900493797 14.246057588165094 7.860814958892809
Ag 9.9058790554557 12.368464879133828 7.641847901573105
Ag 12.535949861362713 11.987847175884369 6.590934953543295
