42
Energy = -90.02600966 eV
Ag 8.44307845940344 7.9716241910060175 10.455159117502781
Ag 7.3306159668825455 9.50615848468169 12.482448512691668
Ag 6.4422682186874605 11.754966067974204 13.831263457130644
Ag 8.106168185756898 10.872243733208347 10.201141113462464
Ag 9.458754978311953 12.210587819427005 8.122573713028029
Ag 10.181473643740592 9.306522210774215 12.277881263476816
Ag 8.77146454277692 10.128544143565788 14.781994946171677
Ag 11.259533044610437 7.525399486994288 10.363740546293176
Ag 7.604739471403098 14.2838310775845 13.058718363346946
Ag 10.029909982180907 9.44093246027486 8.720599029102772
Ag 12.488258930878622 8.360502232003343 7.905041514175966
Ag 11.443834331125938 9.324678372316134 14.862693505110744
Ag 10.844599319199062 11.572423200695624 10.511431419987966
Ag 9.04314937703862 13.799343175558796 10.479484482459705
Ag 12.732668809345878 8.070986809188957 12.687988685703063
Ag 8.359399406299588 12.808664934329464 15.517643846949282
Ag 12.11467369003359 11.165566311679756 8.001264426871789
Ag 9.022555647920475 11.944298387308129 12.674995837605135
Ag 10.99451660785717 12.309307323128332 14.718181837589107
Ag 11.589016685574599 13.893604705544712 8.895328905718392
Ag 13.151617206476173 9.626730318158852 10.304257055651759
Ag 11.383546877834506 13.73785202675091 12.25874968930813
Ag 13.462130314128025 12.574278111425302 10.548174333150321
Ag 14.690345436337491 10.04505727138905 7.681129846976476
Ag 9.573433250055501 16.07140643587624 12.115272804140977
Ag 12.512781474244472 11.033919216845918 12.73861633407408
Ag 11.903951675703341 16.09084160683489 10.652624035888051
Ag 10.408215678260747 10.931332914904 16.97996446843196
Ag 14.308100217521059 12.865127523380188 7.8575434765973915
Ag 15.05292508511528 9.702939929376598 12.554441141857744
Ag 9.974937693933441 14.866714940968906 14.556360564527902
Ag 13.106684429670047 11.24292788796163 16.11482658617122
Ag 14.167707740890854 8.789217310619756 15.034890134466826
Ag 13.557189196940636 13.43588048893815 14.233405775866595
Ag 16.897595269823913 11.860683075101006 7.857229500862354
Ag 14.240266919056937 14.93994883555472 11.844366399134136
Ag 12.233111313219672 16.06941287681005 13.475201761975843
Ag 15.723358541777378 10.866521283160735 10.136778915090364
Ag 15.529737957820355 11.261250491897039 14.863412382688932
Ag 14.004818947026461 15.381326505565369 9.02672339953336
Ag 15.559915877790957 12.53627142256711 12.46176501775243
Ag 16.085854535079747 13.693039383027127 9.91371064144774
