40
Energy = -85.33416255 eV
Ag 12.306502470362165 17.59585222823992 13.563020415555789
Ag 14.76939834343359 11.846601819004997 16.8630338716408
Ag 12.966082002769097 14.903395556850217 13.70074639726205
Ag 11.184874799281365 15.977113246190456 15.577136221304695
Ag 15.088563871335516 13.315468121667456 14.521087015667304
Ag 12.841480306464552 13.766231141701804 16.223506015380604
Ag 8.646060463501474 15.045921265501933 14.941123742048841
Ag 12.667076178369138 16.05288320420321 11.163851083483337
Ag 14.707217373014183 10.09921825782183 14.69188866094365
Ag 10.312641198532319 15.78905144974949 12.79739354069083
Ag 15.81949665233609 11.633265453486286 12.493773931541824
Ag 14.322479842122952 13.679043880952467 11.489323712263815
Ag 12.223702294752202 11.023309225252296 15.954650677145256
Ag 11.434189433835598 13.482167376291324 11.674224950681124
Ag 9.637736812620865 10.441359657651503 14.923614470338885
Ag 8.653770296797497 13.47375748036098 12.50335433315447
Ag 12.956834355908935 11.866195672782492 13.300544310207966
Ag 10.630545127668283 13.111525525877548 14.551308699617353
Ag 7.722550347946804 12.40463439085203 14.886853224602145
Ag 14.83212188921334 15.34306171028998 9.321911125957843
Ag 10.394970604135432 11.028078904869846 12.259194781421511
Ag 14.719969853061478 12.60916082612998 8.827242678166884
Ag 16.711986256033697 9.090468774544714 12.663854291936905
Ag 9.508124823556289 14.587485324933635 10.05866932956887
Ag 9.201282196181754 8.487834284588718 12.863277936330695
Ag 14.026072680684704 9.128980931183817 12.18085918342605
Ag 11.898805236534036 9.1316595603133 13.928768137189735
Ag 7.708372385128828 12.249326410221844 10.186697386673714
Ag 12.853903391323222 11.157027120597295 10.419911834682445
Ag 15.645816541614474 10.250760088862187 10.137942933309773
Ag 12.304011481571822 14.119356414333698 9.142841663667495
Ag 7.606685374291554 10.762604130507693 12.58067957203657
Ag 10.336115231529375 11.99248638350698 9.372048990023654
Ag 14.115493332297127 10.109725460872262 7.72909347292361
Ag 8.9195743785254 9.665571874334788 10.22130794694731
Ag 11.416724826269382 8.628803420926179 11.177940567288873
Ag 12.246736487466867 12.036748527211236 7.326808014549584
Ag 13.656793065760109 8.167717842541446 9.614818041974564
Ag 11.310580973970284 9.502881814910898 8.464671398084274
Ag 12.960468316355751 7.700694389155089 7.013101023723901
