44
Energy = -94.94388132 eV
Ag 14.623324104958993 7.915186666929307 11.684705864317879
Ag 14.346610039660035 8.779318681555011 8.935888236397423
Ag 12.156268849022888 7.336794926829963 10.517867536365637
Ag 9.40796480489065 7.361581384143584 9.847237061793711
Ag 15.52002516909829 11.476246057902468 8.668338852273523
Ag 15.817905976334696 10.430896569005299 11.214108524020073
Ag 9.243558259160611 7.238056768863527 12.745377569066278
Ag 13.276121967173484 10.756167936338544 7.247728781094446
Ag 12.23116725286101 8.215318149139064 13.185284771721824
Ag 11.433473972493822 9.04660132016991 8.509994357064475
Ag 14.569157853790166 9.876987759911037 13.66336849731616
Ag 12.967005017409582 10.266491903788515 10.711615606069268
Ag 8.907579553488395 10.122280757448829 9.168724406929524
Ag 7.398929692723625 8.914857030506738 11.375878323190092
Ag 16.280396572270803 13.176960260741172 10.766223985908834
Ag 10.757443498856277 11.69213633685865 7.738357837059609
Ag 16.153839884254285 12.239472103629513 13.410608299100966
Ag 15.333026024280953 14.277087527603783 8.343800950384145
Ag 10.300082618724522 9.424270003789854 11.45808215433681
Ag 9.898393747503057 9.452512025089199 14.413835010723355
Ag 12.747498998869291 13.532503519037128 6.789080121287344
Ag 13.163206327352638 12.902962659371207 9.407595566738992
Ag 12.513255029211072 9.733012222256164 15.584492961171549
Ag 13.766928596655799 12.685657109215466 12.089999947951462
Ag 10.699769509914455 12.039213651933215 10.586993612083592
Ag 13.798517483876882 12.226821581202369 15.07563222593158
Ag 11.831764121000889 11.06828833588739 13.195254926608783
Ag 11.695341805392795 14.612177812471916 11.34432892496717
Ag 14.439775967732503 15.27382436412669 11.022853307490847
Ag 7.260535985976934 8.740318128794067 14.194816574680276
Ag 10.605644411940625 14.266999571284218 8.688956512991522
Ag 14.659302032584403 14.6607490430321 13.84218480821591
Ag 9.780036019381283 12.877110522795812 13.152512344281968
Ag 7.938646261543087 11.402549540875771 14.9398792961394
Ag 12.945207323367768 15.709184735501262 8.700032120429677
Ag 7.990129891061736 11.635262426392872 11.322201156770113
Ag 11.92451380484543 14.20726287592318 14.427522782624957
Ag 10.728810818860149 11.93821297871396 15.6429086907359
Ag 12.694546777507353 16.511833620488694 13.064109574935566
Ag 5.957134460650713 10.842824643149203 12.964440026651472
Ag 8.89820359333662 14.295260594628978 10.950427782178297
Ag 8.94509046468696 14.17065910862237 15.419744709004425
Ag 9.908177950593778 15.752047992325211 13.27425239250467
Ag 7.074509764866236 13.504861051891723 13.301575268655716
