45
Energy = -96.55232045 eV
Ag 15.19976752985024 9.181942600681761 9.362498522595297
Ag 13.456252591773922 10.728498824896146 7.842810793278009
Ag 11.63630990818458 12.737455521905526 7.072001503475267
Ag 16.01673165598885 11.760739735762806 8.831850071790914
Ag 13.932635244207003 13.484711980079155 8.506249707716925
Ag 12.039888226432332 15.454537744549688 7.765923498307894
Ag 12.511129783292848 8.71864201612324 10.12846438929621
Ag 10.837805269118983 10.758715444748137 9.0723724001561
Ag 14.763097201541463 8.682430200431797 11.99661838687685
Ag 16.425954970848963 10.856891652720108 11.469569665155191
Ag 9.078537173336262 12.985379902747432 8.416062031677058
Ag 13.532760818846667 11.30283118707259 10.589004102492652
Ag 15.35780940457823 13.514744093514526 11.07384490401317
Ag 11.416311320973573 13.527051977928764 9.823057075605114
Ag 9.938678498804496 8.948178323885907 11.264567201820991
Ag 14.05421896424706 7.423997786626287 14.380321280744734
Ag 13.434357054778875 15.65913649084543 10.205380027397347
Ag 12.217935029572349 9.305385254988687 12.938489659418384
Ag 8.346958802883451 11.142792579778407 10.427226071262485
Ag 14.363300309229308 11.324355431939647 13.25632134413165
Ag 16.083794067564085 9.460834554258826 14.385810815786217
Ag 9.553455070783432 15.694551284827226 9.109959053552275
Ag 12.815523293306638 13.548125817246602 12.24254031104122
Ag 14.91799653894758 16.112322026759895 12.446661717409464
Ag 11.549628484671759 17.63998130648407 9.499390182825836
Ag 7.398656729015471 9.490312655036197 12.431629026949947
Ag 10.812710522030285 11.589177467834494 11.849132416617703
Ag 8.855910362166389 13.893884265116968 11.126747022244041
Ag 13.532274381955823 9.77086002522384 15.651975976343811
Ag 11.430494663614644 7.895786486489987 15.265309727441295
Ag 15.20226804562164 13.8823586565056 13.913468061945053
Ag 9.657828980887462 9.872278693686773 14.053680934763733
Ag 15.38815735975727 11.886442935504936 15.860940238083858
Ag 10.870643495650079 15.855961336848232 11.636828737441354
Ag 8.118657518463225 12.105124590750693 13.10926604828142
Ag 11.877985486353586 11.861940613896547 14.44919620663763
Ag 12.773261880397545 17.81203858690731 12.032246073999543
Ag 10.15006398502039 14.053565087701969 13.59996706725851
Ag 10.894627371868703 10.212433277707692 16.646523206488265
Ag 9.275084595325552 12.287664646884984 15.63253830734721
Ag 12.962272042828276 12.080556700494643 17.19953929650523
Ag 14.17126771567237 14.471244655911025 16.38111470813907
Ag 12.588090109434207 15.618431683792847 14.043624169258713
Ag 11.368588990246918 14.16961462301818 16.12488399938179
Ag 10.424537493645328 12.48629950799482 18.212121240352985
