46
Energy = -99.39074059 eV
Ag 16.161482354073723 9.622783260921578 13.688494180328329
Ag 16.612162819783286 12.368698752224455 13.307640100998562
Ag 15.152580667761733 10.8205337406919 11.413278813919563
Ag 14.770253333104227 11.521725934832277 15.242572629436992
Ag 13.940599359182645 8.81521103681821 15.077948088189437
Ag 17.17089676696764 15.034485473703318 12.946045097032103
Ag 14.305628004820077 8.0433775457547 12.260633816440757
Ag 16.107010929334805 13.48136629197154 10.811803070929049
Ag 15.271898438645401 14.323089543924983 14.904239552422405
Ag 13.41571402525325 10.475124885481423 17.394994869525974
Ag 14.568074701712066 11.769989454440852 8.892751648870703
Ag 12.7287106156738 10.26270292631156 12.917647605981076
Ag 13.25451972815838 9.427914014845374 9.866488558819903
Ag 11.821509472215453 7.611697226215673 13.596319113497717
Ag 13.303145615210221 13.370830129046386 16.700229842258757
Ag 11.961113344595448 7.2175356900739285 10.846222334982452
Ag 14.483535944252873 15.52117840812533 12.346700353100532
Ag 13.733515808068208 12.878823439108238 12.873048919255199
Ag 11.416162059700822 8.77156571687342 16.144772575678733
Ag 13.718156955807766 14.444339432397314 9.800012311122742
Ag 12.237188686263188 12.021842765427978 10.53642070012639
Ag 11.69811535884875 11.478143701630076 15.434287973473186
Ag 15.8008194644531 14.059191252332171 8.053350428751049
Ag 13.06866067652637 13.455723514021047 7.141815643369184
Ag 12.49647686313671 14.90815743182158 14.454270932772703
Ag 12.00232476328535 10.952908078134959 7.802487447759977
Ag 10.536259773251158 13.924201277667398 16.240840913924107
Ag 10.825521587152604 8.542663333592115 8.652074750552899
Ag 11.777463975940494 14.786888835887957 11.742417665632884
Ag 9.96691065725402 9.667495250815065 13.971725660559182
Ag 10.7712660643816 12.294548089905565 12.879338509038133
Ag 11.064305882362829 14.15268224459798 8.981460147419114
Ag 8.868375915457284 12.024905600354867 14.930444729455074
Ag 10.487624825122893 9.614489999100304 11.172746998583213
Ag 9.748594591376197 14.829485499235828 13.695827881577705
Ag 10.293413242404206 12.849215423234513 6.603805113940884
Ag 7.809067523303037 14.489469887258002 15.626004169588482
Ag 9.623121305753113 11.717177578098728 9.275634507902266
Ag 9.396008585268612 10.143678249589756 6.917886083106656
Ag 9.18841230980104 13.907359007289509 11.069396821733857
Ag 8.284775631993629 10.966591289923775 12.188947949719704
Ag 7.260623783779547 13.415681970099028 13.040498148282747
Ag 8.27778044959002 14.014766125388261 8.32413905170261
Ag 7.929374948848233 9.647003988900524 9.650232207282954
Ag 7.154148363318839 11.517440093909174 7.66911383622661
Ag 6.912299991479747 12.418706316820979 10.31223692527814
