41
Energy = -87.01166755 eV
Ag 16.076465288471663 8.896358356929214 10.451897097989272
Ag 15.951191398392476 13.512648708374916 11.67528818242817
Ag 14.013048300014296 8.357666596818298 12.449664409435725
Ag 15.754278833990186 11.60243416242888 9.407304965711614
Ag 15.903826479605259 9.49237280759749 14.178590147789329
Ag 14.042783004262164 6.903190727589805 10.129763902442853
Ag 13.557323880289692 9.720768639921243 9.7529706462074
Ag 15.743293239241641 12.281935337131499 14.320733992807813
Ag 11.565377537889587 8.087363240951058 10.815011304759961
Ag 13.170566552045491 12.497444985316069 10.045046386758239
Ag 12.484621065483925 5.9001217272586395 12.224923441803261
Ag 12.42449690779915 7.676909846351635 14.57070363043547
Ag 14.92206148825582 16.090879091382718 11.416246538343012
Ag 13.412359103819284 13.217322132958707 12.894014053225414
Ag 10.904937221702104 10.602675944228228 9.480408747802732
Ag 15.302833452710058 15.01898517270955 14.045438720868168
Ag 15.12832662582413 14.320101473475628 9.148859560251164
Ag 14.899168841487006 10.92882344850693 11.997737862043815
Ag 14.588647412696604 17.695150192715225 13.761231767048843
Ag 11.91565352341677 10.806198206452022 12.085932228658072
Ag 12.604849633161978 15.269970103029628 10.024566434812556
Ag 10.104588283212648 7.088712184990181 13.004352025263522
Ag 9.252168931394976 9.383659533498227 11.518766215074406
Ag 13.353555779745683 10.510178495432006 14.555687931651923
Ag 10.723904784217353 13.311216357776749 8.863429539542985
Ag 13.557488889139893 13.28119856341983 15.732348035485249
Ag 11.190547713864753 12.333192808901098 14.562585888449345
Ag 10.901582371734271 13.418094701990887 11.673244229247894
Ag 12.946230026790438 15.987577839623269 15.251909244055595
Ag 10.415653891179979 16.03610459515967 8.400509259120478
Ag 10.437794277803087 15.205896513796688 13.85180116306478
Ag 12.443794396318124 16.607909332030637 12.49824778805782
Ag 10.546679221525288 9.59662100755318 14.192356230283227
Ag 8.560184541657176 11.947463309647812 10.33741451146649
Ag 10.978076827587909 14.36479359758798 16.41760964751424
Ag 8.3012858692894 14.592457390345377 9.520010755428624
Ag 8.970926375820689 11.586557247516783 13.077211904508106
Ag 8.595893352929 13.469781146802468 15.085151659501348
Ag 10.06230499551438 16.040960211329693 11.175071506527633
Ag 8.18699066816227 14.212041768579727 12.286615941281147
Ag 6.427237446378054 12.469260926716872 13.442340937679466
