43
Energy = -92.26838165 eV
Ag 16.388948609678167 10.779236923040232 7.785393012969607
Ag 12.233985583673242 14.589380179998424 7.650753660187247
Ag 13.721397688386395 10.027930335788483 7.607959976840507
Ag 8.340185186406366 8.612919589826182 7.222331551018584
Ag 14.382066775318409 12.75452168368349 7.620627033603155
Ag 11.069640930539327 9.347108489386054 7.391553572345763
Ag 11.77313401154354 11.936899156475853 8.435910641273262
Ag 11.202064833654765 15.52699692642089 10.181364602484772
Ag 9.746343666327855 13.792445816885783 8.640260231135997
Ag 15.159133293653875 9.63170752303327 9.99040105256495
Ag 9.01797387786035 11.253938259612099 7.757099973370462
Ag 13.605938295929485 14.072500211789654 9.984224375105443
Ag 9.645733074658516 8.50650353064038 9.639311773306265
Ag 12.262493144924226 9.646877288009316 10.031430148955883
Ag 15.89043171278359 12.41922994397209 10.000924298373107
Ag 8.347887996643193 15.856418345664913 9.92009276470833
Ag 7.328364739960573 12.950330972052475 9.537543846967298
Ag 14.065696613539615 11.417100692592564 11.857535453349534
Ag 13.779289047944198 8.601021444176197 12.185669567794383
Ag 9.882712285057494 16.471437700311352 12.393099737612621
Ag 9.671365214849759 11.336789439271346 10.506193688637369
Ag 15.150735602775303 13.987426248327528 12.236825283399456
Ag 12.695982239014507 15.436782811007795 12.554352485108677
Ag 7.2857491986630825 9.970543566850226 9.607084494270165
Ag 7.137534434484254 11.535914248082895 11.911469971685612
Ag 11.122773048336136 7.627156938756745 11.784996775598705
Ag 11.579491729124511 12.970066674924327 11.579591129686605
Ag 8.786779148288305 13.935989965901815 11.778454032227893
Ag 14.628477053000614 15.059134036585233 14.732086074161446
Ag 13.788150554495662 10.21674229243873 14.503027710924911
Ag 11.544715721520072 10.368520714505495 12.715161331313828
Ag 15.59035434985009 12.367207944181946 14.47498212350003
Ag 8.814785382720927 9.24167121872624 12.281881540212474
Ag 12.098695203624882 7.949815115521026 14.384703389278576
Ag 9.324963015422952 11.870472638564385 13.52142822966065
Ag 9.454932086228856 6.9637977189468145 13.92973349534111
Ag 10.479640562202649 14.353421502460177 14.071769247125008
Ag 12.941291964568704 12.969047764987089 14.030072727271985
Ag 13.688383472129747 12.044049926326082 16.60254367131134
Ag 9.765375115001413 9.541011712256177 14.974102964616835
Ag 10.985442626987824 12.022124254739309 15.729223254834206
Ag 12.099414459611298 9.643418948142486 16.68699978356574
Ag 10.483854272550898 7.371418803134428 16.569695579160367
