42
Energy = -89.87741703 eV
Ag 16.229098611098085 10.689571095668207 9.379098734309851
Ag 14.61161949128284 12.690678608739834 8.397403584294107
Ag 12.644332905158882 14.501390419884196 7.89325264136416
Ag 14.796046031198228 8.510404780333838 10.570295664161325
Ag 14.586795862988843 15.306859825200476 9.749354580867536
Ag 16.331265384921863 13.194357957369622 10.650790424957115
Ag 13.844110913781988 9.894886580787992 8.171756242687382
Ag 12.11628937966465 11.893152906309412 7.255562239984916
Ag 9.881295377443028 14.074911779454405 8.115849749402095
Ag 9.392889302832499 11.349336819143593 7.4611318037519885
Ag 11.411758206157087 9.195415231856208 6.9323485722214695
Ag 16.15745565131328 15.62028750565556 12.109368764561971
Ag 12.366907837815516 7.836665528587557 9.34553668094683
Ag 15.45641282610349 10.854696718677792 12.047995887989504
Ag 11.612722315510599 15.334505079733574 10.330288136341284
Ag 13.563580578291091 13.112906463969177 11.101658462765586
Ag 13.666437199162228 8.9339979691309 13.231511727224646
Ag 11.085399576699931 12.507568239535308 9.965548709479892
Ag 13.437529669570933 15.566095764853479 12.521620330308629
Ag 12.815433178656507 10.409934941944046 10.87072242138495
Ag 15.33072467537004 13.322154410841414 13.41201119800865
Ag 10.470880911581824 9.806404031079074 9.436578901170286
Ag 15.250013783396922 10.804955684637719 14.834567688580389
Ag 13.050377191146364 14.046825806994264 14.874407245184118
Ag 12.938321741663307 11.6344423931149 13.455704490796949
Ag 11.175406286584021 13.874784354555992 12.685987952950454
Ag 11.144074700754068 8.33865918183693 11.934801753193957
Ag 9.017902335034172 14.30917762481629 10.850342288196353
Ag 12.965697305603715 11.403961635411036 16.251706745760707
Ag 10.231409481091344 11.018734633389975 12.311450433327382
Ag 8.446786327882785 8.928678593355881 10.966061872955848
Ag 8.327614032133607 11.672382354004395 10.076107803412505
Ag 8.548305216666307 13.192529084772271 13.397071265937308
Ag 10.67283111654202 12.490571225443192 15.047263282077386
Ag 11.271181563594075 9.612633576432211 14.741306857731317
Ag 10.427960139634484 10.8011534840505 17.238650850534963
Ag 8.873566887732721 8.673611988393528 13.663072364368297
Ag 7.235187800350853 10.774729823522234 12.602399800759956
Ag 6.464844183795671 13.232872629128723 11.54738875919431
Ag 8.289463888541745 10.976205664870124 15.24545775934357
Ag 6.058543478915127 12.51281790342135 14.380388049099636
Ag 9.084138298339623 8.54833691148929 16.379978264777804
