47
Energy = -101.07266013 eV
Ag 16.51396960366803 13.956768735208254 10.174690095858283
Ag 15.746448532913872 11.483540935403571 8.886014924265114
Ag 16.324643441392396 13.807121563665264 13.000785012491303
Ag 14.414536147959119 13.951233721595198 8.091215946384002
Ag 16.430980636733004 11.434901720604287 11.583628185167663
Ag 16.55851191236659 9.067024718201967 10.133133337231836
Ag 14.414442893829907 15.567358837958299 11.915078238275438
Ag 15.116320403417319 16.303149197549946 9.38853818121209
Ag 13.697614338111947 11.487547260253963 6.970264205858807
Ag 16.148558842880664 13.793893901650046 15.809275601469404
Ag 14.529524039184587 9.034974721362799 8.066548808421183
Ag 16.32140463860586 11.370065394386307 14.42486831237477
Ag 13.883583284769106 14.209491360568553 14.287940109880408
Ag 15.347157726343237 9.1427672177338 12.971333077483672
Ag 13.853456278705698 11.510972577679054 13.061221185710904
Ag 13.953592185686148 12.97778072805295 10.707496113437557
Ag 14.838318698520597 7.138976837615899 11.132991237831048
Ag 13.890375472338409 9.979417891538581 10.610474771189415
Ag 11.831392811607873 14.302342778158511 12.37955793214749
Ag 11.83925802143815 12.818212094019284 8.57731681978237
Ag 13.961761214961733 12.010806183933287 16.008102890529322
Ag 12.458527347375481 15.353201624293776 9.798627786605206
Ag 11.845940821048488 10.015430488611582 8.45687715154896
Ag 10.29727016665274 16.494166846098633 11.306083234501148
Ag 11.504245244363487 14.879515510554636 15.540928789495862
Ag 12.591887841473053 7.53244302738149 9.58454145294466
Ag 11.584499179229043 11.579396382777372 11.278595648420538
Ag 11.57362212339287 12.338505344159309 14.385300071047684
Ag 11.482098593782032 12.735397301778795 17.326933309785424
Ag 12.615021248551916 8.268404990269897 12.473027432299547
Ag 9.889038999367235 14.032118038008347 10.158375742899928
Ag 12.8955210449633 9.594182221445188 14.912134280470697
Ag 12.642481590994183 10.215416941965369 17.674231926592977
Ag 9.507834252795616 11.364733486338075 9.350568074980016
Ag 9.445093274312306 15.299693413298012 13.717624015256385
Ag 10.489900751687104 8.984260060573925 10.67710231626418
Ag 9.354995049772677 12.64220831988827 12.644385765684918
Ag 10.468968117889714 9.85584608298656 13.369403044915668
Ag 9.191785129486373 13.256838820522521 15.692569524466814
Ag 7.720153152628042 15.405143243754745 11.5387382183247
Ag 10.31563943332354 10.50191798533576 16.114943029795274
Ag 7.35368137812076 12.787737510926084 10.541876400450837
Ag 8.20582644134927 10.257380149870635 11.665312559435439
Ag 7.054553517195752 13.81792280589426 13.922148550452976
Ag 8.002746434786278 10.982309790648676 14.492457389993133
Ag 5.239262912652991 14.160908057540967 11.830969771820763
Ag 5.950375762914324 11.589195370550902 12.689298226217941
