40
Energy = -85.76878016 eV
Ag 13.147569390390064 9.422474297904037 7.1458007411895075
Ag 13.454631720727026 12.136156186383824 7.844316272235659
Ag 11.196639701776306 11.210410637361578 6.143680563724435
Ag 15.379448021826088 10.070439447625125 8.671402544321026
Ag 10.745996303141833 13.25236956399154 7.92092377313097
Ag 12.77578615920204 15.096542128318697 8.505142265774714
Ag 15.097211555476294 12.158260276622737 10.451495316571425
Ag 13.755269820980336 7.9141787965059915 9.565557192433047
Ag 10.46495141905306 9.142037012374761 7.821123503766594
Ag 12.262495841418907 10.221442401796802 9.770316559032736
Ag 8.740685821498515 11.329562393694317 7.856167557612634
Ag 10.268331965151036 15.052020090476667 10.009140613091207
Ag 15.107878469759688 9.548432879277101 11.448705989927033
Ag 8.044139655224166 13.844154183496917 8.890561733160032
Ag 12.514821716522018 13.095028408366344 10.238335045352397
Ag 14.175386836374331 13.848648996652601 12.502045424391136
Ag 12.53816263809511 15.741571560273055 11.385708279482282
Ag 10.006090174837968 11.78976051598752 10.470077697734839
Ag 10.944625722088874 7.685321924201965 10.137271036454033
Ag 8.608384235528332 9.364312983814319 9.868863556441909
Ag 10.75588343726108 6.419552942805607 12.695251364755253
Ag 15.586887162867331 11.584318369618133 13.322787352432238
Ag 12.764028547809188 8.302275252163842 12.242746759340267
Ag 11.085395335995676 13.395480517292924 12.563657301567885
Ag 8.376820173824514 6.9827963701112274 11.266092263207156
Ag 10.13203455204357 9.401636198959258 12.294053747993814
Ag 7.1968892316407524 11.692059053721533 10.550537478567199
Ag 8.276847464067233 14.115326463548179 11.707622642335854
Ag 10.046194684523607 16.02911036028247 12.76508775193261
Ag 13.590408979292597 9.807563457752302 14.521533453241583
Ag 12.297127345786448 15.195112284713618 14.290877958037303
Ag 13.370712354456394 12.631663691139616 14.840378358321257
Ag 12.843574380506599 11.208880118901035 12.292638203802598
Ag 11.125630577450908 8.346557204804304 14.700861608482475
Ag 8.477651324901888 7.221116358594649 14.039949779078672
Ag 9.483134160992932 13.888208572331294 14.6450231514944
Ag 8.636062776431173 11.730080652707995 13.015584222654967
Ag 7.272746638258083 9.32263138441353 12.405613624511282
Ag 10.981019654468 11.219688621317227 14.510853850841144
Ag 8.63698912969774 9.762034208124119 14.961659937302763
