48
Energy = -104.50802004 eV
Ag 15.156642731765137 13.866929136465522 9.207991906109257
Ag 16.674836625038473 11.649764876603898 10.424276474506163
Ag 12.710104612388584 14.341098297403756 7.86456747431354
Ag 13.897530063039055 11.736990309279857 7.961845824683727
Ag 15.57892946404013 13.819633985285073 11.914359453500463
Ag 14.18298868570245 15.821198288151352 13.181948518828062
Ag 16.599313467677042 11.60470208857257 13.346422504598703
Ag 13.060836140088705 15.149877804421873 10.635018174272208
Ag 15.017363543796597 13.521582103413177 14.640801832074859
Ag 11.336004994947457 11.891747956237872 6.962111828093708
Ag 15.706218483580683 9.433179835937624 11.886740776528217
Ag 13.995160034233502 11.707659833062937 10.835151892131357
Ag 14.819418332250367 9.407496713416206 9.208141222600737
Ag 10.166887081950993 15.206453945829798 10.496336013309879
Ag 9.864045518282907 14.084917297921718 7.827293170483944
Ag 15.395845066737465 10.710104856766426 15.770539304480092
Ag 11.49382640813713 12.80187608733308 9.777355667120817
Ag 12.55064939148881 14.94259007312745 15.296168197807873
Ag 12.598058670958713 13.435228780852109 12.896841103875573
Ag 13.017142804093265 9.211829710837856 6.898758838800286
Ag 11.385066229448446 16.081516277636023 12.836259864296254
Ag 14.384234933615993 8.325685701368872 14.14627922742877
Ag 13.74156529764384 10.96311903801398 13.656443845210553
Ag 13.171496208970883 12.37111279990805 16.26235882808512
Ag 12.552393745210809 9.66442186758152 15.99006207856779
Ag 10.161278814410753 9.450793304806648 6.494435728531155
Ag 13.137650933491496 8.55776463622403 11.39825661540957
Ag 9.787751714597125 12.945065990466457 12.164923695362527
Ag 8.57561478374002 11.593403818147006 7.438547329249172
Ag 11.960737942147968 10.025641699907379 9.248285520879644
Ag 10.96734100069259 11.70606425892171 14.629751214603619
Ag 11.106681562439864 7.596438704122527 8.344333536929314
Ag 9.938834619888302 14.41927774764592 14.545783500381503
Ag 9.296416984306175 10.958029133539112 10.144988534801636
Ag 11.465355744185407 8.64384571346879 13.657170798041394
Ag 11.6012670705851 10.887089122793622 11.859856621999631
Ag 8.484379952704833 8.789971667384338 8.60551603617906
Ag 7.766333757953331 14.63492744803609 12.529531605461532
Ag 7.997539847340141 13.406603999498447 9.806185570556709
Ag 9.176099505547748 10.238408811894606 12.95786985208378
Ag 10.250275437318193 8.370631623072418 10.99344004991656
Ag 9.590299551689718 9.386142982638887 15.589557515861186
Ag 8.103687765612495 12.330220515095867 14.46336770505082
Ag 7.368633938986094 8.92771321184218 11.205743356865232
Ag 6.600684122485426 10.917664368023347 9.276155666496999
Ag 8.677674125627396 7.616652905886049 13.435765466498225
Ag 6.964293987891682 11.818307045708544 11.923219371756057
Ag 6.713411004136816 9.74143863371827 13.92658397312296
