45
Energy = -96.22190101 eV
Ag 11.794499744301385 8.151852743575919 12.76531390227809
Ag 14.862354335034974 8.663133881614096 9.107415449113958
Ag 12.170306262847587 8.816316268422273 10.065608839036901
Ag 14.438384576891453 8.7331169976126 11.922344691284607
Ag 9.101692223144587 7.62427044379101 13.299948503118232
Ag 16.01542864927239 10.921706717595406 7.669729550075629
Ag 9.785348763488505 9.52688859955995 11.364022706757483
Ag 13.281219606339658 10.857075125880804 8.517528145802357
Ag 13.329237998648164 9.900267167981617 14.37701654887758
Ag 10.889924308415091 11.491156029853027 9.794092664588248
Ag 15.695462903612302 11.022112167327336 10.382331230922654
Ag 13.065532704753526 11.095256188272874 11.583693905121208
Ag 8.159883274700372 10.258374203332144 13.505864535918551
Ag 15.574311583005887 11.057175756351716 13.184204800863355
Ag 10.438387553615511 9.31886886216303 15.105149294229598
Ag 14.615174669490345 13.28099467268052 8.586324799752619
Ag 8.908408577783469 12.296443671672638 11.611405430418822
Ag 17.351742898884694 12.991109928991113 9.076116402692513
Ag 11.906356050434207 13.261430126367696 7.915621900758555
Ag 10.915450420154864 11.375622335830396 13.379183287029587
Ag 10.033455892123701 14.254161609722038 9.792853791474423
Ag 14.62705542613816 13.433568161813202 11.557679524343575
Ag 17.38725417723913 12.884451684782157 11.834610540166258
Ag 16.545674890839113 13.348806442479066 14.436733814723585
Ag 14.893892785052186 11.658196008656288 16.011703573075245
Ag 9.116944474503509 11.911471455747881 15.525754092062046
Ag 7.129861886617181 12.914630882566454 13.719166838061648
Ag 18.32894274804554 15.179859011621199 10.504609970215645
Ag 11.869887141841577 11.601333489562954 16.110724471553343
Ag 12.78991841973267 15.099741163402683 9.793504741655603
Ag 15.593669696941586 15.54494115906241 9.982243526325634
Ag 8.0376023546578 14.926781611040983 11.705456073576915
Ag 9.49997685140302 14.35815549566026 13.947741131376443
Ag 13.388092518104832 12.888740047609398 14.029648637401998
Ag 16.490685850924855 15.536969819951686 12.60437015066971
Ag 11.705300556117358 13.591834289799943 11.945050329239631
Ag 16.026719780541487 14.130162222738436 17.006984396130925
Ag 13.64742078931217 15.984441449948863 12.306365705342026
Ag 7.707569466302947 14.21667304563492 16.190406003292672
Ag 13.284780782026218 13.997779927262116 16.665427146275444
Ag 10.511585293026926 14.118569501416887 16.5452395002702
Ag 10.733957360071834 16.129015197817058 12.046424494755126
Ag 14.790195414945176 15.492462544763091 14.831298294830383
Ag 12.00187157116141 15.40289421332038 14.4829947064129
Ag 6.363982511205561 15.556593418438908 18.015497701822834
