41
Energy = -87.35148109 eV
Ag 12.848309427712035 7.498532616344133 12.246541149473568
Ag 15.156087221063526 6.867557982481135 13.718424386878775
Ag 13.112927909302101 8.730865979785763 9.498399760612413
Ag 15.344795165180674 8.259174951422668 11.391962168456516
Ag 10.551548458709917 8.506280330053743 11.165961316299866
Ag 11.262249385733943 9.171923876730208 13.815517153590852
Ag 14.065070290708986 9.45231300031968 13.848373574293133
Ag 12.673080824219657 10.473421851048236 11.504480400546683
Ag 16.54970622633554 10.297108241739949 12.968072437476193
Ag 8.245054412031285 9.746762648751657 10.297318135115999
Ag 12.558739708336045 10.50551585006103 15.972752742691132
Ag 13.191619192370194 11.587447843143643 8.804439285805755
Ag 15.324105904592185 11.375940630989685 15.344939631087204
Ag 8.630289221898497 9.748588779228308 13.039640861055
Ag 10.736058372904987 10.21807172267101 8.968046103144882
Ag 15.365440934985525 10.72385619797128 10.322418423288793
Ag 14.73374022822563 12.348552741723934 12.633741554846921
Ag 12.013846926321804 12.049621975109208 13.680829892580977
Ag 15.040856698082775 13.43430869681644 9.90482252003985
Ag 8.579379889928278 12.136337187980772 8.96178288902384
Ag 15.67305556138247 13.306029066642038 17.316310673702684
Ag 16.053063789996877 14.867962443180522 12.068293013909164
Ag 10.11129333439296 11.75750654015412 11.410022403022383
Ag 10.925393448537879 12.603294250473061 7.514176027159458
Ag 13.778524415102014 15.869833648932113 10.683505563017865
Ag 9.491337797312816 10.094953636748599 15.71148872194855
Ag 7.390407195852063 14.435782216623808 10.01173211117246
Ag 12.407251023892828 13.352553351885676 11.161114165763026
Ag 10.903794160980247 14.56058011431753 14.321323625775456
Ag 15.842267865841617 14.075181688438304 14.698525123266194
Ag 13.322618535349307 13.379876932147459 15.775088506725837
Ag 7.378439081803672 12.100343270419636 11.692526622237327
Ag 12.792028361204194 14.421048346144138 8.47427127118518
Ag 8.975042076577527 12.351200167057756 14.078258728862396
Ag 11.51631051402148 16.86090492664496 9.29279463153837
Ag 10.186707538501885 14.384650326485046 9.588759934611137
Ag 9.02625471743462 14.418129322214607 12.244701906461735
Ag 13.499746441624323 14.908019709861858 13.342577038064388
Ag 10.67710605603958 12.5642903521064 16.251484790363723
Ag 11.300653207017824 16.04679970359153 11.982011955336464
Ag 9.005185373803046 16.748263776870843 10.531955694880159
