45
Energy = -97.5194152 eV
Ag 15.099067690846692 16.72833194212855 11.217180908391297
Ag 12.919199492955515 16.443537971722805 9.34598841568629
Ag 15.84815577448819 14.31412772279928 12.33906512971543
Ag 15.00803050366285 14.48257207693311 9.549673478814777
Ag 12.604080772260506 17.66997634336058 11.877444997114104
Ag 15.302897778483997 13.778190479699877 15.023648510741234
Ag 14.029890122596358 16.05731521217066 13.908400026154318
Ag 16.48205652964438 11.447024551990378 16.155143737613745
Ag 16.608966871756785 11.763733179946597 13.37942532163642
Ag 16.13867339825647 9.206520841751331 14.38665896495124
Ag 15.974225021564903 12.08916171966317 10.650875269433449
Ag 12.818405419833715 14.054322897027543 7.759327711877416
Ag 13.009877228131746 14.763115114876474 11.741968424168629
Ag 13.818807120216649 12.155415052173188 16.675420037690408
Ag 11.075644054664654 15.969836957932621 13.45699292767933
Ag 14.956519807609437 9.836930480613633 11.879239436266372
Ag 14.690968656423683 9.45187044771336 16.792490002041966
Ag 14.835953333093315 12.032969246128982 8.091001123142657
Ag 13.841241729331507 12.213737172739606 13.09069110854862
Ag 10.332022960992724 16.81847004459542 10.550099136777929
Ag 12.392361027565666 13.911957178734399 14.893046681424837
Ag 12.355970732776315 10.261561897764144 18.027005424236727
Ag 8.568425403852473 12.49169695277331 10.250588877346773
Ag 9.933388567006839 13.00681617087651 7.70244508403435
Ag 9.297243905986953 10.326373397902314 11.966506368324026
Ag 10.73213484459705 10.888756975295484 9.61200196627995
Ag 8.451662515851657 15.077369634892474 9.21146891739257
Ag 9.298848136307432 11.178231534785164 14.632900297526135
Ag 7.74260123489096 12.563372318087703 12.90359536040256
Ag 10.109468787690108 9.519906663936542 16.635937664042906
Ag 10.623829798892857 8.657148702774942 13.948408541178656
Ag 13.505004449581355 8.42135892026366 13.75107242492455
Ag 13.130782744338832 12.364301985438791 10.314597632235195
Ag 12.23390745223539 11.391171339103861 7.339029741376366
Ag 10.949722528552595 14.114575502705087 9.996861040049085
Ag 10.88073106442683 12.350436383370186 16.739552975947618
Ag 8.947894110146265 14.87113924093958 12.013369924821612
Ag 12.110133272036498 10.043821084172302 11.94289172457626
Ag 12.34760138845021 7.961932171206722 16.22096837036772
Ag 13.474432852528368 9.818116945903578 9.441815311525486
Ag 10.976196869233675 12.685044089815127 12.52361846927525
Ag 10.682791952815288 15.847823997537795 7.739592281325004
Ag 9.551749708424415 13.96525508422788 14.68954280873672
Ag 12.151125593727485 10.805053868638591 14.813750088644522
Ag 14.930535716276442 6.972847427890877 15.591926280564673
