41
Energy = -87.90663265 eV
Ag 9.337039133398358 11.848612394151905 7.176601215832447
Ag 7.391205137011918 12.59653314652978 9.204422152490492
Ag 11.611772877241178 13.620377595733775 7.548602961537791
Ag 10.622200648204268 9.3332956118153 7.296027721341343
Ag 12.822247081087697 11.027189424223018 6.800911110456201
Ag 9.01811722450649 14.498286918780694 7.886542928443252
Ag 8.563346660743482 10.043534785146006 9.239044331530476
Ag 8.01168000110513 15.713910538000976 10.109738528176397
Ag 10.797996777205952 15.808866457053142 9.6380171367632
Ag 7.315379477007452 10.924920605831673 11.6861544745421
Ag 11.304992568817806 11.352139541467338 9.184297492277825
Ag 7.077739389027639 13.696979931566313 11.775938294754214
Ag 14.32357550324218 13.06068851855467 7.9341137995265605
Ag 10.727184089764245 8.401031218766484 9.930212394712742
Ag 8.520965497675027 8.287947769171303 11.666055175922022
Ag 13.156269584408793 8.957068414632186 8.717350528469941
Ag 10.029873024136016 10.803005327156647 11.63037515470585
Ag 12.764330481845723 13.842226164082307 10.092350056984069
Ag 9.2165748379744 15.304452917275372 12.679342187418161
Ag 15.348976657883414 10.501138063394684 8.133876425475313
Ag 9.807850681533097 13.426298096026411 10.574540205076444
Ag 15.021652972263967 12.080729822075373 10.452757254866134
Ag 11.138164522012246 8.548954674242415 12.810302072782866
Ag 8.93474783789104 12.58148681509157 13.541736676218711
Ag 10.439889886763353 6.10361572233024 11.59356310265957
Ag 12.752466534750303 10.272015670978892 11.314978208149883
Ag 11.97443917231514 15.50391530786708 12.270851737886158
Ag 9.413130077729948 6.916840744237098 14.158510673195233
Ag 14.391576521460632 14.02132772526155 12.391267783404208
Ag 11.839673354387925 12.72022269042393 12.517425355262295
Ag 13.047050832855973 7.333494532203061 11.124246031241311
Ag 8.913628445441242 9.7737826445678 14.073683225603977
Ag 15.200401833001708 9.272365266104039 10.782957400977033
Ag 11.108013957172442 11.306728318597123 14.847431817185269
Ag 12.299030104667686 6.258293767071062 13.860005793047065
Ag 11.446208273711793 8.531877680541612 15.513548926425837
Ag 14.649952780579024 11.27548396724944 13.133980804342182
Ag 10.872869713204881 14.28478820318664 14.702133887783594
Ag 13.859740112320406 8.619606664984847 13.514699462355708
Ag 13.362765881063009 13.09402961894482 14.89123532394903
Ag 13.591482026433637 10.38614907415825 15.655924863850235
