48
Energy = -104.13378901 eV
Ag 13.853829367529915 11.035379659788488 8.42525038968558
Ag 9.449175932748346 10.001569394991416 7.0545384578544725
Ag 12.340893337335649 9.375194203270269 6.679024414639682
Ag 14.855630033767234 7.2625931928646414 11.36614806194584
Ag 13.716249652710719 8.265538902502614 8.892249547960722
Ag 15.072612719241752 9.99567810604348 10.745748663360379
Ag 8.830875958574712 11.058796265880108 9.630059882542179
Ag 13.083197437843884 13.728931967808936 8.803213951684585
Ag 8.747900581692255 12.771105609810368 7.425820662733424
Ag 11.132680465061384 9.5299996401585 9.192277775693977
Ag 7.672643842145646 13.701484236916587 9.827136209722868
Ag 16.57721455271843 11.52217245312029 12.627226219420683
Ag 12.483876127083752 8.628228158605335 11.411101225110166
Ag 11.435691011194061 11.919385030859942 7.405776619163723
Ag 13.962084356684361 11.986799146187503 13.16035458626419
Ag 10.860656126740068 14.669405457809665 7.315820803266578
Ag 10.20191163408299 10.208043567445372 11.906204907519434
Ag 10.444064679374444 13.383754618454379 9.811833821330074
Ag 14.367818691170916 15.67601573161054 10.557166316245004
Ag 12.131264580108839 9.75778899466782 13.873507115399331
Ag 13.095203174602611 7.098324122305487 13.690232807855113
Ag 14.929622016045665 9.205124638654432 13.405323369370832
Ag 8.832962150292037 12.60758067126914 12.115919438002836
Ag 12.38484556266763 11.562305239588095 10.870808530489212
Ag 16.223596778318235 13.278567913478502 14.964541513514376
Ag 15.021463880837024 12.732760993743048 10.465325159046749
Ag 11.139285324203973 12.367258212256841 13.719427543310333
Ag 16.8890097616468 15.973724851687656 14.50035444590364
Ag 9.912020843281175 15.29437280563428 11.899610865200552
Ag 13.419134417138556 8.59721447185705 16.065964948510466
Ag 11.642241146225592 15.945414097811286 9.710045588296161
Ag 14.909333848786673 10.917923023923233 15.60858102092023
Ag 12.557034967166388 14.174291983263576 11.982576207709066
Ag 7.157615701102171 14.88834143110707 12.28962805129421
Ag 8.852785903776802 14.288655110729138 14.388428113476701
Ag 15.968273437355696 14.332290354565815 12.437408274702449
Ag 11.995277227501424 11.065009253481417 16.30833022855409
Ag 15.384442422811048 12.787570150713067 17.632947748439914
Ag 13.929023631463991 10.410074624192124 18.19933091144368
Ag 15.153881217569527 15.38436232826872 16.598173117012447
Ag 12.320211243973361 16.96694646327921 12.186713487288907
Ag 11.414412537807511 15.424600278519378 14.377660357742581
Ag 13.352369308548985 13.471989587169114 15.47226473874521
Ag 12.666821517643202 12.997405216941747 18.254822437276143
Ag 10.606603034217844 13.44385752125664 16.4037310149009
Ag 14.154029248718317 15.852225010184242 13.985141081862084
Ag 9.64345707756076 16.001230619055157 16.530673881860167
Ag 12.411101766645547 15.639044921987411 17.011905721446638
