42
Energy = -90.34572837 eV
Ag 11.66338684020975 9.241282675704884 7.624941335866236
Ag 9.073578485730659 10.359714005182907 8.077287253234317
Ag 8.567761157440218 15.912382273328829 8.358510939870474
Ag 6.87451239713141 11.751585215284912 9.191315859523383
Ag 13.916652302105692 10.87894472470209 8.318708074153207
Ag 8.74734805242894 13.14312614926381 7.704448958876027
Ag 11.372749515551964 11.969379504188165 8.073534948968712
Ag 13.387886884231197 13.516811201605297 9.324290698254801
Ag 15.948467016351753 9.33829115103245 9.51119832646366
Ag 13.25735594234056 8.53175571483586 9.900310450411986
Ag 10.51836089386412 9.00985009944889 10.172853929312652
Ag 9.652354655910296 16.164098560390393 11.028394237058913
Ag 7.779427199271725 9.50554296621929 10.462027486937137
Ag 15.431701169056193 11.946524102422453 10.436657745651926
Ag 7.904977140068225 14.06401835724194 10.309631116632419
Ag 10.736406109679713 14.417227819603008 9.18244401986702
Ag 7.3974855502662065 11.836570315157495 12.071984208577227
Ag 9.798648947283107 11.888680511917638 10.628215747947996
Ag 12.547478806206028 11.113937398026403 10.84996965549699
Ag 12.529659805981307 16.013844544853693 10.674081041487584
Ag 17.402082963960346 10.33428043495118 11.681724567753905
Ag 9.128126201037478 13.957036012806546 12.837722249211765
Ag 14.768734376242207 9.411346802371762 12.093009301295373
Ag 12.032654995824261 8.798193675162503 12.543609824118123
Ag 14.106531761208558 12.052665732966334 13.11810899604053
Ag 14.661652937939197 14.439046319533658 11.657531564376415
Ag 11.831005412091795 13.656312461088646 11.845560987579285
Ag 8.76297957933307 11.760731603003984 14.568192918648478
Ag 11.139460471883737 15.948545249613021 13.349523351828006
Ag 16.775144527959476 12.886284800733327 12.75716742793113
Ag 11.396247522302467 11.511736631412521 13.55367950418178
Ag 9.349830647909119 9.736314644620071 12.699523012725873
Ag 13.621217461012582 9.628679166475715 14.708189520794052
Ag 10.766770787967305 13.845122497744464 15.148900360976862
Ag 16.31738439234317 10.514021325527594 14.264417741600461
Ag 15.650222915551547 13.039946973543861 15.336196235146119
Ag 13.380172431742533 14.512347160996272 14.258802381404427
Ag 10.792452209249422 9.334356212892533 15.119490818023401
Ag 10.45150642364113 11.584724656344777 16.76037401632821
Ag 15.225025328183314 10.631063472862037 16.815774816611395
Ag 13.029840812163432 12.262058324280934 15.94244915154903
Ag 12.581633376484646 9.828494957797714 17.316121624423378
