49
Energy = -106.94002263 eV
Ag 17.578977713126925 9.142033834066938 14.25680251164266
Ag 14.86657607949471 8.608871948859537 13.569737296775823
Ag 15.719243782677369 9.749066672521616 16.112483617838464
Ag 16.743197538961187 9.291465487198176 11.595974050745088
Ag 13.034487122960735 9.515904730448876 15.562858877742313
Ag 12.270390335150339 9.27342782571473 12.768300186036512
Ag 18.574189806561844 11.266285368493046 12.813643754614578
Ag 14.178081675601529 8.179442904772182 10.781912659181609
Ag 17.237808699252852 12.142102495896902 15.542361940228343
Ag 10.389405298733932 9.993764072770723 14.702135555699314
Ag 15.75556183841652 11.328574880303739 13.44645545429672
Ag 14.378530187967025 12.083099927513372 16.541856272643837
Ag 16.354633691430777 9.892169942491492 8.963534913932438
Ag 11.55305075330775 11.761346243950866 16.5439555712674
Ag 13.03569401228723 11.830329635054078 13.99653792782651
Ag 17.08305841788438 12.004311422305115 10.576189309335764
Ag 9.57404740452643 10.085039189655449 12.0436603549059
Ag 8.751432776659943 11.646870033393363 16.2563960751056
Ag 13.721655776205052 9.741270633158718 8.364837242273149
Ag 11.606528723681448 9.558855864239321 10.112768987077951
Ag 17.27138086574823 13.64937736706345 12.828916493180449
Ag 7.652636774362402 10.38968046126571 14.028520989913908
Ag 14.222296427073415 10.87383866285776 11.125077340038814
Ag 15.232204327103867 14.066528950872653 14.811265686893952
Ag 7.539851194170384 13.182494515126562 14.272946119508209
Ag 12.081462486465151 11.960789166801923 8.6294794774681
Ag 10.504948074634441 12.997675432259303 14.154838862851582
Ag 15.83489474428214 15.951504130228662 12.752561048507545
Ag 9.392889885763013 14.39904528856911 16.21459001226719
Ag 13.354088162028235 16.08989286664321 13.931533171229766
Ag 14.182520179283753 13.581698834785719 12.137600171698754
Ag 12.557916869381119 14.239421872560001 15.847322191107018
Ag 14.92246871151158 12.334559394829 8.731088207261008
Ag 11.63533317203169 12.071370944282549 11.515691716009789
Ag 10.933413205524717 16.420561975536 15.110883944124293
Ag 11.50809634350643 14.790097243427448 12.055862442114906
Ag 7.08605517504239 11.569594071902575 11.550073553819226
Ag 9.420103548317718 11.464987397602357 9.644370985685743
Ag 9.129431826637832 13.332962946116412 11.796937198716943
Ag 15.935929151698375 14.545077292411591 10.260525363894002
Ag 8.819755966398779 15.621136454627576 13.604034857563454
Ag 13.61914264257129 16.535735264834447 11.193989222454398
Ag 13.169567847158032 14.402921521247473 9.474325627221067
Ag 10.91045035631783 17.399544876921453 12.46854340385908
Ag 10.384986104572114 14.119123659487816 9.301335616171531
Ag 6.656838063461436 14.597089949192956 12.035705303388244
Ag 7.557880189938586 13.666090869050645 9.542093142916505
Ag 11.308712849965282 16.7074007162103 9.697814514657036
Ag 8.856447574381463 16.03381911469879 10.817925130527339
