41
Energy = -87.98903502 eV
Ag 12.471389462010341 6.769561852441217 14.036860364505273
Ag 13.86369231210051 8.348695380066838 12.183456974337926
Ag 11.051358384971078 7.8372403660643934 11.879862221623936
Ag 12.249424156541242 9.414433882358578 9.96172272692017
Ag 9.428519796045348 8.93586133509972 9.792057752473472
Ag 14.770403668223617 10.494967958536405 10.593479227982886
Ag 13.48146721198784 9.21784556414472 14.914764679845574
Ag 10.558756637100531 10.724853592849142 8.001948003752759
Ag 15.32186738236626 10.63158942378842 13.33498356720163
Ag 13.274962442030205 11.490378248934581 8.343034291590314
Ag 10.727270946232421 8.981370413783845 14.41383335848853
Ag 12.550002862776466 10.767327711400792 12.584010959658087
Ag 11.736641849507093 12.621184349616778 6.244145325304635
Ag 9.597782286893649 10.270212493822015 12.180586536636321
Ag 15.7983727782162 12.61517441106819 9.006019504462838
Ag 16.87166176825804 12.548883771919009 14.617116421236146
Ag 16.39168649657774 12.763815966281985 11.753407278736578
Ag 14.301207186964618 13.598272357455642 6.806216448892594
Ag 11.195505999847715 12.071005791056827 10.428290198024559
Ag 8.507324133384273 11.683909650296265 10.00578791613163
Ag 8.951566020437992 11.170056619753774 14.713627277461685
Ag 9.575120775876666 13.351410879643286 7.951871126450495
Ag 14.450489761393376 11.743482090767865 15.886052952172182
Ag 9.759545907460728 11.91143057705058 17.253503432127903
Ag 13.742679473507451 13.125063077245237 10.873352040772719
Ag 14.704661568809897 15.213132494055843 9.156746472809969
Ag 12.141194738459497 14.213774166917515 8.564925557487166
Ag 11.710721139533417 11.484006677370846 15.244177463629272
Ag 12.506936525857759 12.22797751886473 17.879329623529074
Ag 8.989918023282861 12.995981808250564 12.541420514231724
Ag 15.227095645837817 15.451289836221354 11.848458976765587
Ag 9.79600925499826 13.834928138877286 15.138259776938604
Ag 11.769552992038552 13.417731984615603 12.978920506433278
Ag 14.479501318921992 13.492463190463964 13.710003287386183
Ag 9.932803929869745 14.558422438622104 10.425055728877263
Ag 12.46283496083325 15.641452255067225 11.006224264688413
Ag 10.778976195833971 14.456333430521376 17.748811081515107
Ag 13.066447511271983 15.949862585471624 13.70281851747896
Ag 12.772593334191129 14.103370392788632 15.810718143586115
Ag 11.053054245107791 16.32284511802706 15.655283936097343
Ag 10.248789153374542 15.702454595559653 12.983194215533619
