40
Energy = -85.81642368 eV
Ag 16.710403905410374 11.664752033082605 11.651905942506414
Ag 15.184049409986068 14.0047825130417 11.496437958184321
Ag 14.756918897461908 11.880153829239427 9.686268871956534
Ag 14.3956662196577 9.917904353843106 11.828854489242648
Ag 14.769923451422088 12.085793429255471 13.550793472796965
Ag 14.141856973970922 14.768008902340581 14.016447892597093
Ag 12.306070596977698 12.199931609266056 8.248211372468058
Ag 13.46532054104043 14.41900388258008 9.35059549344923
Ag 12.86117671062176 9.756441656924071 9.387595902047337
Ag 12.384855132467827 11.935093445524936 11.215196188056662
Ag 11.798809249425208 9.958798164831709 6.5618974233842025
Ag 12.406386673808106 14.738118998346923 11.880619658580187
Ag 14.372653593354174 7.579929659841782 10.257788527098947
Ag 12.890484774203209 7.52358406510741 7.798532622778291
Ag 13.097154178434828 10.044901059601537 14.400759859474023
Ag 8.922707358389077 14.383830597077242 7.752959603593185
Ag 12.110256532220818 12.715209707229478 14.062536970498032
Ag 10.607008118031048 13.79210226260458 9.871079756277961
Ag 9.697155484036209 11.728430226941525 7.492375549305478
Ag 11.416368060785254 15.402465510792794 14.452108769704761
Ag 8.994857111040929 9.543052327379819 6.029102236091603
Ag 13.109089261129961 7.6015136432217565 12.880674274677592
Ag 10.23154979521773 8.432420402214035 8.250594558515349
Ag 10.184642233689873 10.628765017710426 10.039268534722195
Ag 11.623607314698214 7.379205346341399 10.42282035458057
Ag 11.173513250223793 9.499886317740607 12.388181082137136
Ag 10.304262930284327 10.699398918334857 14.944387215338256
Ag 9.674422741572135 14.90344723651729 12.349311171443324
Ag 9.828286202939053 12.029199053681683 12.412764045312954
Ag 7.952080869819224 15.185921967067747 10.21858043145985
Ag 8.012854441267798 12.48739123232034 9.692927889839789
Ag 8.962695859646459 8.142637920059649 10.820250244863038
Ag 7.836827995420827 9.817394001226615 8.68443847725732
Ag 11.12660686644372 8.058474862754371 14.969974610304549
Ag 10.30572926088089 6.591417727607548 12.755841998806451
Ag 9.375573664294217 13.432249719234017 14.77959219137262
Ag 8.66683419844364 8.739568125583048 13.622034309290393
Ag 7.313228572089945 13.292887806667935 12.33212156963529
Ag 7.587186763272658 10.444213974497442 11.558718034160773
Ag 7.63800406039469 11.258032963942245 14.29255350135411
