48
Energy = -104.278193 eV
Ag 8.11300376150069 12.837500145651507 9.207292271509779
Ag 10.671287647882789 11.940845433450074 7.970606444497927
Ag 6.265498001132398 13.521840753822163 11.211563936352617
Ag 10.880078170200337 9.30792029157607 7.0310457688431605
Ag 8.790653803128349 10.036551497645261 8.973394465218433
Ag 7.4522230216835075 10.932395294681779 11.3660812743605
Ag 6.995230938680762 15.437950391878577 13.150660548670404
Ag 8.890479958620695 14.540131802026357 11.375221896371396
Ag 13.207723767953178 13.188673490912326 7.871892594438617
Ag 10.774464998139226 14.304418396438157 9.390031933894768
Ag 10.183268085365281 7.502476084891945 9.142998825226886
Ag 9.64146858337707 8.926741738076627 11.463794274574507
Ag 13.547416282039219 10.466552828247027 7.648245794736156
Ag 9.732871131473534 16.46092120079211 13.284493659523562
Ag 12.761525297123466 12.623095725040784 10.530686795927313
Ag 11.89732314268431 15.186462680445382 11.923617472079258
Ag 10.041738285147344 11.877095546303314 10.960835520816856
Ag 7.538103445390581 12.68414364946657 13.564349712433199
Ag 13.31351466235409 15.438074772528019 9.457425798384042
Ag 12.907236887203561 7.784338979652205 8.394106298901358
Ag 12.27541070010787 17.54435737981553 13.559164969887261
Ag 11.652484589355552 9.958887050347329 9.655320739095664
Ag 14.126335802339234 17.04639988050737 11.511220146523574
Ag 8.84447532583966 14.66556789481975 15.152306251769344
Ag 15.397813371522979 11.91034716512541 9.270213592211482
Ag 14.413230860139961 9.298180728018403 10.162774142167835
Ag 10.416803412058242 13.074461051618567 13.47135216699248
Ag 12.241752028485003 7.753188017886584 11.248515004646988
Ag 14.312254819873289 15.597354102557388 13.874513472494172
Ag 9.252912967219872 10.452176491077028 13.669843520769351
Ag 11.704323388407818 15.10373154975152 14.910901051679685
Ag 14.940114611642901 11.340529255072507 11.98410645305213
Ag 9.142970760028156 12.015222336558155 15.903134422990089
Ag 14.99615080672607 14.276244946016082 11.361401343530158
Ag 12.115550305347115 10.594190935716183 12.41186828580328
Ag 13.197246028118938 13.037578512246986 13.362270565333679
Ag 17.36290664070289 12.627561701159873 11.435365741742977
Ag 11.263037333776744 8.343469205607239 13.81242576015461
Ag 14.18130381560595 8.790238837160953 13.12544066766776
Ag 17.046175555323213 9.968312926403119 10.723418877853124
Ag 13.989067954950764 13.623859630408461 15.910713398947996
Ag 11.921361393879048 11.604160222059313 15.479550975227157
Ag 10.279828330165387 9.452786348176039 16.17346760441546
Ag 16.042113994533896 13.288148869841448 13.843868796082527
Ag 17.084769325702194 10.475566506293154 13.526288802802437
Ag 15.908805629516728 8.652599915070896 15.300170519203872
Ag 13.087975215269932 8.954111254630357 15.830419868257978
Ag 14.640441017150218 11.056656681362565 14.907900541610564
