48
Energy = -103.73340776 eV
Ag 13.155579704620639 4.952219352211001 12.071392917975695
Ag 13.180401783820686 9.805889176121301 12.084711074730336
Ag 7.684600025278403 13.360734303648506 13.73455145803202
Ag 12.647346347001976 13.981578153621337 16.645462676037855
Ag 8.800563325933805 12.107327256935335 11.433772651280256
Ag 13.555629202037247 17.040530765825704 11.094312627931663
Ag 13.3451571073929 10.934072589649936 8.117783660526959
Ag 11.316070658698735 17.05054980327572 12.864938882822367
Ag 13.67730785721254 7.167959825621761 13.703814841834355
Ag 12.185671225145192 8.807916224731326 9.597665421967974
Ag 11.526367751510243 7.249709944625428 11.931787125948757
Ag 17.28756437639628 12.954702476475658 16.18874724480215
Ag 9.094552643292007 16.546199888692882 14.57386300377719
Ag 12.303897641535091 14.571937344431129 11.021196327561029
Ag 10.756925690399282 16.71378225347829 10.15483683157114
Ag 14.069397020290882 9.664611236834137 14.843383395503082
Ag 15.074162459444898 14.484033049579628 15.121968248002949
Ag 9.860796603367996 14.030898948189398 9.656420648680987
Ag 15.82470937174624 8.831318995121912 12.682767444080033
Ag 11.394266269098068 9.094718862272211 14.14446708699462
Ag 9.466767025008402 11.21112284001568 14.055484725433312
Ag 14.666593956227327 11.98724378384824 16.28925786473232
Ag 14.688656001523245 14.74769880090989 9.464425184465046
Ag 17.043070672407925 13.906044801450594 10.726811642518346
Ag 9.921569883884882 14.59950371153849 12.4510576829613
Ag 10.055339129331982 13.846348710876017 15.329469174638694
Ag 10.191245677082273 9.65507092655589 11.653944327780888
Ag 7.40709938276713 14.917805387532622 15.99024348227375
Ag 14.322792608678531 7.204688896354867 10.948723842600465
Ag 12.375069945839087 13.563474936005655 8.39697443983307
Ag 6.599766016636881 16.005780065968587 13.481921024327916
Ag 11.01609791815623 11.404357448517196 9.644565356564488
Ag 11.541732333095858 12.161035573214237 12.399784256413493
Ag 12.301867661113622 5.993286924867837 9.569080198429678
Ag 14.311510800375443 12.158736574016617 13.386300080060314
Ag 13.885651916110435 16.832171466514783 13.948643393625025
Ag 8.608760346750358 17.151953023260496 11.905849891637901
Ag 17.09127493751294 13.399536255682321 13.467270218500518
Ag 16.675204875890728 10.816582403003943 14.459413720847655
Ag 15.933638684545679 12.109844186018927 8.866550281398842
Ag 14.913096486843864 14.8050231839153 12.294698648345836
Ag 15.104464038069349 9.628697591336685 9.925855816223729
Ag 16.583728099095747 11.299746859596143 11.615514960493922
Ag 12.468032626267004 14.397704571598094 13.876715404820326
Ag 11.607806557876089 16.42865120717949 15.664513097178487
Ag 12.007286105363221 11.62475223874409 15.257550561842345
Ag 13.807547407594454 12.17253722629318 10.616058422193218
Ag 7.409524543534667 14.619059734367958 11.17929778762385
