47
Energy = -101.74743698 eV
Ag 12.668296346361156 9.420651370689322 7.45169504712573
Ag 11.920939145690289 12.016435967246824 6.490985434721282
Ag 14.486701528525195 9.159812642460604 9.629109681123202
Ag 11.149775734203368 14.722055728152453 5.795857222118881
Ag 9.967777138708769 13.476781441258874 7.926415798833586
Ag 11.754233944901829 8.53683414663421 10.031296042107329
Ag 16.26620206814292 9.110367914533333 11.829261564181516
Ag 12.85880392835413 14.288425457239319 7.902301253614992
Ag 13.648504825233944 11.723783182932504 8.743119620873568
Ag 10.720717053089546 10.84059932964281 8.810300747502012
Ag 8.6043888866226 12.194367575765991 9.988264839178099
Ag 10.018043908874754 10.220583254072123 11.656613314993189
Ag 9.13269761685943 14.965113008715017 10.234845308563923
Ag 13.668279297729578 8.131242892951986 12.182729281964436
Ag 10.891385424477129 16.160802412248344 8.409243281639704
Ag 15.083254643198643 14.077529379395783 9.530953782724863
Ag 15.662140580290114 11.544113987831475 10.708619957190068
Ag 9.374148323197689 10.894592984993462 14.431391849644845
Ag 12.75567535025928 10.757348219221784 11.377340129613435
Ag 7.439560530334831 11.20562718482391 12.410820332971726
Ag 11.759826152179869 9.429772073818013 13.864902568258659
Ag 11.476930896493768 13.17418789267013 10.332828796780284
Ag 7.009308917954671 13.896301129470876 11.713538265907856
Ag 14.429516560474132 10.787745337285804 13.595742071952612
Ag 11.027082642407622 8.11517358785421 16.18992265297225
Ag 12.96378392261238 15.731754646757087 10.350859951614323
Ag 7.637896664165141 13.291822594439575 14.458958547784755
Ag 13.103245242305166 7.006226700974799 14.69984900294704
Ag 13.799925507089815 13.276566427097185 11.92774222408715
Ag 8.89008983221167 15.679370821366957 12.990392583549598
Ag 9.631696660491265 13.00167617017927 12.497472277075266
Ag 15.562520894164681 8.327924385543437 14.419989796753898
Ag 10.606763954497403 17.104075416565628 11.127646800831021
Ag 17.135011333956616 11.431742294476564 13.177444739074268
Ag 11.270438923570394 10.842236003463833 16.49885181429798
Ag 11.994300938418592 12.246890873600721 13.839416608588435
Ag 11.638615045503709 15.0334103779609 12.756573703915766
Ag 16.568855717772873 13.95954561078501 11.901253676386816
Ag 13.62546692046771 9.346578970053542 16.14214335431209
Ag 16.145996989587317 10.76042499571147 15.781039535680152
Ag 8.977945435468929 12.401759165386693 16.814817463409277
Ag 10.218134399864852 14.213309462316017 15.072906150976445
Ag 14.438379696525026 15.728419278513956 12.907319776382284
Ag 15.519581646314514 13.396428919242664 14.4534653815262
Ag 11.567683937820831 13.437713873987192 17.38118874660602
Ag 13.054116659992372 14.618780154624902 15.178872258760956
Ag 13.769548999583646 12.128944364586769 16.264706992885973
