42
Energy = -90.53199666 eV
Ag 9.273346385973472 13.11788770410257 14.783908344815258
Ag 9.181491956984718 14.682595338493813 12.37221617168808
Ag 11.374708209059433 14.974345987082385 14.126915048411396
Ag 11.543056254815191 13.376057911136915 16.47582850734111
Ag 10.69505970902996 10.689200544241665 16.02004566460931
Ag 7.213879258268922 12.738918806600074 12.865560551387157
Ag 11.326886791074507 16.45522240551741 11.753573078257167
Ag 8.385422839237325 10.480296495275425 14.341915148294156
Ag 13.905454030393265 14.082746551869382 14.997815252836032
Ag 11.702523477594816 13.541552361403356 11.559972931922085
Ag 13.778244103982388 15.312134469216664 12.406666218762677
Ag 16.225797760516464 14.445853291712552 13.31469516467862
Ag 9.661281751079626 11.583233847020196 12.114967184793365
Ag 7.646665573694838 13.705357126434196 10.185767660061934
Ag 11.88742922217302 12.080560596138277 14.042770005082284
Ag 10.092902405432538 15.204901988357399 9.660588719664938
Ag 13.696587939922383 11.491866558718273 16.23324183584863
Ag 7.269821966209738 11.001640447242822 10.688460178432493
Ag 16.17789958173923 12.279861601240087 15.098881404379028
Ag 8.60972460120492 8.86107325173719 11.986748280623578
Ag 10.875838596558102 9.243805526267531 13.539515138377697
Ag 15.80546315889215 9.633681862302044 15.822895320049343
Ag 10.07321181341662 12.389089069604514 9.48429313817923
Ag 18.202318147700844 10.509391826291184 14.489934536520238
Ag 12.967731973277152 15.15846695828095 9.630387690831295
Ag 8.617710123245727 14.153604103904621 7.572220257224869
Ag 14.331563628195624 12.371301188423628 12.82152591243124
Ag 13.52235190526563 9.672932707918564 14.169102137895948
Ag 15.282139154766748 13.665104192092127 10.601230068603364
Ag 12.337439647114552 10.773443994532663 11.564045580952351
Ag 11.14868905558566 8.19442017352642 10.887805915371358
Ag 11.497117509939727 13.801892852541279 7.551875597083459
Ag 7.817721758887509 11.567019377330295 8.0049764920241
Ag 9.344864803260064 9.656665966875115 9.354231062445725
Ag 13.18534136015427 12.321203433506183 9.20343664717969
Ag 17.100023382286597 11.956601171501724 12.366527801883002
Ag 11.329804973309344 10.879159004747773 7.501048883184694
Ag 16.09105371106959 9.413775027762412 13.034079208820296
Ag 15.107339552357056 10.7522537377166 10.655244823271182
Ag 13.83359724751579 8.4078076115455 11.733698683754346
Ag 11.045436234230362 8.034689391793027 7.982673954207052
Ag 13.04904306448105 9.478064069832481 9.183878836638348
