44
Energy = -94.60835001 eV
Ag 8.687282622433637 10.323703480648067 7.977943729507775
Ag 6.82486416419327 11.11134934356703 9.903509574244127
Ag 9.004530965326577 15.303882765858125 11.360541989595673
Ag 6.801959102446925 13.59998797602383 11.15005131631521
Ag 11.500414026914024 16.572447499664413 11.992586967957822
Ag 9.24610043765134 12.607204161585843 9.95675505873404
Ag 11.306682402316987 10.018995345796966 8.761418871040547
Ag 10.77927410780978 14.873068732869 9.224975472929616
Ag 10.599087178569949 12.41354857061974 7.439927304858202
Ag 13.357463546451454 15.262418219244601 10.17899718173469
Ag 13.669448577932549 9.95084110628039 10.172691224072231
Ag 14.62224103963476 12.321572804043058 11.685253214047608
Ag 7.882461222654101 14.088584408904856 13.686563833581378
Ag 9.274277258486505 14.483995621480092 16.019758453978366
Ag 9.854926069584947 7.693241866125965 8.844760033565343
Ag 8.191142246833895 11.547318037861112 12.429119142898701
Ag 8.940843105549234 9.51577427421237 10.720036645756204
Ag 9.356139279351233 16.493060125755797 13.911434362409988
Ag 10.12422803519847 12.421853479064287 14.173794199616934
Ag 9.9603247957779 9.500418673154353 13.633904785439766
Ag 11.38664298390707 13.87003588401755 11.898338377928132
Ag 11.325869844315028 8.300519061134798 11.3371228124228
Ag 11.05988129351104 11.15022153179474 11.72039187566434
Ag 10.336840840477048 8.148756601499622 16.072610125713584
Ag 11.581274516953748 15.022486166139302 14.52866126211327
Ag 13.742981691789149 11.25828418640574 7.635960717023681
Ag 12.765882970496401 7.456724858210501 9.102498383530815
Ag 11.55927322478355 12.875669304876103 16.512869132743408
Ag 12.878987731733814 14.087516385602207 7.457979680526358
Ag 12.346722055650098 12.501575149806735 9.66435067447448
Ag 9.64316560217639 10.796846723809502 16.35359525410503
Ag 12.123808298285656 7.645169110126267 14.013335852899466
Ag 15.099475961650109 13.381301831864425 8.993729781619855
Ag 12.23725540768367 10.215257848930676 15.470819433826197
Ag 13.843786385600689 15.002523386676382 12.891599505593478
Ag 13.216809781546537 9.972940197214033 12.924800816807075
Ag 12.927183528708321 12.572877921952983 13.994208712029033
Ag 14.965522018564592 8.74153908103343 8.043399874509705
Ag 16.002136189729583 14.746174374100367 11.185536255739413
Ag 14.047798956839836 7.515391898100926 11.678594777505529
Ag 16.16071108700461 10.88053575907328 9.44938159670031
Ag 14.866838730936244 8.258918347856637 14.351016318578031
Ag 15.175518499580651 11.06384198980717 14.523517838602421
Ag 15.899542464984293 9.763918246727082 12.0815837667841
