48
Energy = -103.87707046 eV
Ag 14.63733634557617 8.41983677828856 11.872333438968028
Ag 14.635295033882302 10.58442666748317 10.146930025895797
Ag 16.956225325349713 11.964663223880182 9.62782403854996
Ag 14.74997605852546 6.254614732274232 13.58057526258305
Ag 12.010205567368809 11.391592608949411 8.662771607991171
Ag 16.792889772826147 10.230880796132281 11.893628472260001
Ag 14.385242364812399 12.912543978241109 8.450869388005938
Ag 12.313912397875384 9.065529279687295 10.404126283310333
Ag 16.11843520022323 8.732933109109837 14.22590008638933
Ag 12.249234459557394 6.90025847937795 12.255019308560149
Ag 9.905372297595994 9.601243647869712 8.752351940294115
Ag 11.890148546967758 14.062008712210808 7.594342570294857
Ag 17.50238767514077 12.940126301057548 12.19145441079553
Ag 15.528209309464305 14.113709218236094 10.689915985810934
Ag 9.860502503963483 7.87312675891432 10.991348510949997
Ag 12.98690181011293 12.663630362967911 10.934973220310097
Ag 16.96369085178626 11.470762288381703 14.44772290027824
Ag 14.618516577897896 13.050846906805349 13.174096593367683
Ag 12.913688629926433 10.731181345975395 12.84947327918215
Ag 13.268730409200861 8.371129662714901 14.464147425308076
Ag 7.560243830506247 9.266508401011494 10.231638848092214
Ag 13.059249106067771 15.25197572207593 9.784960205695688
Ag 10.432089384809556 10.99702749989493 11.066781311242865
Ag 14.446637073446732 10.816110609074922 15.232900830096915
Ag 16.445570145785865 15.091743064106485 13.641715081973832
Ag 15.410000238093753 13.477410875142102 15.785257449726188
Ag 8.131562084381992 11.921872848234049 9.6840405988804
Ag 14.318914780821398 16.082010287840127 12.131379399424414
Ag 11.915648634279181 14.422845458404838 12.691287126294318
Ag 10.45142189421446 13.598225905148157 9.931352171625027
Ag 10.525943970007567 16.26866932625872 9.068783717785278
Ag 13.810799787953936 15.662717545470928 14.835407316495653
Ag 8.14807412349373 10.513789556616812 12.641551624858945
Ag 10.650520914860238 9.036260926391886 13.358966196381674
Ag 10.415478938860526 12.010527710797385 13.642264750822784
Ag 11.699359750103307 10.375313066669385 15.636734005045485
Ag 12.64086314514107 13.041896032944788 15.206791670830745
Ag 8.056330283110917 14.87335802064301 9.638293378936089
Ag 11.986003788919493 17.366460413920297 11.305419720296634
Ag 13.554286765837954 18.30832805416822 13.510320691666161
Ag 8.49348849952213 13.35036427971338 12.036375488762078
Ag 11.404896928152127 15.250592125669248 16.345920173145448
Ag 7.697764988742765 12.51784945317195 14.618389960135286
Ag 9.648652262631705 15.89795570941234 11.739162795225306
Ag 10.08775443481494 12.650253626680568 16.354187906515303
Ag 8.934881040932648 10.13641461041616 15.37690792634262
Ag 9.544307527296715 14.668722217687971 14.330270482589864
Ag 11.277187257191194 16.84458451191044 13.997967140041013
