45
Energy = -97.09094805 eV
Ag 8.827998265765128 11.76658134691962 14.594626038912192
Ag 10.970959678336424 10.863150663140736 16.314779678618905
Ag 8.843223597488912 9.187371127241592 15.563011655070472
Ag 7.148477997393633 9.825036147454584 13.084493524633293
Ag 10.813107363893417 13.709371300599157 15.33554477747032
Ag 8.949513645175385 7.540942190688826 13.293936023979008
Ag 11.349050042589646 8.856639919861689 14.311072860378507
Ag 7.161207058118016 12.636973711879664 12.385549668870066
Ag 8.44207364089431 14.563327018092208 14.227004082567374
Ag 13.152585859720748 12.663075182008155 16.46203250163772
Ag 8.637223508617904 8.18343897048668 10.607571877391372
Ag 9.83251848567414 13.089694908302544 12.232632095301549
Ag 7.455763067244059 10.773073800945802 10.322879251528915
Ag 10.092110276999247 11.41200306865951 9.762611107571326
Ag 9.691855481473144 10.190210592378799 12.311493195716496
Ag 13.867704175164944 8.710736205235373 12.842289591389363
Ag 8.360556060900626 13.658793764917679 9.849533690593693
Ag 13.744626316020563 10.237651697969568 15.236146713287779
Ag 11.254888203480725 7.670692000525147 11.710241218794332
Ag 13.36181449166572 14.01723850008761 13.973921506408983
Ag 11.125343875233638 15.48448396810641 13.046331648617201
Ag 8.618987024071066 15.721697926288885 11.71952993741732
Ag 11.772115984452904 11.626159533098887 13.718416491799736
Ag 8.550517864094283 9.290194140272863 8.067351052199731
Ag 8.256471330669534 11.965030560349057 7.641596923646005
Ag 11.107299547087175 8.816075993903622 9.010535679710035
Ag 15.55857741767098 12.490873509362675 15.1161590630751
Ag 16.25246391745538 9.942131933315098 13.96302516261662
Ag 13.546486403316967 7.978715872063394 10.072243118358072
Ag 12.436794897759029 13.043867427623514 11.295248014422762
Ag 12.284520486104068 10.270424408865942 11.238708267085054
Ag 13.606796290493408 15.470734252457891 11.412407544795974
Ag 12.69540106763599 11.694113229893974 8.84990457864284
Ag 15.003707415291824 10.358211784970239 10.0515798272652
Ag 10.898080881507168 15.21016939463476 10.210351292077144
Ag 15.847934585956898 14.053791663435497 12.754470758515277
Ag 14.453102018078358 11.565421989821154 12.644497558204264
Ag 10.778073831264562 10.74284678317793 6.936919457121035
Ag 13.522593301149955 9.440761490394381 7.571907093081851
Ag 17.021250296280456 11.611174921191166 11.638862646058945
Ag 15.119932430451954 13.172600284571674 10.225037732849746
Ag 13.178744177204193 14.438928976383393 8.662895269857819
Ag 15.160825057610051 11.922981745161813 7.665722325347414
Ag 12.814981646703613 12.736851627581023 6.32125918516463
Ag 10.576731403838128 13.540744833679529 7.8886586799479375
