43
Energy = -92.67206728 eV
Ag 12.3859565072024 16.22354852418227 15.807803856350356
Ag 16.39095058649735 15.566876901678793 14.095876778569886
Ag 13.787761201405882 16.445586542863115 13.380012073198158
Ag 10.786981538962861 16.28423920327808 13.302335120518526
Ag 9.855161782544474 15.268502215637058 15.873363894086973
Ag 14.484626719273082 14.424611418518978 15.782657728884072
Ag 15.02682383966431 14.375135150644583 12.002205566075636
Ag 11.937320679691958 13.452150711257033 16.646533980897335
Ag 12.333349925761917 14.060412930001778 13.892549551221162
Ag 12.468144355915449 15.273037922985838 11.158186089414011
Ag 9.573595406523932 15.100301951553758 10.992102809244777
Ag 15.970482245580149 12.787277421100173 14.097125657080191
Ag 9.155444089507593 13.931617488498858 13.564436589571368
Ag 9.287250848856381 12.614705833960162 16.237279345629
Ag 13.802512453294348 11.655249602923533 15.573533932683675
Ag 13.731920432909257 12.936464779410985 10.066833444050477
Ag 8.56968579896346 13.79581026152926 8.619886599858612
Ag 13.476471025131794 11.734033744050585 12.717985666173282
Ag 15.931170623637664 11.754217919143962 11.390449307484635
Ag 11.328269186164249 13.849404390468239 8.94787685704118
Ag 11.34858656110227 10.553177385005366 16.628190613711247
Ag 15.58019062072203 10.057884052446436 13.812243450475334
Ag 11.055346047569667 12.814542861149919 11.593799979621044
Ag 10.995545938607757 11.617834910221092 14.128983230425021
Ag 16.865961539491366 9.209704720806695 11.296727337183835
Ag 8.546280819179604 10.016674689203596 16.500763449089618
Ag 8.069392488076211 11.333087359747864 13.980981626037673
Ag 8.105876989162384 12.665427657755174 11.312169367281994
Ag 12.907206395269922 11.80629107655292 7.690564807525354
Ag 10.2840153802031 12.42528876965255 6.72524204035045
Ag 14.872471544759394 10.297590851246808 9.225407657682517
Ag 12.855533919069455 9.3398363656515 14.3417259698177
Ag 9.706771152829146 11.398153796831823 9.264774888361409
Ag 12.162069758499216 10.556777029808455 10.353911194019137
Ag 9.99741408204116 9.020440095869443 14.371842844975642
Ag 14.163970893662903 9.012619352131296 11.677842871908538
Ag 9.57943479113163 10.302806011348936 11.87319028232781
Ag 12.130003835354788 10.952225874497913 5.145001603122681
Ag 11.10724688630316 9.67481034208792 7.364092613509248
Ag 13.818527109179954 9.294883560717027 6.7416402001328155
Ag 11.533730213799094 8.313345224818312 12.09301720703184
Ag 10.131131550010842 8.609208908027968 9.70269768016057
Ag 12.914051797953741 8.188339982446331 9.141833718427275
