49
Energy = -105.92108338 eV
Ag 13.986157037177184 16.656978991888288 15.96691882947794
Ag 15.8561685249131 15.752437518110355 14.112826851490054
Ag 11.349492174432873 16.734341229764407 14.918879532961034
Ag 12.286484053208632 14.569454286963715 16.70086685191135
Ag 14.929744234192203 13.951414170469464 16.059103779908156
Ag 14.46526470403102 16.3255283040017 11.712365768849349
Ag 15.923754756409002 11.33358834315706 15.792834445159517
Ag 11.666609398364995 15.957072757497258 11.506029759957489
Ag 13.114821847577826 14.95631256740898 13.797058906121437
Ag 9.33847691822363 16.181642378121097 13.080892634055997
Ag 17.276131377663074 13.381320964964582 14.371277210431241
Ag 13.360349805734664 11.762164969688715 17.09413786913963
Ag 9.866747970242516 14.375708165496123 15.170131475215044
Ag 10.451184477687347 12.432341926835525 17.139067139147574
Ag 14.694784055307927 12.54516783726588 13.514115046851234
Ag 13.638520326652612 10.022052222913924 14.672045576081198
Ag 16.351707929837428 14.277183858857793 11.775782867580075
Ag 9.167132153497596 16.417159472237124 10.275212123295528
Ag 13.329422264043497 13.638585990991947 11.254806708159816
Ag 12.113105011135605 12.5203914017765 14.792671095392866
Ag 10.75222413403999 13.458500331449962 12.522225074444309
Ag 6.849253916082271 16.072013566910496 11.88984133163559
Ag 18.424950916745672 10.90226255173839 14.445576446439816
Ag 7.829314856150615 13.788090383950502 13.26178418627511
Ag 15.134363052236123 15.001541469423453 9.339120636957897
Ag 16.085385734585394 9.88612376647142 13.340776480130954
Ag 17.500221955965948 11.726513722729392 11.886253452771706
Ag 11.164393593934065 10.046209556381813 15.911653511695139
Ag 9.243340431135625 11.687458060923301 14.553039778535496
Ag 7.852442324040275 13.951431498733548 10.462262459304974
Ag 11.30221111236912 10.621652140212891 12.943668384680862
Ag 15.522297612815484 12.302218099014189 9.949973428927892
Ag 13.763821846434938 10.738022518916194 11.588569231564032
Ag 10.568465849597173 14.07545969184095 9.613231408611039
Ag 8.785965850047269 11.571045882295174 11.716824355056946
Ag 13.09294194518482 13.280441217707063 8.497810011962965
Ag 11.382269920104832 11.47610918072958 10.25060426851376
Ag 14.046126534635544 8.137926210929665 12.513402726224264
Ag 11.60839228759486 8.009298587472713 14.017459247693331
Ag 9.126020719822895 8.961123688174457 12.843960832944257
Ag 11.441041899261533 8.405187474180035 11.211768025859294
Ag 16.036902055679494 9.54676182461124 10.552545538049133
Ag 8.736809282741175 11.921538199523791 8.873652394865411
Ag 13.643480972437544 10.58510456594107 8.671767304017395
Ag 9.09697026692964 9.334297409918205 10.013515731297211
Ag 11.171652034159646 11.546277731803086 7.436734279412786
Ag 13.777436587095545 8.086597793849414 9.724321919281302
Ag 11.408143785715074 8.864374767606279 8.423434115090625
Ag 9.011959881563438 9.710802446331948 7.260291117502356
