48
Energy = -104.31580608 eV
Ag 13.875882153317022 9.521368794752485 8.019579312873596
Ag 13.911436396492233 8.865512175307073 10.699156330245941
Ag 14.029827040897661 7.80296202955714 13.26619436539056
Ag 16.236596354965606 9.915320158904578 9.365890576164887
Ag 18.366382683107712 10.613533654937793 11.01371787881934
Ag 16.418741600243262 8.847549385633725 12.134528625973738
Ag 14.974918169865878 12.179579569750894 8.030755896855108
Ag 17.345674975505357 12.586899909295013 9.401481805882915
Ag 13.006442578373813 8.945273960834356 15.615647974157731
Ag 11.337147503336679 8.680586597766602 12.168369768445864
Ag 12.234266285364356 11.659057372950434 7.369704534745271
Ag 11.404768561345799 9.747201570130963 9.488092700581465
Ag 15.438668158366118 9.957759827759329 14.663153065076703
Ag 13.258440360112452 11.679345447757893 10.209975639965494
Ag 17.740375236951277 11.126898716530789 13.62761729333404
Ag 13.299198289757296 10.482637185876241 13.023308581963212
Ag 15.643635743750998 11.474048182542187 11.686850157919796
Ag 10.453200980258368 12.540001370349323 9.35862561033545
Ag 8.835009127133528 10.277337850624287 10.34560430371299
Ag 8.819138057085851 9.616886840616012 13.011357058458314
Ag 12.90415752814218 14.106635534977862 8.643741171433188
Ag 10.867491928517058 10.333110724544394 14.681499010954486
Ag 15.11433696280544 14.002356653856255 10.353897308825662
Ag 10.731271405152256 13.965750667199938 6.9388704681911015
Ag 6.64879447257087 11.325946925271149 12.706454138503787
Ag 8.302872222576438 12.880881654015804 11.157198957016202
Ag 10.85564287549384 11.48877782273569 11.954411444412118
Ag 13.164076759739821 13.229607524972208 12.632151004383829
Ag 10.503749517843747 15.435438806932567 9.343125763016598
Ag 13.194899817234724 11.770143893090273 15.589877008576103
Ag 17.384486463929033 13.569560415324638 12.089926381461622
Ag 15.54790895768921 12.783702067155996 14.24487794446274
Ag 10.61445534800918 14.27715843269371 11.827971831507606
Ag 12.958200139239196 15.697145737497467 10.933527028157847
Ag 15.033759991205079 15.245292593081254 12.941139793923089
Ag 8.30678530476496 11.58323309011713 14.96252804810602
Ag 8.138133917092977 15.659540668971031 11.56247097126786
Ag 10.868120194703817 13.215796056856941 14.425385521760726
Ag 7.404111718831067 13.874991456855502 13.631744720201754
Ag 13.819656147237552 14.562192777559353 15.483002542700204
Ag 10.567093527090659 17.08217364941883 11.708540691381941
Ag 10.328629992446572 11.956698371068732 16.89268095177138
Ag 12.227992576962615 15.87528849602415 13.686252843016785
Ag 12.470342864132341 13.540490079375658 17.658036091130914
Ag 9.408784649630295 15.822229412185333 14.054514656257297
Ag 8.588267145229423 14.110915115014867 16.16539741472835
Ag 11.086767204247774 15.491406601463508 16.263658909959727
Ag 9.943223572250172 14.207537630862884 18.581269362988763
