45
Energy = -96.81853918 eV
Ag 12.227718070660625 9.311658218966596 9.508254418783388
Ag 15.663236059993826 8.296613435107155 12.796589949109896
Ag 10.907109885396727 6.894221611541892 9.8556187337553
Ag 10.797942146963276 8.691827520592797 11.965185333506055
Ag 14.720777507727647 9.76952501597373 10.667709292832972
Ag 17.140199111001834 10.606053875268273 11.828681452323092
Ag 13.082315297780577 8.966046089875041 13.700522721822509
Ag 16.731916767876438 13.235116895163449 13.105908736197305
Ag 10.898030596954596 11.763665959175405 9.524134761587089
Ag 18.44598337668226 12.845005273773356 10.867379678918065
Ag 12.436487804522123 11.179276659838438 12.022426520931974
Ag 14.871470368269891 12.599278517179854 11.037415317742585
Ag 7.360302347455869 9.69853617218916 11.60648296439875
Ag 15.031876051956694 10.974310953776685 13.570761763433609
Ag 12.709372968466706 11.554893105423277 15.04861058053452
Ag 10.577839652239918 9.8740463893918 14.472070726104894
Ag 8.532895009723614 8.158362866328375 13.627032811080015
Ag 9.619640359081718 14.17538752458297 8.909461304469035
Ag 15.278819263879338 13.082149423704653 15.543394683593311
Ag 9.591460076348596 11.430556422762363 12.098944622543716
Ag 13.31014041893436 7.427198031820641 11.332757138155936
Ag 8.414805658773199 7.148982354957121 11.044662834625045
Ag 13.860326954699817 15.524280187014291 15.489711622020685
Ag 16.52119394715008 11.473970334735847 9.177540880414066
Ag 13.77424182589973 13.586732452002881 13.31926938118294
Ag 11.343301960261673 13.761261760810026 11.878168555807095
Ag 16.69267407265267 14.952854038411678 10.855161603023308
Ag 9.36447997545791 9.394968655065016 9.632679291664665
Ag 9.33127608886137 14.939149984745267 16.279027447802573
Ag 8.0567203251059 11.93955257041577 9.772277842563204
Ag 9.947078635226482 12.07793054358886 16.03647783440122
Ag 11.448333665379854 14.084936567152521 14.796302717575145
Ag 15.471064273877827 15.851003551548256 13.240935443472496
Ag 15.174826845309473 14.03929580062547 8.638083516914241
Ag 7.928706016874836 10.750268558518902 14.345925572359269
Ag 13.619710506074124 11.593971585962342 8.740428027305933
Ag 11.357237475238088 16.808524183184566 15.5611591353176
Ag 8.646849251979887 13.477436083221994 14.019308445314588
Ag 6.7541756647977484 12.31546636383099 12.313019359103013
Ag 12.373041980011726 14.094110760563687 8.988954904212022
Ag 8.570973086557387 14.294957453517156 11.39052157773688
Ag 13.909452128770004 15.37163353743481 10.862746617090352
Ag 11.063728228197304 16.12306827278966 10.57692821029546
Ag 12.586558785126417 16.30188080141675 13.089844011216558
Ag 9.839480773472548 15.927113430786056 13.293772994142076
