49
Energy = -108.25944288 eV
Ag 15.378020360055947 10.184700758238632 8.503092058491278
Ag 14.014845258684902 12.474511821789386 7.4489597600243
Ag 14.644521104567005 14.987855841310179 8.747104795410532
Ag 15.717550910469932 8.47062081778979 11.250893724754619
Ag 14.787153382922703 12.467716534071043 10.183265308189597
Ag 14.099265157368373 7.644843549211901 8.997411202611836
Ag 12.672460477091775 9.797598173463474 7.667845540205497
Ag 14.521692529185325 16.42182026857812 11.508792968947683
Ag 11.246759127365955 12.052694285424137 6.572135515956278
Ag 11.956001100550695 14.556671823719459 7.884438705816391
Ag 12.64708238628569 16.95595169057026 9.385152873629844
Ag 15.107610785972634 10.909347177463316 12.669301433999667
Ag 13.436711481400812 9.868390861723462 10.464755482854292
Ag 14.660982275639412 13.813287627135013 12.78227644868116
Ag 11.912022364690694 12.057895986241174 9.25048795356242
Ag 12.712566080827502 14.510249324939315 10.668166931431642
Ag 14.839349260945344 8.413531841686432 13.966555199772229
Ag 13.167065518686998 7.307622463101045 11.747698233615564
Ag 15.495367100293274 10.717913690119975 15.524168347344007
Ag 11.328154094265782 8.071214370396406 9.616111819366898
Ag 15.018505958473662 13.899929803589654 15.660216660847281
Ag 12.61938456720152 12.060141433390413 11.94509401406869
Ag 13.688298790273965 16.028102024632133 14.264587731493199
Ag 9.860537063865989 10.280203558780363 8.342955384568391
Ag 11.707292508155168 14.245376757120654 13.420617395989908
Ag 12.399042796048516 9.599147448395103 13.224361142091329
Ag 9.416744817152479 13.214304883073096 8.463018204379757
Ag 10.572323871275824 10.316420119611143 11.116800926893523
Ag 12.23004521535822 7.159365745301029 14.490989949400886
Ag 10.336211465082751 7.781560460437612 12.425193857114952
Ag 13.213779592607276 12.053346581525904 14.649541061227561
Ag 8.57331336766322 8.61105034293966 10.291665527712677
Ag 10.154125072438397 15.673901923897727 9.935177144532284
Ag 12.949626176403997 9.529151976160914 16.00093906334387
Ag 10.136518106394933 13.189791835510835 11.232559295671102
Ag 11.762203208545158 16.79555348258423 12.149777750430427
Ag 10.847533163978895 16.415144632947683 14.886621099853246
Ag 7.988817256188379 11.41618361489952 10.431111491069956
Ag 13.664668534269042 12.006972560901197 17.363788261997495
Ag 10.441561556458336 11.665457577338604 13.69508884185335
Ag 10.205362393601375 9.137759971648723 15.012984541889262
Ag 8.297694979340577 9.879438422019991 12.880882230083518
Ag 7.717279386607603 14.293949592112613 10.536474240898613
Ag 12.242172879221387 14.279553107516415 16.232916935290888
Ag 10.97335976850871 11.64685354377553 16.44741962390081
Ag 9.213478550109308 15.45675942397268 12.720181771976247
Ag 7.863012861671155 12.753211947383257 12.976720944092124
Ag 9.517007401031817 13.900987843725892 15.231382131941366
Ag 8.317785070088707 11.298807613121415 15.405185606008224
