47
Energy = -101.99955 eV
Ag 6.51426347302421 10.859467417382895 13.122757263174417
Ag 6.650504459047377 11.819837037951892 10.3110277751362
Ag 6.6360745384513615 9.017426419201682 10.951779565336786
Ag 8.53950992374504 12.754862324735091 13.66768933509966
Ag 10.322582400536266 14.965397998575934 12.860668377905357
Ag 8.529146076419716 13.705528345974104 11.044801521047669
Ag 9.12177123317427 15.621157838746202 8.965488536524127
Ag 8.293384657222177 8.102194593692216 13.069446911622995
Ag 10.963083244811065 16.82293014323405 10.75422208443948
Ag 8.657205741035733 10.204976187606928 14.87314195481963
Ag 8.228189000263402 10.062722840969075 8.712264056285454
Ag 12.39155862818225 14.464151975798975 14.79595699475241
Ag 8.838862957460062 10.561369266055808 11.612080953310514
Ag 10.887310306433372 11.951164799522594 15.160019383539176
Ag 8.62836452938822 12.899271817761031 8.343633690034222
Ag 9.205916712675313 7.997186712893595 10.386943492267891
Ag 10.87560068778925 12.309722890374752 12.217267661289686
Ag 12.498065043180635 16.778053222317464 13.13509497457026
Ag 11.883289976480876 16.018376845160432 8.187161938763575
Ag 11.530462767748201 13.261588895494144 7.411811369128211
Ag 10.244199368125374 7.804598054687357 15.123729099585583
Ag 13.711767014410949 16.431599383553515 10.423389082372156
Ag 11.111853427783347 14.070080345170158 10.038629229380607
Ag 11.080745751769602 9.683816274377314 13.302294986423732
Ag 10.152582648708936 10.975103842601861 6.734588282628325
Ag 13.076805140021758 14.285933602906328 12.094878262607219
Ag 10.609170712258754 11.291852504224666 9.504678911225712
Ag 10.782677435037101 6.878294535435785 12.435864167053909
Ag 13.52900967696745 12.425242835828774 16.328067357278325
Ag 13.201032345841467 11.824447716720812 13.629248882776741
Ag 13.74019115021504 14.064434576106203 8.95754248467916
Ag 11.369892647322747 6.3549663690141935 9.736475045876425
Ag 10.763750107021206 8.672066671916612 8.126851940021375
Ag 11.919273989393215 9.086625900395548 10.695109319939881
Ag 12.816095250772445 9.73767043085375 15.533454487903708
Ag 13.146268503046304 11.789535523004963 10.683013451253665
Ag 15.153012422060362 13.766165479264727 14.004320473021444
Ag 12.845513190742476 7.265406214796818 14.195251192259011
Ag 12.96082364822212 10.63790050125605 8.064560447907024
Ag 15.627119667739931 14.305899884193753 11.084964376260343
Ag 13.441361435334173 7.793038536117244 8.524844873972336
Ag 15.451547773006542 10.91613500485773 14.874006575108865
Ag 13.611760305237189 6.9875733013460835 11.388856185305157
Ag 14.135894541219425 9.311223379255333 12.910958241277358
Ag 15.549416173544437 11.98786061651413 9.286510383296175
Ag 15.601394193866279 11.637954616243178 12.107936468348576
Ag 14.797922903217042 9.458119020002863 10.227455184418147
