49
Energy = -106.40546599 eV
Ag 11.487008362450398 8.09634846269204 7.7164665599616
Ag 10.251180435490879 10.631981354954103 7.313532714110299
Ag 10.603670725106214 6.439146072134652 9.919953246420965
Ag 9.198195055286568 8.755521588816617 9.269167451662014
Ag 8.73479793134951 11.547071379084318 9.53606116233476
Ag 13.973499586221509 9.459154026088882 7.824917922952162
Ag 7.127090374194742 9.583432586149279 10.97161718968632
Ag 12.806058481184321 11.910228764850082 7.406971160657188
Ag 13.228638252885272 7.505304690138998 9.765402851537058
Ag 11.706844290271187 10.212254188804867 9.631400758083887
Ag 10.722293220069906 13.235770061336861 8.628901555461944
Ag 8.86004788357692 7.51569214421603 11.949066923305649
Ag 11.671005282398822 7.91522193442488 12.068565694415659
Ag 9.757398234629086 10.125105233574622 11.78832856022116
Ag 8.787958888689031 14.341786775246247 10.421159136331244
Ag 7.79116736359326 12.164623228344155 12.098064377667503
Ag 10.88114801733573 15.925127246616997 9.299297420483645
Ag 14.575771533846822 9.953573161725037 10.498650389859687
Ag 7.632347319727725 9.781814732440377 13.727030054959458
Ag 15.407447488450218 12.036311826003546 8.524186143386546
Ag 13.232717449011625 14.575913693609188 8.36048512958628
Ag 12.390059679160958 10.638376999149337 12.407364186938395
Ag 14.45437288327097 7.790613370044757 12.257822135175521
Ag 13.23740070557929 12.482570889695216 10.205019766074422
Ag 10.765238867534926 12.82861060010455 11.63518331852684
Ag 10.232098543583955 8.87701918111865 14.300651205742026
Ag 17.743759575247385 13.358778985124742 9.433082418657586
Ag 16.16938227008862 12.09777438605895 11.35274785542838
Ag 15.333317833766904 14.513159302724539 10.20077975483998
Ag 10.058105419857412 11.837658342506758 14.2183655187006
Ag 7.267066694379668 12.396017210599172 14.853543764364465
Ag 8.593782057679476 14.501880502234293 13.305419946335627
Ag 10.304739245981487 16.2560639672082 12.014555566187163
Ag 8.763079810094585 10.434822777861456 16.23307581966611
Ag 12.77760328976085 15.17630968466356 11.220306372397157
Ag 11.549090756186029 10.362513816110564 16.310260407168848
Ag 13.106854219043214 8.942912493946098 14.506354935243152
Ag 13.703599555642995 13.057133482042241 12.855475190972685
Ag 15.17184844866525 10.397353193192586 13.242863645933326
Ag 13.880649064107054 11.654192558926951 15.377879789552658
Ag 11.404670678805088 14.34047796807612 13.927303150578126
Ag 17.525044294342003 14.437956849832752 12.026230111479363
Ag 9.226228877867245 14.086833373919536 15.966540437335153
Ag 11.774159625842957 13.111165827856428 16.42504715521772
Ag 15.095358006203645 15.553449149491046 12.9033638346312
Ag 16.150555227622913 13.067253999598428 14.129022977371566
Ag 10.035802238695604 16.56191878356971 14.801912252002001
Ag 12.684352605402474 16.77943244580439 13.672502752320375
Ag 13.928562715175762 14.51327387867386 15.269613485982934
