49
Energy = -106.80050819 eV
Ag 9.295228381666945 16.391624817411817 10.68505760650962
Ag 8.325969419594337 13.777791759292938 11.58461961444572
Ag 9.744925484836035 15.400769789942677 13.405143824673754
Ag 8.867063022672351 12.892087850163163 14.624767646215453
Ag 7.6853893113685405 11.176758712738295 12.610813411951783
Ag 8.689732125571542 11.398655508995526 9.95472409806382
Ag 11.45391599141438 12.133320908807544 9.73680763216597
Ag 11.331931074863205 16.288977705435276 8.768209294288432
Ag 9.507240721962246 14.079017712576967 8.948356489062482
Ag 12.038494395673286 17.011635006082013 11.542626879784127
Ag 8.722005757477197 13.485043361697048 17.45699231080249
Ag 11.198423466409732 14.454365530765887 11.251017033550264
Ag 10.648014234882908 14.684319750986386 15.913214639155358
Ag 9.723778421081063 10.073150009045314 14.366100077964882
Ag 13.50480274117768 15.949880392306119 6.978379549049457
Ag 10.337672242067896 11.985784047499331 12.340386777572531
Ag 10.656271498028907 9.4740384260491 9.04157495364143
Ag 10.235861684333733 11.234131743954926 16.843931166519635
Ag 11.81658753659553 12.302188217344204 14.673163935617204
Ag 11.456603265152765 13.309482380860004 18.211992765148135
Ag 11.703767806643603 13.825642791032333 7.084523316894857
Ag 9.966406046861877 11.688880430030776 7.405375625820986
Ag 9.637298321816653 9.280575529610271 11.654770087469508
Ag 14.07683059070766 17.022427792053325 9.499618927997318
Ag 12.881386094794168 11.196399152348807 7.651471266807386
Ag 12.516421487941289 15.080638694720431 13.809577627217656
Ag 11.04668157356559 7.633517756791174 13.641460666727237
Ag 11.586328294805503 7.481808634998799 10.837676297053486
Ag 13.416896422536627 14.201249932890983 16.339048847167135
Ag 13.16211586779845 11.421995813307053 16.974598728764747
Ag 11.89825089433711 9.156570864854103 15.891002204807608
Ag 12.364010759050178 10.034278029197187 13.050299975847683
Ag 14.637857891017047 13.37017616791876 7.147024137262807
Ag 13.268817429278801 14.316380592592518 9.358667604764015
Ag 13.160908139259782 12.560323409629193 11.978909690530466
Ag 13.154117974940238 9.814414030866253 10.241515827953705
Ag 15.9852227480245 14.624007125163772 9.586762324877464
Ag 14.360079557750021 15.395695261761599 11.74811379951037
Ag 12.609304005968097 5.543940247196069 12.72316852372832
Ag 15.300047038870913 15.059696423165347 14.323217337396391
Ag 14.628177245053514 12.412505947992114 14.510769449570136
Ag 14.553622439572996 9.768405677342944 15.164850024117587
Ag 13.657513856434202 7.1806788044405305 14.754533240366355
Ag 14.867401933896716 11.992228273663356 9.7166717640453
Ag 15.116280455408205 10.426671646434022 12.177245037225934
Ag 14.034716466725818 7.831620617299121 12.07486471718604
Ag 16.006668308659712 13.120742478696464 12.132411807431591
Ag 16.990430632961875 10.984993307439252 14.068606928444895
Ag 16.244493537813344 8.222101458583802 13.696694701202093
