44
Energy = -94.54162687 eV
Ag 14.469167931171736 12.325701228464741 11.075837135718087
Ag 11.246473087916444 13.60712417723739 7.5967892665045005
Ag 12.263632391363506 7.335644589183117 12.597779463290495
Ag 9.654868841641974 8.07511814710855 11.655849027561583
Ag 14.30864067442098 13.718276521453134 13.556888839422538
Ag 7.281118575680333 14.38774193057303 14.332004856384076
Ag 12.511018697160049 15.919222037932567 13.71722095290222
Ag 13.324066829765668 9.269805650984168 14.766462971825085
Ag 7.773006273975491 10.335391240079572 10.487386436407107
Ag 15.781512307881984 9.724177799930013 10.774208923824999
Ag 7.055663105059749 13.408266525016899 9.80518797504171
Ag 9.510562536773886 14.859142335381422 9.426088331827728
Ag 13.291030937669472 11.74369554462301 6.8698519458088825
Ag 15.699263661000714 8.563474944258662 8.199167753517811
Ag 14.03197635206861 11.928036299112255 15.733173027449883
Ag 13.904943106652961 13.783315008417231 8.71156450954852
Ag 8.79879574480693 10.064807820382256 15.94638025576032
Ag 9.556080921008999 12.349340115740333 14.32521106855817
Ag 9.37551564701244 12.12348608935973 9.114451092785982
Ag 12.043893712033935 15.920079286657073 8.977101257828563
Ag 8.04468630558672 9.826688812724436 13.268221336957563
Ag 12.999030895530838 9.301798036495164 8.428446266116863
Ag 13.301050733390241 14.90982552546615 11.22340330263935
Ag 6.817702972310997 11.737941474567789 14.953713930467488
Ag 11.873391387462835 13.758440759256901 15.29563289228725
Ag 11.412265295003149 11.028358194494125 16.07969216283739
Ag 15.127343180912389 10.892430693982831 13.337961468941389
Ag 13.547769020615553 6.666623524446511 7.777006774388442
Ag 8.151320209863195 15.202429797800987 11.83279650861463
Ag 10.261931535025502 10.864530446970509 11.704777279078165
Ag 10.261781972751965 9.406802936670463 9.279595809258721
Ag 10.773334095367169 10.799666915661808 6.993486074684924
Ag 10.646286198081572 13.55802804438821 11.818827410070242
Ag 15.367392343388612 11.298925694688737 8.55616505938135
Ag 10.672618228835491 9.172778913368312 14.044759652814726
Ag 11.60933813302761 7.0540626069881185 9.818818661897271
Ag 14.96529096048504 8.082664590256206 12.885505941426374
Ag 12.294847161587358 11.706079917705441 13.40795888127087
Ag 7.574121741939798 12.476054118658096 12.310059638725923
Ag 10.793629851762434 16.332143473079952 11.501262043763534
Ag 12.992646644292156 9.759732307925036 11.467819811363386
Ag 9.857458515782849 15.316403141020649 14.06843964174835
Ag 14.328118736500791 7.342079585440552 10.332213318287568
Ag 12.113030906264841 11.731281556882198 9.612449401844616
