47
Energy = -102.1617953 eV
Ag 11.299173872751174 15.686741691496485 13.375882479597497
Ag 12.637507376009614 10.773496170548988 13.124753632378582
Ag 11.749296706946714 11.65076609451371 15.816052306632498
Ag 11.264926940562447 14.060128098200668 8.778569116994149
Ag 10.33626517759685 9.341271279510295 8.227313648715453
Ag 12.931556184674086 16.137682859924865 15.544116158982737
Ag 14.900082195444472 9.725162035594224 8.885644053239576
Ag 16.013196521958854 12.593918107345777 13.192639893098326
Ag 12.491323299570231 15.671745620718912 10.7979255791895
Ag 13.870609297589583 8.35587322880223 11.340188904485384
Ag 13.212603258805869 13.588409595498879 13.797685278144506
Ag 12.147199247261641 12.809886915676643 11.178927525480866
Ag 7.642148993948296 10.351083027623892 13.442957717257597
Ag 10.280675875249548 11.950241149541862 7.1543285053586505
Ag 6.2774874180676825 8.512027590000011 11.886303915564977
Ag 12.302838525532898 10.28108786904161 10.032201962326528
Ag 8.681230218137234 12.206254392857874 15.308548764192272
Ag 10.95107542530695 7.83031966408728 10.614541208400109
Ag 10.178998927625868 9.7883029595472 14.591583200257785
Ag 14.582019705977062 11.623586598822804 15.383031400821908
Ag 13.893398402211844 15.146074388811673 8.424296200059743
Ag 12.695659405781042 13.322584074131306 6.530664276565507
Ag 8.96874225247006 7.947589084611548 12.691624187486774
Ag 8.306792270646678 8.617702312205942 9.984952985065691
Ag 9.866140061936356 14.577686995252602 11.241813146232456
Ag 10.10165894953816 10.384897374366396 11.790851760627596
Ag 13.8760354146878 12.406819631549185 8.849806878403088
Ag 10.797263264232598 14.30001075842749 15.82971873205467
Ag 6.971573980209703 10.93060102196674 10.676561712773443
Ag 11.754256590861276 7.886395132506999 13.252376973634965
Ag 16.664208888938667 15.315178249356594 12.625567054666078
Ag 14.807135670184017 13.996203825893451 11.029811834172177
Ag 9.367747067789548 12.225147323182897 9.815652404444034
Ag 15.36060048938069 9.697457412909733 13.47756095964449
Ag 13.417935832089661 13.697638966096475 16.754995824604016
Ag 14.374648976306963 7.143809809356265 13.828576205750425
Ag 7.894785520271073 12.873057427677322 12.343444431513383
Ag 12.789774557564828 7.934823037042568 8.56347196111861
Ag 15.486719141081224 14.628425074795476 15.107823843854277
Ag 10.504588219144512 12.730969044760174 13.404872984272501
Ag 14.105218608491551 16.263015040798216 13.037655232428984
Ag 13.085821706888284 9.163706201778966 15.3620658015173
Ag 12.698372341682498 10.498501680381471 7.16243550347362
Ag 8.67589625345594 14.883709534610084 14.038024545021347
Ag 14.725816299240629 11.201161492553053 11.226024835366042
Ag 15.174116997412721 16.671308152828686 10.482524892808192
Ag 7.903325334169669 10.635989668481121 8.01207724700754
