40
Energy = -86.00506643 eV
Ag 13.217077932350424 15.684229925878997 10.385381725900846
Ag 13.5051229579389 10.172083842841875 11.183077714701032
Ag 11.0087974223523 13.329884609237528 15.19726160503689
Ag 14.897572558678041 11.343878500477246 13.400594191326881
Ag 12.614086166107157 13.912460398551815 8.120946289763276
Ag 10.743069038753285 9.806708959544252 11.198050306960551
Ag 9.584796296246598 9.052551580201387 8.770927849355635
Ag 15.838506841100076 11.654596880906352 10.758846191325665
Ag 11.935472760856863 11.539384263635 13.15654323083157
Ag 7.922027248197876 10.520843055741024 11.697493750421401
Ag 10.024985211107866 12.527906568082003 11.217963870657613
Ag 12.806114038249083 12.846169981001033 10.703408037583312
Ag 8.364923428467199 11.558283725283701 8.963020116795422
Ag 14.849501546438233 13.984392894343102 12.204165857779989
Ag 7.836006915727722 14.029856573221414 10.310303547348434
Ag 5.9041985122806535 11.924592485688569 10.222002275021902
Ag 13.999548184662295 11.463429970347647 8.500765535746702
Ag 12.097028669489369 14.621610099327233 12.868239328450622
Ag 11.106771874725966 6.966761049812781 10.01690142095179
Ag 13.047494121252091 10.85806410673899 15.6095470719333
Ag 10.468628310317998 15.258720210310985 10.666743269761149
Ag 13.734489594915098 7.363581805037431 10.996583782367138
Ag 10.260412355780113 10.71330734349757 16.055871900852726
Ag 9.437636014103866 9.17208715192349 13.715355528191623
Ag 12.512225892034285 8.981614470984098 8.779226816045947
Ag 9.274518038723903 14.495015703553529 13.12803435449629
Ag 9.850199003353989 13.90596213558745 8.339283552105464
Ag 13.758094821829106 13.452630344333102 14.764797620984663
Ag 13.709967408035872 8.75713846934956 13.64700116804861
Ag 15.983582016558302 9.05667808215668 12.036014320846716
Ag 11.583212368767494 8.413647290134156 15.314837763257524
Ag 15.274936361272765 9.082674763108415 9.282779316707298
Ag 11.173989553783056 11.444321746988486 8.703068301255456
Ag 6.823690378088894 9.23663853285485 9.498208867645026
Ag 15.180671061597826 13.94706768701262 9.338725061262151
Ag 11.391548405949393 7.438017220114391 12.713248469026366
Ag 11.339977506133172 16.375522282462985 8.294009140580357
Ag 8.97059375433419 11.884657239482214 13.942921214169306
Ag 6.823238660736049 12.979841219474265 12.62649723839385
Ag 8.73965967438708 7.837559736455286 11.265725301793179
