40
Energy = -85.33849725 eV
Ag 7.069042927339593 9.620398995808593 12.023229513134819
Ag 8.859462896914906 7.79313062152853 13.568119582614724
Ag 7.924635528203427 7.451779897161477 10.576793349185511
Ag 8.233538147888579 10.088260408156017 9.435153621256225
Ag 8.794879814008524 10.777991085176925 13.801111909463987
Ag 8.214475953301498 13.556663387034853 13.658948986568449
Ag 8.140178163897343 12.105546703723926 11.352879175182261
Ag 9.098755982676447 12.78773327122869 8.841574356135334
Ag 11.916994880971059 7.47648745448835 12.826208767163749
Ag 8.469768586353435 15.08363684706752 11.298213527683494
Ag 10.245257845126586 6.102588304023216 11.12267161999416
Ag 10.00658636985565 9.187999119420812 11.60785431199041
Ag 10.145205811013911 8.0188767290076 9.011896564380766
Ag 10.126048205245137 10.471362283445472 7.329894238632045
Ag 10.554545970653614 12.726750990495697 14.853268149198357
Ag 10.246379069733925 15.420347546756284 9.088655192777141
Ag 10.436392594754006 15.251028537939302 13.54158737338807
Ag 11.622391590413814 11.284608318659922 12.637734346843596
Ag 11.080460103965207 9.475032024789034 14.660898585001139
Ag 11.072607708368057 10.981935732776801 9.799493230086153
Ag 11.89925566201927 13.293227740354437 8.31783374077518
Ag 12.520605730329985 9.121483373271342 8.1497430571279
Ag 13.098885873449293 9.484484074256127 11.087314478088674
Ag 10.687265196511085 13.51329590360822 11.184070072485595
Ag 12.664951624756858 6.979346775590485 10.05701980009249
Ag 13.7502255968679 9.301768751296748 13.877678543795815
Ag 10.712594602755374 16.967591664159716 11.365832856209538
Ag 13.103515940254743 11.747698432187548 15.08930990262252
Ag 12.445927586852097 14.708288732065812 15.552222408013915
Ag 12.915308625114578 13.787613948029339 13.049028368439775
Ag 14.033207181390178 11.414014765843511 8.161912554806726
Ag 13.334420217766668 12.515479807013424 10.59115677438661
Ag 15.077534803026284 8.919629273232614 9.206308902119597
Ag 12.925414545200175 16.610783683362676 12.984749835790886
Ag 12.806971981317966 15.2860723538109 10.447375889874731
Ag 15.759954044959798 9.178798942066809 11.917160079224391
Ag 14.974000852031914 15.265700197255976 14.215533984184674
Ag 14.891614578622145 11.662814421893888 12.909699924841819
Ag 15.302060726351838 14.153983813986843 11.588504670862717
Ag 15.881156595619016 11.487869603235254 10.286155630885467
