51
Energy = -111.21162212 eV
Ag 16.88640696595778 12.868407057091797 8.513764119756038
Ag 17.16693732441515 12.19233512612954 11.291897454255533
Ag 16.92389789893226 15.018948412561281 10.433319701982452
Ag 16.427153469825722 9.453969339975377 11.832253384951667
Ag 15.255855850398065 10.593883615902865 9.588516859243336
Ag 14.692914433673954 7.840702746039837 9.976840845342608
Ag 14.88544869194466 15.099739341693494 8.183713121597423
Ag 15.508338580319046 14.432071880466507 12.870266920994617
Ag 14.28753273787115 12.294728322055843 7.595701184276968
Ag 14.845062271351848 13.320778413413242 10.299615252296908
Ag 14.849390000319636 11.734929430435646 12.867865543459748
Ag 14.828899430514783 7.084157246521583 12.618373910558478
Ag 15.075864537467675 9.331021040424725 14.312569559842855
Ag 14.135748803165304 16.0295970388309 10.993011439455957
Ag 12.188225685620978 9.077113464617437 9.350017897083376
Ag 12.330038369713897 14.70968666969678 9.334377382595678
Ag 12.557921875035943 10.653860804084953 14.359375976634258
Ag 13.530952893994597 9.527299433575411 11.86424262323324
Ag 12.618893431087011 11.75987598937342 9.881964816597966
Ag 13.384376241214886 13.30666390238758 14.82191035695859
Ag 12.600911314242074 14.191756331454066 6.60852299253114
Ag 12.113563761655405 7.1771998918493045 11.508376074013519
Ag 12.78808461716143 13.612032350469013 12.078532141963167
Ag 11.752850349249677 11.074508476198126 7.218689951985803
Ag 12.700414289021383 7.8162089729979725 14.28771095776558
Ag 11.005309851172099 10.78582943130294 11.962601683330238
Ag 13.214405201303972 15.921000143387486 13.701907988110847
Ag 9.935431059706694 10.955858288202768 9.405533349381813
Ag 10.232218341796488 13.405538284144386 7.840628749569114
Ag 11.197801599834802 14.957605064673245 15.475052971180654
Ag 10.108095636189267 7.9877282646282355 13.373601454131755
Ag 10.84578664952488 8.989628968454877 16.03139728635685
Ag 10.9088391680892 15.757185968085919 12.079884230491954
Ag 9.854130321523934 8.812311744723043 7.752609584008499
Ag 9.66870134631154 8.414227684529532 10.658463585051132
Ag 10.324892198926579 13.364238108896837 10.679815443912611
Ag 11.081628409023125 12.163163931443602 16.182862607430184
Ag 10.363709974637478 13.19918815587819 13.50619527033879
Ag 9.508775920317573 10.667938579530674 14.27529911193964
Ag 8.472819172435274 11.234274885346936 7.122682129497857
Ag 8.144210598603157 11.814598814749784 11.961917113742798
Ag 8.82674473976802 15.545926460883491 14.087679330893405
Ag 7.637357455395258 9.109294103996929 12.50909798423824
Ag 7.837909408776733 12.893192853628369 9.355095949174471
Ag 8.071738274136168 8.483193199228111 15.252981155331462
Ag 7.394459055370007 9.992314889824748 9.823888344515435
Ag 8.170163490120686 14.763748273845955 11.518560556908604
Ag 8.666375969227687 10.684163678318873 16.916637879510375
Ag 8.513951003737867 13.188263875183132 15.66848199117168
Ag 6.706723563382368 13.633539039480768 13.631762269873482
Ag 6.784283956673814 11.01702962833887 14.533006318233483
