53
Energy = -115.59444455 eV
Ag 13.932946737922592 9.78964411543928 7.374559163827612
Ag 12.73636731854339 14.219292249170978 7.1370969026744975
Ag 15.457936748469171 12.790673387252516 7.527699630217414
Ag 11.986661991456389 11.627509160999608 6.492630428209124
Ag 11.495075883041302 9.966530386736327 8.69705776575917
Ag 10.490123953359292 12.70809203517137 8.690417691869355
Ag 15.505105796652527 10.61507545710948 9.520362570862675
Ag 13.58335489126553 8.228007361891137 9.720711526000846
Ag 16.585001283814226 13.229028092138202 10.057733699082371
Ag 13.237657702435516 12.168707451461344 8.972392430474759
Ag 14.370616518892566 14.794459483068456 9.323222144069346
Ag 11.549781311769895 15.36765708914397 9.400454432009521
Ag 8.828241393019093 9.610089769309523 9.377740074541666
Ag 7.881695862319535 12.157323116747255 9.85175165297465
Ag 13.00939754138193 7.812274518271703 12.592966375761621
Ag 10.294323947273808 11.281223152592663 11.178874732773549
Ag 15.46138867297013 8.908384825357532 11.746221683986983
Ag 15.483147768499899 11.719075135859907 12.131230867374299
Ag 9.56211151953535 14.141403995173613 10.997898831338023
Ag 17.583016526583314 13.491131188494919 12.64319474980827
Ag 10.922293476481642 8.412585509819268 10.880011816448055
Ag 13.342589707568482 16.654830425782663 11.12109638904022
Ag 13.07358299110941 10.532529325323813 11.281256700824413
Ag 12.446691911653982 13.451733290853404 11.31457586552266
Ag 15.002037581872797 14.58641945328836 12.155625391570798
Ag 10.532446511896046 16.667548301431605 11.703089472642223
Ag 10.479259584766274 6.309644192104061 12.537617300492967
Ag 14.370138560916327 9.876662619827547 14.121063109682115
Ag 8.308354453914342 7.372197082617781 10.958551981398676
Ag 18.513463088448674 13.363018657979199 15.207965306259021
Ag 7.144666855529063 9.975587901241132 11.609186915801917
Ag 11.540367540678222 10.340968592867801 13.596998036817292
Ag 15.825411773036933 13.964135111548078 14.863314795306756
Ag 12.322633046464654 15.363967369273885 13.503524214861965
Ag 13.414570146844333 12.68247770600354 13.839203333359686
Ag 16.706858573756477 11.335483790748995 14.617019556367435
Ag 8.710032610967845 15.09024187187908 13.541732796580446
Ag 7.969227652548986 12.42589212669071 12.667907195546483
Ag 14.70567300646247 16.49618037550481 14.35671537869699
Ag 10.08181744313063 17.352658538962796 14.361920269250119
Ag 12.534440176225624 9.717778569307946 16.240113991531437
Ag 10.63368118374618 13.059639259631446 13.464444795590037
Ag 12.524816907606784 18.17707936935957 13.270188178455934
Ag 13.369481288355658 14.487256345671373 16.104786086670114
Ag 11.206236782875061 7.808128517599584 14.753916851401858
Ag 9.135890331001725 8.84281382384535 13.180928247933995
Ag 7.198154609039819 10.449294693826069 14.455481647710913
Ag 12.391754131447382 17.088298172050994 15.88364198123373
Ag 14.408642030925234 11.813498469435865 16.27882318017392
Ag 10.53271464701793 14.90637459763067 15.765765445170363
Ag 9.697710493673434 10.111224093049309 15.688234047105947
Ag 11.530526146142366 12.301363849335749 16.128411475653266
Ag 8.663410830032277 12.725370523218666 15.431138940819391
