54
Energy = -117.86958312 eV
Ag 14.55288569174809 9.710474756745331 17.129761788557076
Ag 12.390638378295131 13.570364625305604 8.968498826719955
Ag 9.172965085379879 16.46955279566875 14.838551954296864
Ag 17.553762325319763 14.882572783356578 13.258659643737223
Ag 14.014654268417562 17.304983329922365 11.699639574446842
Ag 10.266332439121548 12.095196598926698 7.985422886276705
Ag 16.71325637201984 13.778886773301156 10.781847511068648
Ag 12.69037804757308 9.576569797718653 14.975544218681994
Ag 14.014045562899117 10.34220885147625 12.458873366337759
Ag 15.831234325013723 12.678667090180838 13.386249822982707
Ag 12.875230307669934 10.940013814344105 7.684891880938591
Ag 17.537712094663117 10.412416789055086 13.528387838172335
Ag 16.10261739658908 8.467683191521914 11.927606869147448
Ag 7.728136544272156 13.311022951562583 11.679406639276378
Ag 13.324685073323607 14.323497631735652 16.39209514749148
Ag 13.950168642348046 16.986563407099432 15.66128462989683
Ag 15.978279554083892 14.910588326175217 15.578255885579436
Ag 13.909053943642643 19.112977251014957 13.826797464009204
Ag 15.2769706554443 12.287079672329604 16.309381064316074
Ag 7.991015389430841 10.544177964739015 8.080862046039657
Ag 12.100433317194595 8.241530130638626 10.567855956076263
Ag 11.352518903080153 14.598353799357575 14.266943820032942
Ag 11.366932919339266 16.344027409021894 16.52316148963416
Ag 12.071725167280864 15.232764994849953 11.367964859915467
Ag 11.930866221552028 18.944550254121122 15.788003332046216
Ag 11.094020185313724 9.881575230716843 12.665661841837466
Ag 14.514722973869135 15.199004366245948 9.884493528775401
Ag 14.955924600811768 12.344815861800052 9.002964319228393
Ag 14.456050046776307 6.794260344455361 10.471259239762421
Ag 8.149040667981184 11.617163158302343 16.107960323068973
Ag 10.445283080866545 9.379062869708742 8.66423056699939
Ag 12.554668345035225 11.67692578108365 16.936421644720895
Ag 9.135823403181915 11.105348504067846 10.52761826439796
Ag 13.129281189253895 12.381634654846646 14.190743218800165
Ag 10.601078743833826 11.493177278125293 14.948405313932696
Ag 14.489839195362105 9.529492113488581 9.626310503154684
Ag 9.492200846392345 15.500278616832977 12.254612657525922
Ag 11.778155074205893 17.24684029693954 13.530738857384968
Ag 15.414075950349057 8.91827334166633 14.610482383672146
Ag 17.876161441105786 12.798469051922146 15.209547396058342
Ag 13.80954315849378 12.982080413626354 11.47583211687954
Ag 8.481735184697305 11.058859967468527 13.244790146535868
Ag 16.40778504398696 11.084124975203821 11.047150285728435
Ag 16.676174755587482 16.545380248916228 11.06354554378786
Ag 9.789184482167038 14.023512465500799 9.897671335132117
Ag 12.078849549876567 11.033255812932317 10.284977992872939
Ag 10.381014155405317 13.666255338967309 16.71265996499022
Ag 14.071956469372145 15.052749108626653 13.483866412174073
Ag 13.454814913477627 7.690931787512072 12.96592769157644
Ag 8.647243315736667 13.68697728495434 14.391106920267493
Ag 17.221599245640064 10.30278168836591 16.318111255652006
Ag 6.936632549885681 15.560967416737618 13.28108431123283
Ag 10.763554120235394 12.723859033046168 12.249894747523973
Ag 15.984709842317445 17.16620888863192 13.744488798915727
