51
Energy = -111.57739357 eV
Ag 14.424757366298357 11.571524892722737 16.267812119750015
Ag 10.048185877814099 7.75715711199631 16.229714942639173
Ag 12.400459315031453 9.7152914983366 17.50376983580021
Ag 9.679842024805714 10.324873004312934 17.190506851124333
Ag 13.349819762682811 14.162245975040147 15.382435077829456
Ag 9.4137464410928 7.487481634675954 13.494515426451267
Ag 15.73607074119875 10.470250158877022 13.831416485663363
Ag 11.558332264450948 12.251882099355036 16.410426601019147
Ag 14.08469668210346 8.832509484410924 15.407632603988883
Ag 15.748366743523228 13.28167238740939 14.24376884995946
Ag 12.306379673214547 16.696357530461487 14.746772891946998
Ag 8.591783993367342 12.469686710691603 15.78805726230017
Ag 10.407036011172593 14.587936683734657 15.177276324544886
Ag 11.444821182054252 9.751043623487917 14.922684704826409
Ag 12.044177859017433 7.055850853029436 14.341117835713705
Ag 8.486685321767833 9.832360151696095 14.675381638743682
Ag 13.231489501822491 11.743080567411827 13.79036943848955
Ag 16.959817387013597 12.220766371185293 11.856263330220434
Ag 11.979887674958437 14.550288672425387 12.846043050093444
Ag 14.773322017094243 10.635119931607933 11.18615463505101
Ag 11.345507302164743 7.272313148599634 11.42893610795878
Ag 10.392153796053462 12.148879436273539 13.725987707574994
Ag 14.53105772167071 15.850933037772839 13.35058240428852
Ag 13.29004009356823 8.981859993553957 12.74622165168073
Ag 9.253281189052686 14.2175951520285 12.174598603799485
Ag 10.566977696143459 9.771567406575809 12.24156025330545
Ag 16.617775926787314 11.223904423088152 9.199993120963198
Ag 16.81063629059321 15.02206625987098 12.068493454084415
Ag 14.38791687549105 13.530589426817588 11.730598673369228
Ag 10.01841781754359 16.72383803807761 13.219276697701835
Ag 7.56241242325367 11.992519242762649 13.161107570839512
Ag 7.854219861501445 9.294446165640862 11.921567956116371
Ag 12.022461312875334 14.453479458097855 9.867126678668269
Ag 12.513488351793871 17.257652965613193 11.874304881341434
Ag 13.80173542112304 12.369732895533673 9.217629254776789
Ag 11.923457728095174 12.084775910396413 11.358749052337673
Ag 6.927412500050398 13.483793211635568 10.841530287447435
Ag 12.517006086403123 9.508679582730075 10.011027846111501
Ag 14.689316730833289 16.129960914623 10.477550500467311
Ag 15.535503534537186 12.637884292201731 7.040860604000138
Ag 16.25315811760841 13.966616067643788 9.510575677325217
Ag 9.011810146946074 11.656206776474097 10.783271912054055
Ag 10.171631532124069 16.446586022331324 10.472121042513706
Ag 10.943125180599587 11.82512915366286 8.752338402129913
Ag 9.284902361994549 14.05805330202341 9.349706971271761
Ag 14.026867178170123 14.891078298323842 7.916701034349003
Ag 9.775498978309152 9.205091636071256 9.579046222908945
Ag 12.50595408808546 17.049697842553282 9.006250103760525
Ag 12.820205880161335 12.08256369928789 6.6422305585873875
Ag 11.587267492659405 9.529544948156586 7.3723427565092186
Ag 14.37747944331918 10.013520921499245 7.930832163419146
