54
Energy = -119.09261176 eV
Ag 15.140852093245734 9.145144331481532 9.109002728960746
Ag 17.245360305389266 13.752399033690342 13.130244385205282
Ag 15.989831676825462 10.695926788035894 11.379542334130088
Ag 15.522564494203914 11.848751461621076 8.759709138391944
Ag 17.254437911131387 13.166653898982116 10.435867686248393
Ag 13.229029807369054 10.553186986476861 7.549539561882016
Ag 14.153749071468573 13.100047942295712 6.699645843736044
Ag 12.401069315373952 8.525818358405452 9.320456346443986
Ag 14.175510036515732 8.517667461391474 11.603302808007195
Ag 15.511575931431214 9.420799888523582 13.915245383046225
Ag 15.840678801423756 14.622828942475772 8.433924814795999
Ag 13.143558164233312 11.240418402312551 10.283238832713007
Ag 12.022878052513063 6.758879727285418 11.558341393974635
Ag 10.436208795884326 10.707269159166412 9.24937099602839
Ag 15.27336477469609 12.35898574936753 14.595216608845567
Ag 14.782273312381067 13.145920922137071 11.87445153743573
Ag 15.956314386572055 15.602403573471548 11.139293261578658
Ag 11.470770073095146 12.675083957573742 7.347054676461858
Ag 13.325667280475201 13.951002550794005 9.531500551339294
Ag 12.556700190861598 15.331005679896993 7.193089541548895
Ag 13.665685962894313 10.224429284610013 15.884756544978433
Ag 12.686783022550554 8.227513087470657 14.01876900604429
Ag 15.060043504593676 15.268144818009313 13.869743286153435
Ag 11.310821580812958 9.54874540447589 11.717797349610603
Ag 13.38242791772829 10.886560020571617 13.081058823005245
Ag 9.48467207054358 11.729505326661815 12.033354874342194
Ag 14.10873273345804 16.66727262162391 9.22572853394087
Ag 7.920934452305582 9.896263702714858 10.411810011739268
Ag 9.778029129739535 7.841883542131727 10.115976543144521
Ag 7.93907706693648 12.640003418932977 9.749314435782875
Ag 12.584358032292968 12.159616211892155 17.74554315124526
Ag 7.361764742779665 7.407191809425538 11.473426248390068
Ag 9.747005072780723 7.543935214920308 12.988545310113398
Ag 11.231912409183042 9.78621925246313 17.143049196385398
Ag 12.324275658209194 12.563873583941065 15.03467047356828
Ag 9.774668851283352 14.838014038424824 7.603106111855645
Ag 10.583563207892245 10.314498243711935 14.303462544595057
Ag 11.316856347004853 16.23088273889177 9.578921489422092
Ag 13.197454577542782 15.899995308793347 11.750229874840732
Ag 10.548724783474388 13.475283417694236 9.917101968253373
Ag 11.999399207402638 13.170536437997782 12.258812790596192
Ag 6.500249116607364 11.647687805211802 12.015903074135727
Ag 14.11122466965828 14.305383543758078 16.32191114773537
Ag 10.486246731432097 7.653060200624729 15.620428053296651
Ag 12.309066214089494 15.353656317059015 14.29855625986209
Ag 7.737869033601331 9.460713276136932 13.286213483036152
Ag 10.390308146213103 15.492209356184798 12.115680810004013
Ag 9.82304026543078 12.122074796548063 16.558628703442555
Ag 8.515843171709413 15.476833374095435 10.019876485995871
Ag 7.8862125512576275 11.985126140476691 14.47322262614138
Ag 11.270209769660717 14.504141101082423 16.785447017143582
Ag 8.512350397232566 9.635065781028981 16.001636792214644
Ag 7.8985383051750775 14.063746178891147 12.370372067734404
Ag 9.902390940772031 13.840739505516018 14.312719516022167
