54
Energy = -115.90027638 eV
Ag 14.43613691696741 9.624520576941324 18.23039454136242
Ag 15.6298038139017 19.276777459562197 14.560195586230844
Ag 16.657525383546876 10.101447070226003 13.017596836488075
Ag 17.84349540827469 17.494913918796254 14.839746428083954
Ag 14.368229341002293 12.01366921496714 16.80835462409953
Ag 16.242649288586076 14.694665879035078 11.32815128318455
Ag 20.876632494843882 16.103096566433344 11.248617359757956
Ag 15.1120568876588 12.016629645808456 11.461270061726639
Ag 15.555873786479484 9.69687196191071 15.606169112196826
Ag 10.832488193920694 17.54157689746159 15.088455390631307
Ag 11.075049032949114 10.230354566351041 13.67414786088792
Ag 18.86573060616232 14.413411861494252 10.388578099050797
Ag 15.640861283276243 12.357197893855028 14.222610446586822
Ag 18.515668617132377 16.013691515171374 12.557848944790317
Ag 12.886785272165078 14.335039756940569 19.087811267766583
Ag 12.688057779143897 9.813291932251392 15.913918732807968
Ag 12.410727157983874 11.573093917252358 18.765421446280875
Ag 11.68673014700124 16.162637468437023 9.466141236897492
Ag 20.121029203125104 14.752636779648508 18.179528586820147
Ag 13.683643550061916 16.879935594566714 14.069826879547897
Ag 11.262679013554186 14.543110220324506 11.628295404749805
Ag 17.798792773601708 16.003160318096842 17.270680185774868
Ag 11.755816661441338 8.93421130776382 18.338001229128853
Ag 8.990108986378276 18.556478795797272 13.228583726025688
Ag 11.70447817238501 13.536795441975258 16.785927728601667
Ag 11.301247494514435 17.30699203913523 12.253777043522707
Ag 13.963545037709888 14.290737225547375 12.847973177119146
Ag 13.685650571022464 21.265848250305936 14.222797575412036
Ag 16.524051473818574 15.072151639753125 14.216490508432912
Ag 17.63203805344278 13.686213593322849 19.133122159222427
Ag 12.254509239636096 11.930875111740928 11.68025309662458
Ag 11.645282385242592 15.002898238889168 14.435915125453576
Ag 12.694012918843013 16.406980600172975 16.99933986641411
Ag 16.874175132004893 10.984112224379265 17.915810877568095
Ag 15.06600257249168 12.506434230407793 19.472202642806735
Ag 15.333585570159725 15.130298753891958 18.250108001101957
Ag 13.82622870096195 16.58925175754519 11.158894014409254
Ag 10.057294764409614 12.863758084178215 13.486864493540788
Ag 13.870327746147723 19.176002052747886 12.359546252238346
Ag 9.230181680718804 15.71259381263051 13.29215278241922
Ag 16.926700287786677 13.453738741289964 16.458853411643044
Ag 14.223004227475714 14.494776276852742 15.665200240319036
Ag 12.257419789018732 18.792222261538473 10.14175667649304
Ag 20.062041189904054 16.023678423840376 15.723762990666692
Ag 16.085061498477028 17.354642973209383 12.565134238783253
Ag 19.330738543942363 12.23210610906931 17.41542468461679
Ag 13.108721992601373 19.001434027203963 15.79965565711444
Ag 17.98661729117548 11.0360421722544 15.295120875605697
Ag 12.632572795343153 12.322498367605428 14.513067646102922
Ag 15.41824851154222 17.222957411347775 16.395984878519155
Ag 13.579419892367994 13.963207458415706 10.11330587178541
Ag 13.870252640753758 10.114521864510166 13.281877973327008
Ag 20.520303695326348 17.611170307922286 13.562719129692304
Ag 11.397121888642216 19.86584345264285 13.566305868894668
