52
Energy = -114.23580659 eV
Ag 13.990659095790706 11.969852083776747 17.37984419056247
Ag 12.961479394790256 12.184573165200552 7.812493412369577
Ag 7.484761896219103 11.964709304157974 14.663530098701203
Ag 7.9311152344797256 15.225687639363725 11.240316743665248
Ag 16.6811745818813 12.61957957909467 13.5428462016399
Ag 9.806205294071026 10.419281636834706 14.087745744981698
Ag 10.945651227987291 10.241311998775958 7.680006749088239
Ag 6.567795055891084 10.209059067630003 9.488279048024237
Ag 7.238257585503603 12.809177549665408 10.029923488388969
Ag 14.18563311319876 7.571199199116412 13.666122862773376
Ag 11.758445755635547 12.310321356276042 12.430428795098766
Ag 13.798587974951264 14.13938046771006 13.065182041308585
Ag 13.668881587544071 16.19664534223241 14.833828796461969
Ag 8.535863975630011 8.871160591394332 8.053389285615824
Ag 16.27682488684454 13.540482858000553 10.868440154959444
Ag 11.885364099072683 14.849260823891289 8.239517380979457
Ag 14.932329326739493 14.197804311417782 8.327982601626887
Ag 12.459712145553965 13.840106170423786 15.93488289481422
Ag 10.505391445098164 12.933889125012044 6.705727940989055
Ag 11.635963154227143 8.296646475983355 15.08454231120707
Ag 15.926750872131349 9.753176429821876 13.66808291343734
Ag 12.66470338992365 16.511212576984448 12.16917101708779
Ag 11.005807100178641 14.874335000456455 13.75388989834713
Ag 13.204328071463705 13.612222752869382 10.347697680437605
Ag 14.894162550391238 15.88906085704853 10.686395401182784
Ag 8.953815189030665 14.491058498144836 8.593174127305202
Ag 11.662256850557064 10.939265187993408 16.159994805420762
Ag 8.347086300525277 11.625794824141977 7.786985535470874
Ag 16.1876072558134 15.41783126480593 13.207157737962724
Ag 16.285924808361198 11.284281182020097 15.97317217376168
Ag 10.56925654751254 12.473591777925003 9.541947576939423
Ag 8.183832599153185 14.789481833974943 14.12304950737275
Ag 10.709238096650958 14.892969849027185 10.938692122850048
Ag 10.289854082398833 7.927577556496277 12.606492481115414
Ag 12.552789479495361 10.566575941608429 10.168084259998555
Ag 7.2905731235031315 10.65159668725878 12.160397153284547
Ag 10.709196065473131 8.15263071535431 9.59045319415614
Ag 14.129400767725233 9.33158296398012 15.936869315680402
Ag 14.99285648248083 8.984902690023244 11.070094056215108
Ag 12.560036494769117 9.704737783730177 12.955034758326814
Ag 9.970655899665728 10.366702225299182 11.292521220383946
Ag 14.501560800572294 11.6076155887967 11.947087780287147
Ag 9.075236819020704 12.88240844029879 12.356433157390315
Ag 17.153849279070933 10.89384568176366 11.346141845366125
Ag 12.749347134795046 7.425743822369705 11.24580220040483
Ag 15.194664937669 11.373452939870457 9.256021037260519
Ag 8.12598222171356 8.290286566037938 10.82653866325326
Ag 9.88189548901752 12.954320387187158 15.498744470070699
Ag 6.244899091682063 13.321218254724592 12.57721235607262
Ag 15.308168136980576 13.998481717334695 15.625163485886612
Ag 13.826310784352987 11.745420739384837 14.586462060346463
Ag 13.35391516404842 8.536989319309502 8.623058029439099
