5
Energy = -5.40507343 eV
Ag 11.871111240481843 11.713593326417492 16.848968596291378
Ag 13.911404888941899 11.342011805594726 7.224190405582482
Ag 12.198288197702794 14.046245602676597 15.697505856862303
Ag 11.895230594384818 11.805398644838673 5.712622830427308
Ag 10.698138606881296 11.771682998485423 14.492634332568903
