50
Energy = -110.45989589 eV
Ag 15.796164342412055 7.80451051147103 10.526950592459261
Ag 13.143047319021482 6.912845862721401 11.361728056120763
Ag 14.889346613948216 8.365274851727387 13.183734927967283
Ag 16.47138820436124 10.356129540877651 11.69733284971849
Ag 13.581817475594365 7.890798190539513 8.722047566873377
Ag 15.479937288691476 10.973903207965588 14.309452011405972
Ag 15.739243590825472 10.182703115065076 8.942087507497826
Ag 12.22182511886126 7.55879043888217 13.984078750267045
Ag 13.786627317540422 9.688498367407748 10.823468274214411
Ag 10.391952207160102 6.231810786189935 12.181009597370293
Ag 12.894928968963017 10.249514372969175 13.552371491895643
Ag 16.89932963998879 12.98455696462837 12.811221153977474
Ag 16.210105524054715 12.809618006168932 9.976186734283697
Ag 14.35382246937637 12.286823650159869 11.992589479565972
Ag 11.525616790320212 9.911690263107683 8.949163452952599
Ag 9.283535815671563 8.241694291382505 13.884283915804883
Ag 10.912140648675003 7.185034843034562 9.455265712036034
Ag 11.092954525969297 9.696596172472503 15.620197421091174
Ag 11.083960289132392 8.865278018340318 11.71686049101592
Ag 14.681953534293736 13.905795031015016 14.369327473694682
Ag 13.558772917028692 12.102445086343309 9.063509666082496
Ag 13.149146775595145 11.787097858581804 15.876496067261174
Ag 11.775455672684963 11.536876500494675 11.237362911366617
Ag 15.151439779689905 15.015290632561383 11.739550155734355
Ag 8.373109482883686 8.038577500607508 11.19550383736624
Ag 10.012794993681457 10.972181787821018 13.363486258316382
Ag 14.473711302176442 14.863676371314051 9.025880298151936
Ag 12.344532873809024 14.568494160030166 15.864742994821267
Ag 12.041443075769404 13.071921102357736 13.572040794298463
Ag 10.276145725161136 12.535903072356867 15.822514006524035
Ag 10.661549838542156 12.744171437081723 8.969666694153425
Ag 8.321888771433654 10.40115975754062 15.47693705721629
Ag 8.849122089467881 8.860773509601026 8.561515834896523
Ag 12.753484456931346 15.767365568266394 13.30395723438161
Ag 12.41528353204999 14.16651124999968 7.301283113518595
Ag 9.179814276897856 10.795567723758557 10.56048924121471
Ag 7.361128207403541 10.190254180959132 12.772776814484473
Ag 12.435759385826005 14.2168689624643 10.859363534783768
Ag 6.623452154123233 10.079665859827017 9.958494072757324
Ag 13.138023712060647 16.852123067230156 10.66478888642725
Ag 9.983580700434581 14.954688021291487 14.259219866890273
Ag 7.948344229672453 12.837142083483469 14.026337543185571
Ag 9.76393082421274 13.384009553738176 11.824545003866895
Ag 9.423849087464845 14.33268665053611 7.1375443054559495
Ag 7.845588916039023 12.319517667895962 8.53621637934384
Ag 11.03586605780749 15.849680979928939 8.961955149755717
Ag 7.059757748078639 12.65290468071256 11.243908180129935
Ag 10.403989572034385 16.128258368259687 11.656329315110709
Ag 7.759521066128378 15.193501216954239 12.453856949935096
Ag 8.511067312668525 14.783455170652989 9.7484087733368
