5
Energy = -7.32267401 eV
Ag 7.5573736498496515 8.24961072992964 10.218693497762162
Ag 10.431751721855731 8.6938117669458 6.510147280775884
Ag 8.665320106031128 7.213869578607471 7.93322127060594
Ag 9.422618280071518 9.714727467769215 8.779767648087425
Ag 8.422115562154834 10.651465587938663 11.085373934552837
