5
Energy = -7.32271219 eV
Ag 12.254614239981501 10.507470968639856 9.985199716199437
Ag 10.20445236989204 8.90166980139481 9.342656397089284
Ag 8.15351461414377 7.280961018630633 8.744222455577885
Ag 9.731208408533531 11.474734712021391 10.20717626218049
Ag 7.625902783473598 9.77948571743956 9.66171234351151
