5
Energy = -6.00215338 eV
Ag 14.0549050694396 10.732815430630875 12.789057438274213
Ag 16.24822725550329 9.445742936062357 13.366474817071259
Ag 8.039022527804736 15.108095979330157 10.121735259300898
Ag 9.817567085626257 13.56628927332738 11.244578414258442
Ag 11.882738026787903 12.101226602561248 12.091395620061066
