50
Energy = -107.98080715 eV
Ag 15.078646564636994 10.011064066548823 16.41635579476063
Ag 15.964736867324701 8.381693651439063 14.38334322306859
Ag 12.550963430551016 9.46006395944172 17.478374206478644
Ag 13.730217016656708 11.97033343908429 17.939684160039604
Ag 13.137228803307837 8.72013395095099 14.498159392583666
Ag 15.528376235976078 12.801970463972912 15.997486964756161
Ag 15.079386944309219 9.126841228194762 11.71889636732926
Ag 12.441899506795398 8.019957363530127 11.585524724540331
Ag 12.741769782235371 11.433051568115664 15.35792140073042
Ag 15.205024382963225 15.455893557922387 15.06079938653789
Ag 9.473163544120077 11.098531556185396 13.532879901861133
Ag 16.36944925943681 11.022568184884474 6.653472447751654
Ag 10.897517692008874 12.02419777216376 17.422882095999537
Ag 15.102015825084758 11.01137454740669 13.807648048426838
Ag 10.442386024982696 9.79608266651976 15.743764910345748
Ag 15.183000866247744 12.056026191184149 11.189325312900163
Ag 13.041189437475262 14.150868599230943 16.202477302663212
Ag 16.33954709839546 13.477329308159272 13.429924669690276
Ag 16.653942203894605 12.800185555032211 8.69525411372762
Ag 16.99540263522195 14.330537244845946 10.904206654602303
Ag 9.985995461794424 15.75193230580994 13.33162439828415
Ag 8.458563872806158 11.93390417000814 15.986782423781248
Ag 10.392163066482443 8.554425107937119 13.232942633872181
Ag 14.420607222295224 6.6572411091806964 12.92860825556318
Ag 12.639238769554092 16.01713135713024 14.09340718188023
Ag 11.144250649164004 18.30907540486707 13.537057916285773
Ag 6.734832605441327 11.214924852027606 13.789489984071649
Ag 10.287557300429114 17.38466214454285 11.016668793894947
Ag 13.255774476185357 13.343965105587316 13.218434735993776
Ag 14.800775062416339 15.540820527702559 12.199682627116852
Ag 7.999582921716481 9.360978457719417 11.95572981488652
Ag 12.362625251168287 10.75318398247948 12.623148639001089
Ag 10.702955387043431 13.455358244621149 14.91657526028862
Ag 12.712091283015585 16.729750173070904 8.924696537452999
Ag 12.156655913934319 15.166233236613378 11.106002714606584
Ag 10.525714908264911 13.1844690204829 12.11660166498612
Ag 8.12154923572922 13.666189837605033 13.657159543138073
Ag 13.080575454205198 17.68633288580761 11.660558862619029
Ag 15.927586593239251 10.094300270265762 9.247657242286051
Ag 14.493179035764669 14.499936979104172 9.543995028558996
Ag 7.977578720883523 12.10318228007111 11.27621778318342
Ag 12.485751337572765 12.493906326882673 10.323967433185276
Ag 8.573895134968424 14.96108767778472 11.028734955466438
Ag 10.401214515145497 10.34712378613031 10.698999463187015
Ag 13.169343180330292 9.909196393504027 9.750838512938458
Ag 10.101681065096829 15.767506486430534 8.830056923006254
Ag 9.741086318957867 13.033829355046633 9.306744835576447
Ag 14.108695707993816 11.976623352545886 8.003932144073554
Ag 12.111755469412254 14.068119903222263 8.00897391297265
Ag 11.41604032049322 11.233576069248334 7.978543559362176
