50
Energy = -108.34922457 eV
Ag 12.858173205694747 10.945442770623929 6.298595204073569
Ag 12.734682527515728 9.034055638953884 8.397557555586227
Ag 14.563542513164252 11.267842447309727 8.479055126200342
Ag 14.363788261553358 9.599358045692467 10.6961959398854
Ag 15.704847355159261 12.086291416147017 10.929852323560347
Ag 15.201579442726912 14.05772169454681 9.033209685451283
Ag 10.650425320422947 9.263951259678349 6.445027707433434
Ag 17.350659441755074 14.362357104569742 10.896618842136446
Ag 17.792698272157228 12.294521615706035 12.790861939071291
Ag 12.784840123301112 13.31317433752399 7.810067028253969
Ag 15.831918836751331 10.267344046381494 13.112372135486586
Ag 11.844321665847385 8.448843244621754 11.041507998434243
Ag 9.891833492148592 9.10451825282729 9.113984997561035
Ag 13.617014773032391 8.511172878891504 13.327776135663598
Ag 11.564301221818365 11.229328995675074 9.884709890814118
Ag 10.401984492933023 11.930235372585626 7.321957227540805
Ag 13.020448511283055 13.26214562239249 10.94205662320639
Ag 12.790525549417927 15.645327001806987 9.408971367731324
Ag 12.513106366721633 10.927312007671723 12.549339638488815
Ag 14.819726841830425 15.28891476371375 11.563111746045147
Ag 16.592790230171005 14.600187099230585 13.697973078731955
Ag 8.159899540336042 10.323370794124891 7.3208326571987214
Ag 14.511735640389459 12.666149924005005 13.49897707323802
Ag 16.58881849782295 12.139008107144749 15.323580662210247
Ag 10.568168904328978 13.914926136902968 9.304317518218209
Ag 10.211040280332654 16.512879466841518 10.21015963842814
Ag 8.69706240896394 11.846455267121682 9.65036327654226
Ag 12.528143562895666 14.559675081523952 13.521797739397268
Ag 14.30222777374399 10.440708240664444 15.400565230306555
Ag 12.496444428528727 16.842993235264476 11.937488620668972
Ag 9.72247976691976 10.127267623895209 11.807832974350996
Ag 14.507732740049155 16.508329082898776 14.061707334298404
Ag 8.375867867068932 14.417806085903694 10.965009469246842
Ag 10.85859856113092 8.37608403232033 13.689152161610084
Ag 14.822971482260028 14.357836571790097 15.875880121333873
Ag 10.438575633007488 12.87136440668823 12.261231540294053
Ag 8.236851346289233 9.370375517632334 14.035308634313946
Ag 12.571045376569979 16.019004810935336 16.00092290138729
Ag 7.644471368365871 11.914263956779667 12.254867672875795
Ag 10.040980695399607 15.82854618580695 12.872264973596158
Ag 11.958276643103503 12.137138457119264 14.99101516886044
Ag 14.914208752471351 12.122280315179678 17.572430873833216
Ag 12.52815990868672 8.350503743415782 15.9713979786563
Ag 7.932573761944646 14.296512711713156 13.745010937279117
Ag 12.530543464987712 13.610544584028549 17.380683838981955
Ag 10.173126864241475 9.778875439259917 16.029713867334404
Ag 9.076412522817014 11.910404347140581 14.647888540051795
Ag 10.340376718130036 14.403401565506005 15.321751312068605
Ag 12.444978902638457 10.761792129422323 17.488434111762867
Ag 10.075373908383975 12.301812329634389 17.268966747513495
