55
Energy = -116.6628371 eV
Ag 10.961942601232316 10.578025543610256 13.551829642398914
Ag 13.69838631443357 7.353076519172847 16.923722778541855
Ag 15.700922356157415 10.67485654069088 12.05996952086344
Ag 17.535193954217903 21.00662713239014 17.101713836206837
Ag 14.09518072169465 14.410185285943712 15.31770724927721
Ag 12.817158594098784 15.845411437459752 17.5075465062298
Ag 15.811500154420692 16.393099937867486 16.489319792062062
Ag 14.824133946658847 16.778247223038605 19.18473038887895
Ag 17.04038451191124 8.719839254229676 13.674883393614582
Ag 12.07995622597718 17.01157765366834 15.109902006036947
Ag 18.54836318212381 13.481214571352194 13.922808796957254
Ag 13.457206393339929 17.243480870354684 10.455612852903402
Ag 13.910017817315799 11.65855914520814 19.300350033419143
Ag 20.650567274821796 17.512626763203823 14.526683991898508
Ag 9.30137168816702 12.958385506024252 13.815012520853383
Ag 14.769998657529237 17.705251895229118 14.163648740060342
Ag 15.492502623704889 15.356383741633676 10.870789090743552
Ag 12.045753517142984 13.281623821754975 13.722158671886737
Ag 18.45446240563404 16.09739694787364 15.329617958712227
Ag 16.71329710524907 11.440272669132304 14.593803751671139
Ag 15.265970878969936 9.267174890352651 15.710357586198427
Ag 11.644125177143014 18.03022330831447 12.576851147572556
Ag 19.967623302104148 13.193607200811057 11.566845577742045
Ag 15.017485954500357 11.838556684401349 16.74413830731916
Ag 10.54727524422459 13.363953096812553 11.30265164005574
Ag 13.752772923487017 18.397625758156106 16.92642718892733
Ag 12.765059467287129 10.144334040080093 17.000071367157073
Ag 13.781173628139296 11.12188871049063 14.24890502497844
Ag 15.18183574638647 14.162904301093663 18.206555403006945
Ag 12.702855567668813 8.559557052292424 14.617442603095176
Ag 13.134093628632066 14.4260761186548 19.943958915209578
Ag 16.373629282855283 18.73247148157036 17.947734315442165
Ag 14.828765705920478 12.418358618287519 9.973157867202923
Ag 19.659906992607656 15.706139927997507 12.799131475517152
Ag 15.873344284140158 6.6947921982199405 15.194462659822792
Ag 18.515157007401815 10.942971594268382 12.527684448682258
Ag 10.396085601110803 15.550510120913193 13.21882812641263
Ag 14.692560010119106 13.288482347309278 12.69931204482894
Ag 11.307386651143869 18.93075476184157 9.948777975082077
Ag 10.771435221120509 16.205516560504716 10.539268080575308
Ag 12.518961080914215 13.054345831752396 17.442012079110572
Ag 12.760104535495312 11.434041872542917 11.608119155807753
Ag 11.950372545506337 12.152610759572198 9.101893695799623
Ag 13.350976685882154 15.72610898328479 12.813746521961805
Ag 15.484377430749339 20.088998025860107 15.57958743115266
Ag 16.89582080010275 13.852927580414553 16.06019177028918
Ag 16.346108012081185 15.40813450981208 13.626100549968324
Ag 12.935518142580046 19.718634393573208 14.501508566180494
Ag 12.915095364208964 14.444820277065498 10.262110777992083
Ag 11.980203973910898 21.514846369877212 9.568114579197228
Ag 12.925210437030596 20.349513951242223 11.821246175975231
Ag 17.194825379093906 13.223883172227294 11.482791360221299
Ag 10.5165585468539 11.799537032866425 16.058003838192754
Ag 10.80083764549264 14.61655869071814 15.876668947503159
Ag 10.303159171133816 9.097969388808998 15.848503344433924
