50
Energy = -108.19349072 eV
Ag 7.637175755435589 13.939191649536175 8.735870236791543
Ag 8.67768353674023 15.296018914760719 11.000189653856179
Ag 10.40735818770954 17.493070352026145 10.387208657307408
Ag 9.97811765368404 15.507594901174519 8.404369352131107
Ag 7.7673662662586445 12.66960712417566 11.425528696939756
Ag 8.276248258274245 14.461440680275121 13.713568997124423
Ag 8.045880974801817 11.22755822912333 8.848909917065535
Ag 8.794275297124477 10.85390836820904 13.367242330024629
Ag 10.414890928563434 16.384993557825908 12.960749927693247
Ag 12.592745814851495 16.610810250638778 8.749879816350905
Ag 9.821977506037552 12.833911295605882 7.1099442582811205
Ag 10.088397491339771 12.96575978370029 9.834362330639943
Ag 8.754965168416188 8.576623510194276 9.047215624117085
Ag 7.391678556428837 9.779284234138245 11.165029626888732
Ag 11.608463639166075 15.021413583168599 10.835046075326352
Ag 9.533423318431705 12.466781839947371 15.45784425646675
Ag 13.135585392142069 17.145721780405598 11.565589364823994
Ag 10.20639747646329 10.4024226452858 10.838777636081966
Ag 12.301369108233553 13.784889682783646 8.23308471540823
Ag 10.426933448853019 13.130438496259318 12.731847387671928
Ag 8.550157415612832 9.860091783574868 15.99397482774873
Ag 10.775917992726352 14.966166601957998 15.265386642824902
Ag 11.674699773940384 11.021819226331964 8.48525861992837
Ag 7.5216233241099 8.439690574886754 13.736731147957876
Ag 11.702177800577509 10.53689723175953 13.202434001648848
Ag 12.832393621764005 12.532473450595912 11.397764095750466
Ag 12.323098429499993 12.698239405117825 14.9524483514979
Ag 12.962157095893966 14.919755478031401 13.359716111382696
Ag 14.288145473444695 14.749252563654117 10.125717799923425
Ag 13.264132289189547 9.90062458678295 10.793780053828167
Ag 11.448850280081231 8.197992564094005 9.53114491089492
Ag 14.371669939566765 11.99616104808196 8.907172621439905
Ag 13.730030568442851 9.214703795087008 8.112723639231184
Ag 10.308789404050708 8.364049178006155 14.389712274997903
Ag 9.459072212546735 7.841359657295146 11.700038833798985
Ag 11.32855342202461 10.390069421663801 16.148911176140697
Ag 14.438331043145244 11.105906812636862 13.550641810921421
Ag 15.822909313097904 10.95050795481365 11.11561178761367
Ag 14.12825095626534 11.094913853801426 16.34863560717628
Ag 14.784253697757384 13.804756884244158 15.267069598894667
Ag 15.352447751017083 13.703834795168772 12.544761122017132
Ag 12.198571450012803 7.743926978256006 12.368043624485486
Ag 16.691489687921425 13.374129499806665 10.07458451987089
Ag 14.012062924349575 7.27033793854904 10.227115689888034
Ag 13.13334069682082 8.683062335437059 14.892167982173106
Ag 15.823315254099802 9.082296103270899 15.321768004104786
Ag 16.709000920831972 11.790242642168408 15.068275067518115
Ag 17.3185948810714 9.791049102769067 13.141199286449082
Ag 17.810171321665035 12.422746555297085 12.455159777683647
Ag 14.953007892396093 8.407303228784825 12.64020330484661
