52
Energy = -113.90667425 eV
Ag 15.795292117484212 15.132132763090581 10.534235699763881
Ag 16.0367540677105 15.135145921606963 13.40679828539704
Ag 15.137646769797511 14.093611043215178 8.036364142553598
Ag 16.708221370187903 12.342816398813989 13.192199327320814
Ag 13.862273810026132 16.467752927844487 12.050664082739283
Ag 13.501055068195571 16.101872696739242 9.151427604746738
Ag 15.795146618854773 12.285105574084843 10.226893085937293
Ag 11.635853706633622 17.541050156377835 10.720080407358022
Ag 12.371255647710926 14.344175426076038 7.279935434168801
Ag 13.524106890972712 15.660562624396437 14.751113746011814
Ag 13.263983091280771 12.340153224283837 9.012329584358593
Ag 14.190159137794677 13.516033774689063 12.223765160697027
Ag 14.144057954316306 9.844050310167795 9.743221347064237
Ag 15.629572484149625 10.52452958924566 15.205311526866785
Ag 14.636570619556569 13.148820184382096 15.027294459487912
Ag 11.316144318475358 16.558278926649628 13.309663116503444
Ag 16.916660614443323 9.285062899348393 13.083741165959907
Ag 10.598034008974638 15.931253497217071 8.722550436074101
Ag 11.833912175021549 14.661398869434255 10.981007856397008
Ag 11.431954581624101 11.69006594545394 6.991657183915982
Ag 14.708941107674715 10.697473985931513 12.362301862270272
Ag 9.294800174094133 16.104210104431218 11.445854015069251
Ag 10.426701197755927 12.76519891175971 9.398737386979999
Ag 11.781631862537742 13.771176310340271 13.680493667804477
Ag 13.90531497910243 11.567642083494864 17.196246357169
Ag 9.542120465465091 13.858720929636453 7.032028725575787
Ag 7.162290147534807 14.370131842356727 12.044328917458047
Ag 9.165898998597386 14.84945647609064 14.079267739268749
Ag 8.82471116976878 11.10432592002759 7.932672096752854
Ag 14.999849105747291 7.76567086926186 11.457913234686742
Ag 11.95601776546266 13.279620039640564 16.34818574502405
Ag 12.686319870573012 11.057617628927828 14.360267133069645
Ag 14.535294021100157 8.093521682670543 14.131163969470276
Ag 8.12453332098182 14.856518000026986 9.287705874344505
Ag 12.539188944895315 9.055459134825997 12.006150002732536
Ag 13.799919383059185 8.893197208513207 16.66755777767346
Ag 12.103600542126413 11.77324654618866 11.545114788695017
Ag 11.350851865462815 9.901985669770813 9.270271638764628
Ag 12.710179678433098 7.3455713105890394 9.809544250918439
Ag 9.604134741686003 13.035731003912522 12.021117125032935
Ag 11.315026674311348 10.44991957079517 16.713738840566716
Ag 7.462444613442642 12.359399489230839 10.14708197985934
Ag 9.738776732789438 12.133095144325086 14.926231883465672
Ag 11.831009841042574 8.276450214120727 14.865669022102022
Ag 12.506174575652944 6.433982988126176 12.675512517918664
Ag 10.2265711266009 10.169972874366202 12.997480249027163
Ag 10.238550609677512 7.736011177369708 11.048610783034134
Ag 7.602501999924623 11.417266693942834 12.91759691574721
Ag 8.86343356871674 10.088770958595113 10.53928579747665
Ag 9.179499021465123 9.14220601906194 15.320565241767117
Ag 9.857203931822811 6.861586226635691 13.676217520033681
Ag 7.9331981122861075 8.61156140732363 12.747458698381797
