5
Energy = -7.3210942 eV
Ag 9.929478291524807 8.902502376445833 9.201469183759915
Ag 5.909025490965454 6.763307770445936 8.128728603335686
Ag 9.71250391779293 10.305862510837377 6.885131416086572
Ag 8.0599762238218 6.959833323729259 9.761407431241576
Ag 7.831859036727525 8.499716372484617 7.477482803649512
