53
Energy = -115.86767219 eV
Ag 14.815271159118616 14.728300262344142 16.242293175659036
Ag 12.442981578494411 13.124257534293987 16.06259847797468
Ag 14.894143399570876 11.958013698116511 16.756802002441425
Ag 14.821266058046081 9.224935764793393 17.428023301373937
Ag 9.898866870844635 11.705313188991397 16.29298896646617
Ag 12.680446113227688 15.428339094870198 14.553724086970876
Ag 12.421133989688032 10.458807598786905 16.796918247475894
Ag 10.287263946745362 14.050109014561988 14.548776927726584
Ag 15.174542188780304 16.285312209580617 13.909502544552682
Ag 14.527116348127295 13.021330988526477 14.06917701972645
Ag 14.604711449812651 9.990754681280867 14.761338283135487
Ag 12.64337277677591 17.41794412670648 12.64581016926958
Ag 12.948305832058235 7.816031480049226 15.93136774282646
Ag 11.492408073302512 11.313180713734187 14.038969727778515
Ag 7.750413075909597 12.9943379317346 14.86677015111733
Ag 10.303350697907648 16.88661447097699 14.186385288447822
Ag 8.637511136672169 10.514912667256294 14.037825086148388
Ag 8.177752162568977 15.246228738091437 13.1426781153579
Ag 12.220543071356524 13.549653839005193 12.420362661543184
Ag 15.053601270648084 14.562235306688294 11.665585254943187
Ag 16.21952037127959 12.030240743460048 11.912683819728981
Ag 10.397327850085372 8.952469578758103 15.620831480811571
Ag 15.074689206370154 17.392236685245525 11.378302542839052
Ag 9.149995692784131 12.670941501187894 12.312867284124009
Ag 15.83270446815684 9.208056031213852 12.20327861433619
Ag 11.133331037120092 6.515371557126832 14.209206728662961
Ag 8.235043862919754 14.831560566770928 10.361554421542195
Ag 15.515428833885219 15.891804886825318 9.141888831905742
Ag 13.698141722002378 10.94101454846036 12.327649762618192
Ag 13.669705838202978 7.768994343567767 13.27299685261448
Ag 12.89312606036029 15.83556858569398 10.275410490980288
Ag 16.234418534028322 13.223417783333998 9.351703428461011
Ag 10.99839270545316 8.832142554359931 12.727485562052685
Ag 10.471911275282661 15.930925396832205 11.617307929420615
Ag 10.702902174135822 13.57651871211156 10.065641911934666
Ag 13.43991993233856 12.813441129336994 9.99410682698436
Ag 7.580692971667467 12.103216235804439 10.071442896884097
Ag 15.235689422181238 10.601062000321274 9.693923497673747
Ag 8.529940093851037 7.776818430560205 13.928201513978708
Ag 16.000809936278092 14.488460805989812 6.811292664337813
Ag 11.262863212073476 11.077975817174531 11.111065213213639
Ag 8.687983969960735 9.791653591274747 11.297676384766014
Ag 12.018448904199706 6.439286927604214 11.461113713694184
Ag 13.48171451929279 8.64972701693844 10.621395098933272
Ag 8.85486919510269 13.574681882928374 7.932570824865707
Ag 13.364338121987245 14.904861074929729 7.642184009636007
Ag 10.726318745270332 15.72270228523094 8.434496424897816
Ag 14.40057341596704 12.228439647293621 7.3945210501706855
Ag 9.269030856290305 6.934282365384345 11.453773586441603
Ag 9.766725748042516 10.960787293640054 8.74598916166881
Ag 12.598888431383926 10.39074524535 8.562064917250014
Ag 11.579906993938014 12.810258744453506 7.511333651566202
Ag 10.822361177864513 8.535359215838259 9.74897490348149
