51
Energy = -111.18671272 eV
Ag 8.870622399267729 11.515218985039652 15.99629255925472
Ag 8.470441265114275 14.032278186854231 14.71188262495858
Ag 11.705076487775008 10.734562076292313 16.046264544626244
Ag 8.23332228633165 16.3369931764471 13.088358293321749
Ag 8.597596654448951 9.910627725174924 13.665657189841115
Ag 10.76930429199034 13.505647722971176 16.3584951155677
Ag 7.435946871622203 14.634012515980311 10.978513681839132
Ag 14.777459530797387 10.356832580144813 15.686473293466793
Ag 7.90621763039443 12.37258056158414 12.523058131843461
Ag 12.650569932424315 15.572510826972522 16.513257700460187
Ag 10.46011477709398 15.993084175028043 14.852181469220398
Ag 11.073195018310948 8.561511082907224 13.52249342243882
Ag 13.024706382056815 8.27432555762079 15.396360109922238
Ag 10.473011471259715 12.075845537039793 13.84437191912981
Ag 13.590495369373004 12.850753621866618 16.33598197689476
Ag 10.691766099761745 17.677661021077807 12.693635799776596
Ag 10.011510601301293 14.32450223065502 12.225569234661318
Ag 15.731978828890503 7.784109257699963 14.68068998468251
Ag 7.641478947942521 10.17499455423895 10.853875307355969
Ag 12.965212168373549 10.79831327654371 13.531523229901508
Ag 9.595038667669677 16.45532202268091 10.441505009231772
Ag 13.110101359995111 16.79972340280538 13.876289912108673
Ag 12.502211732710308 14.039403079658467 14.006584914687336
Ag 8.512857951496276 14.789338582326346 8.397065670317893
Ag 9.014499591788807 7.913783809658294 11.732234675750243
Ag 15.00479408054313 15.085604819947898 15.112333233903747
Ag 10.463761121873967 10.498182546096594 11.486725840497687
Ag 12.266360153571938 12.708376401613142 11.495685889544605
Ag 12.290342994404964 15.808480111937799 11.353354561943206
Ag 15.605657423222365 9.95437541182983 12.932809387616258
Ag 15.241716988315348 12.55511396594409 14.015582902845072
Ag 8.995017965186301 12.415422859475596 9.8638175837108
Ag 13.345668226836906 9.998769341024943 10.8479151204697
Ag 11.12551309135076 14.29275986598456 9.334642049921309
Ag 13.655058828371851 7.6825779669861625 12.75537518172446
Ag 9.673173324346575 9.03072064472286 9.225823270533267
Ag 11.617606758272304 7.590621798678356 10.8489947350739
Ag 14.682282082370756 14.762271173171579 12.350704084710276
Ag 11.61031028845764 11.321345213543125 8.994538977437376
Ag 10.048761268348182 12.750842862574096 7.200039077584541
Ag 16.161945264907718 9.719179654908642 10.183342742434766
Ag 15.304676790322981 12.206189819011934 11.233430978908775
Ag 12.272383295741191 8.499804368870484 8.288319667043101
Ag 13.978067243969754 14.121967866472863 9.709029369315022
Ag 16.34677630011925 7.464430106944727 11.944991048125186
Ag 10.421158225985668 9.96118667177668 6.725236716844288
Ag 12.87867206647942 13.327280000259591 7.2920880388402525
Ag 13.10099523638067 10.660497895402255 6.589470450010327
Ag 14.310327608337555 7.4423917786406415 9.99384869061159
Ag 14.879380852567467 11.71942375825653 8.5242999320918
Ag 14.971301742912754 9.015363814494322 7.782075910925893
