54
Energy = -118.388452 eV
Ag 15.383954457600918 10.06321699848049 12.361137080584674
Ag 13.64176244108729 12.116633897893019 10.954481296898992
Ag 13.383195164160893 11.76205732456134 16.760102447310423
Ag 7.368551452148168 12.801690216123847 10.313908676167449
Ag 14.728916799944589 13.959925902540567 15.615216540152247
Ag 15.09672609011574 9.912041871920986 15.209237452551799
Ag 12.022186546658558 13.961099737990176 12.507993870547605
Ag 12.261124846569077 9.667252253749846 15.121521545821734
Ag 10.496964102723041 15.930947998439112 14.255148581835844
Ag 16.5849517552612 12.33790417841424 11.240393685988614
Ag 8.339014908469899 10.761685767882927 14.82288546196472
Ag 9.811605388523144 8.798383631839497 13.333508659530997
Ag 9.235754793661357 13.912001024912312 12.28983050245654
Ag 12.29297104616853 13.034586720333099 8.513260685090957
Ag 16.33524723932415 15.039145416240407 10.449781767609712
Ag 8.455950571605952 10.635478297785246 9.005824836590817
Ag 12.465979332729287 10.065032155201912 9.248193950353944
Ag 9.357609624046416 13.24577483617317 8.28371349952648
Ag 13.497106357396966 11.901757670641874 13.871671636915195
Ag 15.21620131380474 13.062994014386216 8.76930211517618
Ag 10.67982201860998 11.102470194684324 7.211764726253259
Ag 10.661126580264392 11.917981378264995 10.616680772976643
Ag 9.164662074357102 13.53699412617795 15.219888218233981
Ag 6.978135225588785 12.77100581860743 13.341659553297562
Ag 14.15926860848846 8.102009766049093 10.731635358604812
Ag 14.846195144450093 14.151328123581553 12.75812022184719
Ag 16.439283386844465 12.131012275748832 14.08597169735162
Ag 13.300876954978028 15.982300726966407 14.340467511261592
Ag 8.282142206118168 10.69728160355958 11.907203027838229
Ag 14.730944150767561 16.831868191629773 12.020965884475006
Ag 7.723594136653716 15.651663079112533 14.208220586373365
Ag 13.561682702185616 15.003925550875103 10.196786219464164
Ag 17.55641888240567 14.425658727306505 12.919534810268223
Ag 11.89458505014106 13.946662102008727 15.733053292058104
Ag 8.092430182379537 15.419900552887237 9.447747862822203
Ag 14.019306289006266 11.086816527228429 7.201642931568865
Ag 10.62189424116895 11.534203413976604 16.46764205622694
Ag 11.950522080357148 16.76262636229268 11.95550840695755
Ag 13.936779402642234 7.957168925623452 13.552562542556984
Ag 9.991979103949822 8.851816063445787 10.537138634022485
Ag 15.578355430193012 10.359006026905316 9.530994783305895
Ag 10.773556372178827 14.925108796068008 10.04339057870354
Ag 9.151927092667032 16.668386314581326 11.848656561439597
Ag 10.625500930058699 11.697673857180966 13.529079700163756
Ag 12.284685678968806 9.873789276682796 12.101360240453191
Ag 14.523007248389623 8.316887893116824 7.973689557312338
Ag 9.82563660358665 8.79867801920186 16.159032814834834
Ag 9.761879885069671 8.504820066250533 7.80335767511597
Ag 11.986888712664094 7.305533616391632 9.060514316259614
Ag 11.455812370086699 7.0070203179591575 14.647116782088284
Ag 11.760400641681645 7.086943104055993 11.87609941922725
Ag 12.232431401715418 8.917003872572899 6.585124996320721
Ag 6.670837378221988 15.083437542406791 11.75000337060121
Ag 16.165397452013288 11.911377133000437 16.862993086013486
