55
Energy = -119.58150849 eV
Ag 11.372653944596344 15.84803195228429 8.733982726564376
Ag 15.21694984548093 12.125847524327865 9.694190471308513
Ag 13.386320731102229 14.203456474082317 9.607071085011894
Ag 13.930636458720798 17.034806932697887 9.272187471159988
Ag 16.00660205865892 15.098284059544032 9.498002326189141
Ag 12.288377462974353 16.20938162703587 11.323456050339532
Ag 17.057180499797393 10.18339771681224 10.52941083490352
Ag 17.792816826397633 15.489059939927827 11.676627862205315
Ag 12.769198711760987 12.006405487160709 11.305379793036824
Ag 10.799119718882418 13.965075544599229 10.785812366183473
Ag 13.983777860624185 9.676492687766562 10.06737228341557
Ag 15.301637389565391 13.822906119871387 11.910959520561054
Ag 17.822383238553837 13.051021742927524 10.19321282579793
Ag 13.378194120872312 18.7320382337589 11.841178629138481
Ag 10.499631462498469 12.519729313745374 13.154044575971684
Ag 12.702243592496808 16.896098298131175 13.909105256559975
Ag 15.288244723188246 16.78869700796376 11.748188195429785
Ag 15.048615660567902 10.730565063150214 12.340244696929789
Ag 10.332886220438224 15.453186474276025 13.238341724281062
Ag 12.838897234429817 14.019961228901371 13.473979388952614
Ag 12.784597547286726 11.033455941588908 13.955383507577727
Ag 19.76898954665234 16.080793335206675 13.794016364087163
Ag 17.334046528422874 9.342536066025009 13.305003490230645
Ag 19.767872546900186 13.648995890933191 12.277594473272131
Ag 17.80197384582999 14.21487070250226 14.280058492368441
Ag 14.868537647806408 18.539176963157434 14.297138974904641
Ag 17.305724990408944 17.33225505017425 13.7081907462626
Ag 15.153288279847335 15.455715568114552 14.250164181555812
Ag 15.170652579111938 9.80290513951392 15.021487063301311
Ag 9.044779822915796 13.907743782085168 15.155917313213367
Ag 17.08051687307254 19.012673090438003 16.00781844652038
Ag 12.816775627940427 18.252910783611057 16.346074607896686
Ag 10.33003850496135 17.806700316528588 15.094537930189084
Ag 11.440214399202782 12.587781053792138 15.843311916474626
Ag 15.184297747672682 12.63760166096019 14.487950669319323
Ag 12.892464400285993 10.186674351491153 16.595211867693507
Ag 17.601702413474836 11.963598022813699 12.672406579290874
Ag 11.332517541227109 15.372888815615777 15.93040086972429
Ag 17.524968239153296 11.520929161477186 15.435472694111699
Ag 18.117049138266527 16.327572929645 16.177259634312634
Ag 15.294583547389685 16.82851948803035 16.621741115887264
Ag 12.000377163579495 12.028473685097557 18.456101553098637
Ag 15.276142118872405 11.569328473122729 17.210390307787932
Ag 13.77962097374885 14.162982462569047 16.56546548751156
Ag 17.2869850267832 17.711785605634883 18.502418326749382
Ag 14.958690774034896 19.251816395152467 17.937192792367284
Ag 15.78863149809518 15.417018858542574 19.01661458960842
Ag 16.566482039350113 14.008342098235756 16.764223596395333
Ag 10.693168722020287 17.22055859829069 17.877103178251758
Ag 13.274767482549548 17.238822667315848 18.90340853345697
Ag 15.423729849749272 17.683552900321025 20.579829464834667
Ag 11.97033960122177 14.78804118521601 18.673122290780277
Ag 13.990821706721317 10.239850040393552 19.23200464820225
Ag 14.356229186749461 13.109753898364032 19.32671801182905
Ag 13.705861171012486 15.362738433001219 20.899325040918193
