54
Energy = -117.68940318 eV
Ag 18.223680074387076 12.881896311329069 13.443972202615354
Ag 16.993125547176525 15.413278278360165 13.370524429663616
Ag 15.498782457987087 17.274204034169905 14.689395319922017
Ag 18.04167137484247 14.234240201257757 10.92123285620251
Ag 15.836278822745845 13.399084368171243 15.074156633879591
Ag 14.439293366755292 12.855426965941925 17.551273947300107
Ag 14.182072050753545 15.501679939710124 16.36027448524565
Ag 17.45384391951093 11.500516842804533 10.840606998721066
Ag 16.445944855970474 10.784043661556524 13.48438021800013
Ag 15.66523017712556 15.744171670858773 10.867706451787786
Ag 15.678145780215154 13.1571570744876 12.229025442479726
Ag 14.560532084775685 10.876113640960234 15.581122700265526
Ag 14.078249730350969 15.203004720764142 13.442215480982803
Ag 12.867460516465858 17.69937360324362 13.924360963717964
Ag 11.996933530077172 14.248497509336513 17.734038473392342
Ag 16.389720550741117 8.999528408561483 11.227749792647055
Ag 13.317581668393995 16.963586649684277 11.264699126173555
Ag 15.804417717725883 13.356488262334183 9.345555991469084
Ag 12.895702514610353 13.235173125443367 15.252071286729706
Ag 14.510227252135381 8.895350760844991 13.372643045681299
Ag 11.515804715087532 15.689015388809233 15.299930382662303
Ag 11.89805994460506 11.350600535593756 16.98039222916315
Ag 14.458788341365675 10.983369817168972 10.449418605270282
Ag 13.364376227195661 11.577010156297538 13.021080360416304
Ag 13.628990001700329 15.488159228801093 8.803715373114768
Ag 15.428996814461456 6.563889874121934 12.153588348406767
Ag 11.084868052256319 18.54100703375231 11.864868958369224
Ag 13.72361570223833 8.244486094850304 10.661190286761245
Ag 10.217875926534358 18.174937132948624 14.635166238591912
Ag 13.34025081121394 13.714282643797082 10.820036516322654
Ag 9.890625317404302 16.228959892540043 12.711524156616669
Ag 8.758149178330818 15.887147536768197 15.408389001759955
Ag 9.929466785328549 13.280968485757784 16.064933400112462
Ag 11.569816902635583 9.201765850652142 12.212754376484872
Ag 11.540443214505125 13.972784332422748 12.91469895152434
Ag 12.778712848290018 6.75301907940671 12.97541613984494
Ag 13.47540145773493 12.40839443134211 8.216480523679396
Ag 10.64649059848088 11.46866856456042 13.981348900713245
Ag 10.959989528426584 16.257853959704846 10.088318429535873
Ag 12.332864510994025 9.355123634056516 14.98787955074898
Ag 11.247580778619325 11.814735343913382 11.127556370711078
Ag 7.935824751050514 11.52883345858443 14.877323940068298
Ag 9.74578798074681 9.708938791180637 15.984863460376001
Ag 8.717318651764764 13.836169993900826 13.564767519393675
Ag 10.480571215167295 7.453981965555998 14.287885854320296
Ag 12.027596182092115 9.87758516848672 9.207014033407898
Ag 9.414432762048365 14.083277567444389 10.852397067625818
Ag 11.174166337709032 13.87922382361007 8.692602020743188
Ag 8.45004893494739 11.650610236148605 11.873042616640328
Ag 11.123979458515258 11.56603997347772 7.091811645634082
Ag 9.31926864346083 9.31130609979965 10.539811226377278
Ag 8.751286399422828 9.298138907779805 13.275017487813384
Ag 9.211433318126577 11.842306305988831 9.130991709709837
Ag 9.608895045931328 9.37470879872835 7.809967625336164
