52
Energy = -113.08634657 eV
Ag 18.79724766383763 10.273820493463534 15.785623106083905
Ag 18.283598399739507 12.602302806471712 14.361433701334027
Ag 19.09345697967671 10.313778110556779 12.982692314188197
Ag 17.391104722731015 12.36207502422788 17.07442878743122
Ag 17.217749298152036 14.458379817488431 12.618254581637915
Ag 16.847282101722428 11.616444896132919 12.038395268650088
Ag 16.42366123458888 9.605783347803307 16.976150741690212
Ag 16.318490058816533 13.533670080433142 10.055721708982876
Ag 16.6304996029605 9.561862039218111 14.130532186858144
Ag 16.695026238213135 14.650093589887174 15.38943930295417
Ag 15.681524998748651 16.15636427049519 10.953700048100869
Ag 15.443783892435937 15.409512972736211 8.23718429969739
Ag 14.364659057545147 10.412624816489872 12.670359285897101
Ag 15.444057380522326 12.107011871217685 14.954201161131168
Ag 15.43816532884537 14.263166161656008 17.83333083106891
Ag 14.057468108213017 9.6557464450586 15.53244271447366
Ag 14.47717296936223 11.475826909946344 10.151230365802041
Ag 14.605829444504337 13.339109454514833 12.496496601872106
Ag 15.039248516831725 16.062300990063132 13.633245138242373
Ag 12.772477663882215 13.584595800241754 18.30468056193684
Ag 13.922264931463202 13.119010060951402 7.973082138111789
Ag 13.87978677336768 17.532152553824666 9.129301336433164
Ag 14.787640894914652 11.580968382917026 17.89879127073739
Ag 13.312194299363483 14.754289420575391 10.16086214852414
Ag 14.800978085150465 16.668282830638773 16.41195024518549
Ag 14.464267398508941 7.787612340104319 13.460084319790045
Ag 12.26276949250315 14.798361391229262 13.00022959139016
Ag 12.7898085058274 15.677119620104747 7.285874495538733
Ag 13.668881243160815 14.308512128313758 15.54521868502696
Ag 12.00822036937018 16.011028573609863 17.068255882148065
Ag 12.627400061215505 12.081845363139504 14.239979049354387
Ag 12.257151180915338 11.179004845768683 16.96207433219062
Ag 12.626603207114115 17.145198284226726 14.576912792907745
Ag 11.161303151733266 13.795519487120849 8.387755810779534
Ag 12.199349627551879 9.777139884323201 10.789000222867466
Ag 13.168454427859032 17.193646902575445 11.786125973653741
Ag 12.090748328036213 12.483832483558714 11.343437632016789
Ag 10.044151134349766 13.162657246015117 13.45727853550854
Ag 10.891049950791702 13.505291229485755 16.191132776770857
Ag 12.01621968994694 9.196667672387612 13.58852006040708
Ag 10.419789639313565 16.90652642997217 12.194977993349056
Ag 10.021980297166829 11.655283777564073 9.700870460018995
Ag 11.240933975909352 16.626659862916252 9.496067487125767
Ag 10.158211345675682 15.828032016028002 14.807428601105899
Ag 10.253422972967861 10.82442638133927 15.087354664638552
Ag 8.207959281037493 15.278515909572954 12.79211307948926
Ag 9.930430423902994 10.553991586440482 12.26072566726367
Ag 10.079335471978466 14.45074019672383 10.826482612269118
Ag 7.809847429171373 11.40481323240691 13.923890737793853
Ag 8.116297271803267 13.920920378694682 15.345043343905976
Ag 8.007985641454136 12.706425953888916 11.436840720769354
Ag 6.121034422193897 13.521836231698865 13.38526580618495
