50
Energy = -108.3953976 eV
Ag 16.54032721430829 11.785851030106432 9.289243247486521
Ag 16.876378449179054 11.809092700778798 13.92480004863622
Ag 15.94261845587573 13.083605274093895 11.628614767835758
Ag 17.902554882065125 10.64281667006362 16.2513933116628
Ag 15.12983254015624 14.434403857819884 9.2033768813463
Ag 16.334631457880825 10.176355665192737 11.609799263274878
Ag 14.929899468350209 13.904047657682515 14.104710717344876
Ag 17.263610460238347 8.979981275562816 14.026602796543441
Ag 14.233766950326592 12.141895023346505 7.755976995433332
Ag 14.032582706714761 15.217072848775612 11.698682255585274
Ag 14.4099010149485 9.973528656176482 9.593225134265456
Ag 15.948162015964606 12.714857789503851 16.460055877805186
Ag 13.509240596053031 7.497801630731265 10.928949151933049
Ag 13.23820103256354 16.63323061436492 9.371082595927133
Ag 13.321265738731896 12.625452639925562 10.500505507067087
Ag 14.069905063499428 11.265450271781006 12.961184045029075
Ag 13.865556496598412 14.642003021250895 16.595591561888398
Ag 15.290146429542938 10.132792270496125 15.567097953951219
Ag 13.22699930687119 12.096852040630646 15.65665097028202
Ag 12.438973658638545 14.195264492384696 8.167420799900068
Ag 12.866250367512045 15.916088390454451 14.265184480432378
Ag 12.228339864268047 13.45618134056588 13.027107399439558
Ag 12.178491497445632 9.904053982213474 11.21697487860903
Ag 11.231042988122674 18.64452981128074 9.684883580365797
Ag 14.576818617832425 8.516867415472348 13.288399451362563
Ag 12.738198904253382 9.283890667059152 15.46048705191639
Ag 10.55265463162097 16.29913457468935 8.343977865286748
Ag 11.287612383600248 14.897216313134283 10.733350225057317
Ag 11.990279435190173 8.640170370303386 8.742356062272325
Ag 12.018829284076233 17.331074641458795 11.961356536375868
Ag 11.628090166397927 11.412400793974635 8.619251779052185
Ag 11.190714697925237 14.142224230848907 15.731064248370396
Ag 10.489349881433357 12.187156321880765 11.130386093527662
Ag 10.531335785952793 11.393697185842298 16.276507242534322
Ag 11.847110757544609 7.741442547819511 13.280715566529597
Ag 11.244843876467261 10.792065964719018 13.652870140557452
Ag 10.143156750064735 15.691184421005714 13.282494711760929
Ag 10.627423136593567 7.308598111275121 10.813613298683505
Ag 9.556968566918316 13.015881470605748 13.729073188710538
Ag 9.727141464541115 13.700184748465755 8.743453956346434
Ag 9.299313144650682 16.897005701204023 10.853719789926162
Ag 9.554682296051947 9.833263123383935 9.937565315153206
Ag 10.066989134136598 8.679966806867501 15.289541833552233
Ag 7.701338706272186 12.026006604343616 9.45970007325041
Ag 8.39900669110146 13.248058855187649 16.18951328761219
Ag 9.286435042502992 8.954653395439395 12.633722321369095
Ag 8.404749424472838 14.21441057164391 11.383883600300079
Ag 8.227980931814693 10.766822586194747 14.740786249857834
Ag 7.932145908616408 11.331290204952873 12.036877730912746
Ag 6.865007894617852 13.315443504684982 13.734102126912903
