5
Energy = -6.29701568 eV
Ag 12.111325347613047 12.097948868012596 10.881092340787253
Ag 9.759412511625001 8.033014876933954 9.150918282405076
Ag 10.141898678661242 10.455357024187002 10.11965011348034
Ag 9.989140828054396 13.28066350238317 9.919803914275484
Ag 8.110811779677126 6.218732235518713 10.065049870896955
