51
Energy = -110.91753467 eV
Ag 15.782213330059939 9.476825532004511 10.374373525844327
Ag 18.44092346430181 8.895130438625582 11.171306584901469
Ag 14.547542736339382 14.135109441864836 8.683896944786143
Ag 14.389923076965148 11.170151773659763 8.505916780903965
Ag 17.918833122930096 11.454719959105711 10.279603363451205
Ag 12.308076379312906 9.937263190019 7.025668413183616
Ag 17.309733205934425 14.068251089584106 9.558297492755774
Ag 12.260124217491965 12.74901457863971 7.520908168234862
Ag 13.285353572855348 8.711357375368626 9.389095918332863
Ag 16.48793536531192 7.908592419175509 12.812953405856835
Ag 15.392218991457764 12.42679401933015 10.758560192396502
Ag 11.788998006529816 15.325119825412843 8.649040266579982
Ag 16.835795699165097 10.647090770792383 12.762730081377875
Ag 10.376991941063373 8.564059297745896 8.751605069117485
Ag 12.539281943905552 13.30048775364798 10.416512305515415
Ag 17.317302944486517 13.394070796976996 12.497242408773543
Ag 9.676635037456924 11.056040616840823 7.506773294855584
Ag 11.519817117405365 10.903561980211387 9.576466022994179
Ag 13.840235623741073 8.103418093602201 12.099102811945931
Ag 15.557031008386122 15.269898077335235 11.332218883669404
Ag 9.960179513635007 13.261224495660727 9.191031068448465
Ag 11.208236115088328 8.842473893168487 11.457657196511581
Ag 13.372476158766103 10.832021225028525 11.735582338662413
Ag 12.936533397003057 16.00213058684165 11.075073455679766
Ag 13.735591870620299 13.597403564683983 12.825106651317396
Ag 8.878429774013826 10.518059526672772 10.440049952939537
Ag 12.073942004050712 8.865157625313884 14.208615728864295
Ag 10.301874251200399 12.37594444741671 11.95619735593894
Ag 14.769842059668349 9.550242887133248 14.392690178176558
Ag 12.013086299295315 11.66995378061731 14.09033477662039
Ag 15.679607037880292 15.05287309851058 14.154628841502461
Ag 13.10745196376499 16.299347172584195 13.847423751957114
Ag 15.465908521075109 12.230176808164803 14.591224839144198
Ag 9.529563795920737 9.822371525619026 13.381459096614039
Ag 7.7679548800993325 13.28982190465047 10.805577556934418
Ag 10.119639252738846 15.25454958403767 11.304791123063868
Ag 11.209236791271556 17.754712216613157 12.221070752130535
Ag 11.086825458254914 14.318487789825358 13.918132167012919
Ag 10.544588684579521 10.237209188594855 16.19502272294212
Ag 7.324104499845885 11.545832245550875 12.872957586994367
Ag 9.321332936994155 12.279079536857417 14.712296777419825
Ag 13.386859967848734 11.062753750774302 16.32706812857096
Ag 13.492904186829014 13.950794110528504 15.617542386579043
Ag 8.122407890035719 14.412706575284707 13.266654857618414
Ag 11.176887714564899 12.989829224118079 16.786626897934575
Ag 11.44416599888769 15.85014145512708 16.233495941625478
Ag 9.598031394323712 16.63696269347527 14.102358880323889
Ag 7.659791574872275 10.201388824694527 15.473140935837751
Ag 8.888035659401643 14.716209078283896 16.07393642710133
Ag 8.55853778222341 12.16976664609877 17.388290171094987
Ag 6.711169421596072 12.943161029313858 15.283862222028118
