53
Energy = -115.82136007 eV
Ag 16.896328751658178 15.408793891842718 10.436610797069783
Ag 16.985758152667763 14.834955282615072 13.521167810889086
Ag 16.593910943056887 12.911648104555296 11.490558570008957
Ag 15.559113608738599 16.95628089876658 12.351226457353565
Ag 14.675654997472154 16.437833676606992 14.89403646991822
Ag 15.351139651349612 13.545511193838802 8.94638316544678
Ag 16.905467505884847 12.034581423333439 14.289182049548822
Ag 15.44126047457219 13.955556235780985 15.72637147616205
Ag 16.995718519063086 10.195149561347714 12.127327560053653
Ag 14.264133585902716 14.335096900969758 13.015910835008437
Ag 14.114717940191065 15.682488598546426 10.332215811447691
Ag 12.780973189629034 16.672797901168313 12.758787214313433
Ag 15.13971392010713 10.872629372117911 9.992685822787205
Ag 12.538549199799803 14.706400539203605 15.462388927252752
Ag 13.529899199173258 11.664978423232732 7.886170126653019
Ag 15.506920424639246 9.23727383335448 14.368632828018193
Ag 14.762802393734047 11.307235996046085 16.049614699336253
Ag 13.635758742291241 13.244482122894745 17.68644820366084
Ag 14.586341702993863 11.489972300025773 12.78315928154426
Ag 12.123677999610512 12.584047539320776 13.47171317948955
Ag 13.006258603163461 9.050785078758688 9.190851115128565
Ag 14.481501444809654 8.777953221407827 11.751453971140897
Ag 13.144665686549603 12.93759416071633 10.693561549149344
Ag 11.385810497883405 15.403869468704452 10.627990334561506
Ag 12.646715316810154 14.343748715824706 8.276206669212158
Ag 10.614705712621797 15.035140316325949 13.285150535789386
Ag 12.749557431407096 9.909609170415276 14.14049970128645
Ag 10.263865551568523 12.707246390249637 11.295341305449439
Ag 10.929037851166001 13.764948764068443 17.602899877772508
Ag 11.135357241632558 12.625195783799033 6.656350341728729
Ag 11.904162130699953 11.441468884711064 16.343995629349916
Ag 11.748992362485053 9.805193422254339 6.765056797339798
Ag 12.434170938640444 7.062909342369441 11.141654638699277
Ag 13.325307947970337 7.242079349895569 13.89398920919608
Ag 9.846665452303107 14.053320549565498 8.748767779961579
Ag 10.902246096829392 11.112274202280005 9.047535720056585
Ag 9.788392282316204 15.648052407199247 15.873264979463961
Ag 13.495221985953897 8.85056408484627 16.526530483990612
Ag 9.815031783239588 12.970436145907547 15.14049932976836
Ag 12.074027807384216 10.40016482800633 11.483382368636756
Ag 8.67288985844046 15.090190627172527 11.256385230523097
Ag 10.769237341222249 8.833700815271342 15.705555741203062
Ag 10.185915739621862 8.494943626970773 10.329442482413203
Ag 10.68968831906694 8.011443417196185 13.046024203580341
Ag 7.91029793079891 14.611128436506926 13.975576404679533
Ag 10.02605859462211 10.697863819726072 13.647156518798052
Ag 8.56607602337325 11.843002583822987 7.596966223962221
Ag 9.202168212165525 9.131865657421377 7.822143855338267
Ag 7.786810421712688 12.041014338758 12.590094073690366
Ag 7.384379021826187 13.120843681998263 9.792364793862776
Ag 8.233616550755107 10.520018771956444 10.093513816502414
Ag 6.084072043721724 14.187071145497852 11.969951404288691
Ag 8.155876530221274 9.116187820950154 12.413048814918485
