51
Energy = -111.91366814 eV
Ag 15.065809368710381 14.685359443470494 8.585314056048444
Ag 13.662659691645892 13.357365132820467 6.53264609292006
Ag 11.250581365330993 14.94692231014598 6.831922951557965
Ag 12.70551864934102 16.376157737575646 8.73481890672061
Ag 14.787336285422398 11.930862727256569 8.819570578168836
Ag 13.881146452253414 15.256698633520822 11.018942160098423
Ag 15.903713162031936 13.311447608663576 11.013189410042665
Ag 12.365034589276362 13.62270258814081 9.025297989535233
Ag 15.379042035419905 14.840519517487325 13.371534270168912
Ag 13.407319469009407 10.565504909852557 6.733208359730624
Ag 9.215142068889797 13.729539997418499 8.386193040455602
Ag 11.051546207047469 12.162741042346976 6.878894436510893
Ag 11.037400386147656 15.334009291312714 10.882002227891782
Ag 12.57702552725901 15.762955782482974 13.374176288855828
Ag 13.178201415897078 12.35153454839994 11.44481112739803
Ag 15.39298128763904 10.457945400894339 11.258930702823625
Ag 15.958076247903366 12.004734958257885 13.537178599732718
Ag 15.79588522689944 13.574104538886226 15.89326126424013
Ag 13.861566243411914 15.549214161353252 15.854746088084314
Ag 10.902889690016986 9.37800159216317 6.869137569244827
Ag 9.787870707191777 15.905422517833896 13.601551621502436
Ag 8.966601308189691 10.858593695196358 8.270197315457844
Ag 14.59410735961116 9.124435038344457 8.842401579500038
Ag 13.425416562329668 13.106819528964435 14.354777344718842
Ag 12.2139790267609 10.614373966171986 9.311393092277157
Ag 8.565157237727627 14.269276598828716 11.716023910024326
Ag 10.272825254378352 12.326284942083337 10.445219118111206
Ag 13.523435393647716 10.390058350154916 13.512521070932541
Ag 15.81418310404631 9.114959571249523 13.95546438806647
Ag 14.795032467726388 11.005323519456454 16.033673573482698
Ag 13.150891751769784 13.147219164946133 17.18133592773849
Ag 7.431603056862764 12.211738403272742 10.260824022363638
Ag 11.201090372210016 14.611779171778762 15.696007263386788
Ag 10.991187389488449 13.410827207833437 12.95706762098908
Ag 8.700724519534166 11.550129472982146 12.855313986123347
Ag 13.304693256480173 8.564446652897276 11.28367492995597
Ag 11.156153087140463 10.3168094522531 12.087285673095511
Ag 9.309801457791087 8.005917239736963 8.675772255266326
Ag 12.364568485979165 10.529173851115848 17.42141461976676
Ag 8.734570226940987 13.531436949945308 14.865193023959204
Ag 11.181675879166006 11.360573454097464 14.81994688562054
Ag 12.104048242386366 7.789992275560219 8.831974555565418
Ag 13.539215897962995 8.557320723929903 15.792760699024488
Ag 8.658586373628125 9.676671477148638 10.792201378272187
Ag 10.281337521400582 12.447621172862402 17.198000796715224
Ag 6.460679137247529 13.067179402825431 13.039529747539964
Ag 8.569244840045053 10.769849629207172 15.602623559008274
Ag 11.90225255265173 7.971153072458123 13.648461265988175
Ag 10.563652087966824 7.642351010489215 11.189647259695064
Ag 9.220011734945938 8.86896530140558 13.536525923188515
Ag 10.654896123166582 8.8674894838456 16.01610956368421
