5
Energy = -7.32273607 eV
Ag 8.515337502150354 10.165833981038762 7.380740718613875
Ag 8.163777789097123 8.404806853409083 9.478057867056597
Ag 9.914072167859683 6.396079964249871 9.777263527607253
Ag 6.423491244655109 10.408013369201948 9.069172165811066
Ag 10.357163385022936 8.191735259740042 7.813885974017579
