54
Energy = -115.77657823 eV
Ag 17.88123500205023 11.139624528267783 12.395959191118877
Ag 18.645180326522986 14.589003912084038 8.924922483649881
Ag 14.016483057024397 9.887987674906398 9.784453539146847
Ag 8.200728335303966 16.651448163557525 13.371234114280993
Ag 13.539045803456863 14.847448454260809 13.675173711652985
Ag 14.944376451438854 16.927480409605757 15.084882694522745
Ag 10.814125405032721 15.665158012453805 13.568907523478115
Ag 13.307229095788312 19.072720295488008 14.010380116190616
Ag 14.743068186304525 11.716551352081114 7.711678768755156
Ag 13.937299208207952 15.574622033692373 17.317458695520465
Ag 10.466439152978682 12.503425238992913 10.444200281103567
Ag 11.774322264286535 11.333206766220137 16.746923557620377
Ag 17.143710286835876 16.341351137896705 10.590521813693485
Ag 6.536972910318245 15.156591405621908 11.595018514485526
Ag 17.25877958588719 12.387364944100385 16.941875846602493
Ag 11.735382504065269 14.125439338629262 15.787729815262237
Ag 11.249038849909477 10.243485953003956 14.173677636767732
Ag 16.150933949087975 10.894842384559945 14.736453437964679
Ag 9.17954084678779 14.678606686410609 11.628237305912188
Ag 13.725000860734479 12.843573879989044 10.074828148779522
Ag 15.920415386243778 14.182960592150172 8.967703031163975
Ag 12.553796461952219 13.432933766461904 18.503812148419943
Ag 9.214850043234156 11.557820545162677 8.24597879049918
Ag 14.60414987548179 15.386600425642674 11.075584089921055
Ag 15.330595708676606 13.538534863948081 18.669233659157655
Ag 12.205511984954331 17.059251021196104 15.65553085430399
Ag 17.964627414972778 13.8475973614639 11.542075479977873
Ag 16.35380404815136 11.495447912741328 10.031299108188792
Ag 12.630443692022991 17.22078053676347 12.114952083916595
Ag 19.108331157617553 11.961090924284619 9.895589819856573
Ag 15.357968655434053 17.79670901987933 12.383703384328443
Ag 10.536448264222079 18.36412205097775 13.740457418323938
Ag 13.153609013778699 8.50507251320589 12.835482301713805
Ag 7.720915730080783 13.18090168955952 9.917150649337279
Ag 17.481121712995215 12.358487950766689 7.581848389409943
Ag 11.99615109710778 11.261519905337929 8.47298931894346
Ag 14.580773417450832 11.53109480523353 17.013841454990267
Ag 15.382112394788516 12.843446173274787 12.53903086279678
Ag 10.637048041641858 11.472794884048174 19.32439179195481
Ag 13.351417391898648 10.966092658968028 19.396519237432607
Ag 16.537276460542632 15.449294470818263 13.313299212847006
Ag 15.364247007037276 9.969826169743857 12.179880459200463
Ag 15.623422272925852 8.077848991559481 14.160446093893109
Ag 13.388555949806394 12.11397702309268 14.476237692494447
Ag 9.450932745970169 16.023355210642613 15.905633980600745
Ag 11.952774692883292 14.693610792324536 11.190826295293311
Ag 10.993132758793378 12.923227471025289 13.234673520102143
Ag 11.247826769687899 15.872168919532202 18.031216747186626
Ag 13.64113288106911 9.466744740596084 15.449524153304136
Ag 8.124900099821918 12.406356244923234 19.518860763034734
Ag 9.755179628476565 13.48504322367039 17.602016949069196
Ag 12.528154098767821 11.03866695264906 11.815437932011053
Ag 17.816287079565708 13.151126161372868 14.306400730054014
Ag 15.442594312649705 13.985187400166568 15.579843474234497
