55
Energy = -121.56708038 eV
Ag 9.490048506464536 9.224625214821517 7.247470342539643
Ag 13.866374644429314 7.882766052221317 10.750663930531806
Ag 11.123904921424646 7.750264468896775 11.521325136361995
Ag 10.470230135331459 11.221821944391248 9.144777421291513
Ag 8.997197357569576 13.6244629185628 8.826986382461246
Ag 11.461611211671682 13.257167501663009 7.192951958014722
Ag 9.161818147907443 11.889688060741975 6.615140501259365
Ag 6.9866476783015 12.152834676691805 13.74819267964975
Ag 12.1497020095968 10.89959621862089 13.68881873673449
Ag 13.31922608218396 12.681354434974905 9.422189649974694
Ag 14.281159804719566 12.256301670088622 12.092765902732578
Ag 13.097629035653096 8.039446728865324 13.539445175961687
Ag 7.624987633930237 11.082163872677071 8.923383433337243
Ag 9.430823317506139 9.102096820125487 16.6450609687475
Ag 8.005051559070461 9.635916356156704 14.261064527128436
Ag 16.948301715562472 12.52542741370499 10.933904115321585
Ag 14.598301816111514 15.855084731608235 12.955213536000688
Ag 16.409426484252663 11.363194427864462 8.388517715812025
Ag 11.33899010414274 12.757118915790906 11.430522165423085
Ag 7.403476468486028 14.798701925869839 13.225046243434445
Ag 8.935951380289332 8.743188143215628 9.874045715447979
Ag 12.531807321831593 16.421528555797195 14.747554718821949
Ag 11.94805241373207 10.516215287883938 6.771260779732793
Ag 16.636452980910796 10.92706455266459 13.230005302101889
Ag 15.86496743005776 14.0152484287441 8.827335860958868
Ag 16.66050221485116 15.30544472903775 11.162080828666435
Ag 11.47319207061536 14.918962641906665 9.453063187267091
Ag 12.536080485798724 13.777549624911535 13.738632247907386
Ag 9.837832897812303 12.538379800959214 13.924613007509434
Ag 16.05906124068413 12.194480018954787 15.702707801303227
Ag 15.756973284497464 8.26133912685824 12.865095247941317
Ag 7.079237992298503 10.183655723561369 11.594691967257424
Ag 10.575559972018734 11.649321926250874 16.64500291523015
Ag 8.460492151294316 14.01850582095414 15.801119557187247
Ag 9.845576607405107 10.335073105443081 12.076292255583398
Ag 14.064132415766341 9.858354044231676 8.478980767785046
Ag 7.34220945503704 12.924483207976511 11.039880933715475
Ag 14.208895735455368 12.272689593820601 6.842456218210715
Ag 16.378819073269824 13.743385663848064 13.452643421977575
Ag 8.403155085851518 7.6978542570867425 12.360402719837518
Ag 14.676094387363557 9.907050715673716 14.893207756612966
Ag 10.434040895425525 8.282303319178284 14.183737585940104
Ag 12.192570834732386 9.38599080780465 16.05928066010644
Ag 14.07378041425664 15.71718410948384 10.208603136663292
Ag 11.933753578700811 15.959162444450516 11.998636100198786
Ag 9.386585833874573 14.797433307255018 11.336388507168744
Ag 13.277995395825798 12.10275484261867 16.057044753075125
Ag 10.017098011749562 15.492037238764853 14.011139544948659
Ag 13.570496656367903 14.977874732266187 7.5715899166574205
Ag 11.351065708396964 14.27262576471052 16.202384040522535
Ag 11.661458993478265 8.493936826162765 8.861220503088603
Ag 15.706102452285283 10.022295630893094 10.726801584123365
Ag 12.523298216173627 10.295127324837562 10.873553139925267
Ag 14.580263606423003 14.576805169338568 15.499277203609516
Ag 7.833529226194139 11.3966542131587 16.35782464523827
