54
Energy = -118.23476362 eV
Ag 6.5384164847992485 11.749986879163485 11.992008582419787
Ag 8.717001291561727 9.788989557938276 12.009079900141375
Ag 11.911622035592112 8.752262650518965 7.3946347178862455
Ag 6.565224989737547 13.41763298150086 9.613593023640194
Ag 10.121236758669486 9.669164368292444 14.43585812967315
Ag 12.91999856948314 8.380002333638414 9.917773085220437
Ag 8.921507436307959 12.107226986297382 13.537755392520351
Ag 12.453615657487202 8.022585937140816 14.524515254232771
Ag 10.553366439188313 9.828856395134252 9.681816470065968
Ag 11.184002641726247 8.47181551931846 12.110666080889711
Ag 10.002226897897563 10.844722818821882 7.212989447392082
Ag 8.839280110931623 12.05879298650979 10.43651458560958
Ag 8.546103987799999 13.095978082659732 7.734132541536433
Ag 7.792283550617289 14.28530057733042 11.988796372586096
Ag 13.604006929793671 6.920827699342897 12.16917418962402
Ag 12.734662912469096 11.39089564826343 7.212510020295201
Ag 9.004004725098604 15.048955167213046 9.625553626036229
Ag 8.92330788516064 14.803194494890683 14.397712968363598
Ag 9.465381597403676 11.694855516500063 16.266251241725445
Ag 11.411671190192978 11.360790699595558 11.834532733230185
Ag 12.44130203756965 10.644142182211453 15.551894185392333
Ag 14.490274368411397 8.688274528866586 16.288913014532937
Ag 13.656252747358476 9.832110390751719 12.536576355545863
Ag 10.717574402197155 13.986160145313654 12.102761467434547
Ag 11.160262749610313 12.749546500548663 9.150112444054496
Ag 14.702809215919382 9.346480254472489 7.97071000692139
Ag 10.710133506596621 14.829267566908019 7.303995118748083
Ag 13.433275957568958 14.034157777168113 8.06821395849921
Ag 11.715347784141455 12.487361214815614 17.73496986033931
Ag 9.914480955014815 14.501910486728656 16.956882890776228
Ag 9.872558021739547 16.505277129896925 12.072225227140201
Ag 11.31144930812156 13.231702978076514 14.893735521758053
Ag 15.540359946154458 8.155970435634115 13.726995586576628
Ag 13.808121108861808 11.19090866297835 9.93710500494764
Ag 15.375829382771213 12.059790803741027 7.302504103622166
Ag 13.224030439132402 13.718614820733334 10.88139461834743
Ag 13.950171881835015 10.783364646447524 18.01066110057684
Ag 13.502412076405319 12.597056031114073 13.402513833403901
Ag 15.5475665113699 8.685168468088154 10.818418697119967
Ag 15.346217768244646 10.781943695654173 14.682597981420733
Ag 11.640414887401684 15.80465386226917 9.75135161872245
Ag 14.10110491529413 12.84938809559812 16.168522915579718
Ag 11.346922828199402 16.083043330934963 14.647773222297827
Ag 12.819085109825984 16.22036221950053 12.23458821099755
Ag 14.113289528055235 13.50169795554317 18.862078792746793
Ag 15.798063981939022 13.542130673456366 9.652386302107884
Ag 12.649780841364905 15.147404962118646 16.999994231482756
Ag 16.63022901583855 10.854755124956004 9.434374173909001
Ag 15.789613501134134 11.868477813447699 11.979360874203305
Ag 14.455122910721364 16.075491939858075 9.84122461260057
Ag 14.064447437643867 15.364626635523695 14.57443574842774
Ag 16.176364148896567 13.474825717411067 14.444968547289662
Ag 15.434911931722688 14.88559666428011 12.172661664834449
Ag 15.575657252900461 15.014385058605097 16.920194621835016
