5
Energy = -6.28594581 eV
Ag 10.448796253518331 8.339688484035838 8.399680826732398
Ag 11.896661260120204 10.588849832987087 8.673048793561902
Ag 7.8392235315987335 8.647815084803396 8.69981635506815
Ag 13.266459922506916 8.396315216602272 8.324997669842237
Ag 6.700208808548328 9.199784923797758 10.994688069345317
