52
Energy = -113.56485169 eV
Ag 10.538782535042488 15.918998473572811 8.727579082061887
Ag 12.500449629054994 14.448933763434555 7.50075263381338
Ag 14.505566622546086 13.000228871185593 6.357133842167621
Ag 9.792425562530493 13.082194942602642 8.059155736254537
Ag 8.140625162468167 11.801986866670022 10.064584887051085
Ag 12.168747451459286 11.548300739056389 7.366252588916903
Ag 15.255863776287391 14.788215682106486 8.491856716628632
Ag 6.8634031209013155 13.55065862631744 11.867037475127583
Ag 9.132963176391339 14.424662678028868 10.549283743569093
Ag 16.718124703161234 12.29768566754552 7.901725274761612
Ag 10.593532774074669 10.619647528696413 9.515784170782881
Ag 11.708186898853821 13.272027842887502 9.97129925829968
Ag 13.061458381237365 15.960254838570963 9.88157617583218
Ag 14.189125895281327 12.206289336459744 9.142781769437384
Ag 14.815216770486618 10.288658709743398 7.104169043023208
Ag 10.02053391549859 12.100351162654375 12.248360214664725
Ag 8.974511107300053 14.907886124106179 13.281303749708204
Ag 8.958972699386614 9.469422022653134 11.537193118392137
Ag 6.581397283737711 10.797952025910904 12.269571761144697
Ag 16.59808668095763 13.186477055101394 10.495448932491058
Ag 13.158694782349922 9.373125823068415 9.107709567810135
Ag 10.6532473557139 16.731429774255812 11.436346703600654
Ag 15.670234637139126 15.957333471955465 11.038306353903591
Ag 6.862547331644235 8.00832221215797 12.598479292002548
Ag 11.496477242772366 8.353389340731416 11.167639491484485
Ag 14.048137108057752 13.68117803771461 11.551764697398182
Ag 8.110658658306056 9.684897641811933 14.34402597710099
Ag 15.915548156843558 10.162279460335796 9.81422119883911
Ag 12.720618324631822 10.991869492142875 11.411716010347245
Ag 11.590683195226994 14.384928506505194 12.520599106240299
Ag 9.668392495805952 7.417878211578516 13.36739561583585
Ag 7.820830375709411 12.483966938462702 14.245911928127226
Ag 15.828970397218374 16.76602345007573 13.727527673013276
Ag 14.342796348170536 8.663284928546386 11.623410229102538
Ag 11.09635742754331 9.836058955656378 13.61352434118588
Ag 11.34260190976191 16.157484886275718 14.494874906230507
Ag 16.340001862027254 14.060065688120083 13.160172282093233
Ag 8.884142667007914 11.252888502410801 16.487670675483425
Ag 12.57815487959317 7.284719905646639 13.482611572900856
Ag 15.463399076222494 11.329119691600873 12.366707380694846
Ag 13.324816510951953 16.78783566719566 12.517127269399442
Ag 12.700148474125005 12.216257619510193 13.890166087671833
Ag 9.888288643142717 8.540031228129756 16.077012817853323
Ag 13.992421415758296 9.734047528372423 14.196871048621325
Ag 11.049481801831618 6.0756912635202465 15.461133862920036
Ag 10.415263196585078 13.276897925174504 15.168961702870842
Ag 11.541446335664991 10.81550360966669 16.30647629450591
Ag 13.89304475402919 14.799120189070376 14.420272643407449
Ag 12.684406071027292 8.213647542236657 16.203290920499832
Ag 15.276715202065374 12.272372720409315 15.041484202721811
Ag 12.95641797709505 13.15398562809445 16.52433579044749
Ag 14.220169431096007 10.480686656481213 16.884021054967647
