55
Energy = -119.82513047 eV
Ag 13.186018427036446 14.305835901769942 11.415305006711028
Ag 16.04530089637708 13.83191286726708 10.804137226350328
Ag 15.057926225281324 16.566870601387787 10.805737547391823
Ag 20.132635825147478 16.622945565573463 10.946615669353017
Ag 17.630511118838196 15.916665784266746 11.909017521953498
Ag 14.645559936497994 12.223488038383167 12.689824353949202
Ag 12.538182024755988 14.39909111376583 14.238216128424568
Ag 15.268756209919975 15.000757846975837 13.194519009145463
Ag 17.30631527830637 12.88829036107443 13.1944712152101
Ag 14.855144614552405 21.4073927675705 13.364512123874263
Ag 19.620364651428375 14.002445949156332 12.153763272709156
Ag 13.103215264893077 16.853948000008433 12.842358792365292
Ag 19.924286298866704 16.333960658973968 13.676172328525489
Ag 11.860722628619994 12.098689685966484 12.754519297713522
Ag 14.205274398249466 19.2641052848542 11.60520179397404
Ag 14.362119663447237 16.190451249498217 15.613263602160384
Ag 11.762228429941333 17.16673728256727 15.301941282614656
Ag 18.644362658517146 18.529893024174587 12.412713737731107
Ag 15.964478492303963 17.894667336998943 13.159928439530889
Ag 17.22379763671289 20.289804199583365 14.053776109705224
Ag 16.700454086751428 22.77900996660572 15.097253298225882
Ag 16.121224796606114 10.87345399123056 14.847331843400662
Ag 19.127115805389973 13.911167122244033 15.083230312846846
Ag 18.864065833029745 11.167602994117404 14.797768832627527
Ag 20.12121849276792 16.27031006269724 16.395149201592876
Ag 17.302739291066867 16.077648341987906 14.91597559188469
Ag 10.764993856048791 12.313470765614944 15.366651876923909
Ag 10.643061201775126 14.829902572207843 16.442270845379113
Ag 15.789847453146601 13.681169162987292 15.639527974347926
Ag 14.950495580031113 20.95449680266166 16.20402588072526
Ag 13.643585264526356 19.122063476808112 14.404941765566731
Ag 13.385843299082637 11.582498881226993 15.051618652267958
Ag 14.203093845564966 9.114959513216954 15.895439886891962
Ag 20.186558038170077 13.680953795219553 17.68516134880802
Ag 13.268675193634316 13.74801463264743 16.963126628139367
Ag 16.105204057803352 18.382540487283155 16.005329994351786
Ag 13.457550978351971 18.72635630833438 17.122209990808827
Ag 18.982118859471715 18.525844525042306 15.237502901085398
Ag 19.926956347333775 16.17160350572118 19.107730847762358
Ag 17.712267687578006 20.627372993120904 16.818717396276558
Ag 17.71559577181499 12.253114730562693 17.16939392249373
Ag 12.431290804007114 16.322840983525253 17.903820985073295
Ag 17.81739198280768 15.121355527574513 17.550765625024987
Ag 11.38381105060647 13.781356332943817 19.021707136858193
Ag 15.498488038278317 16.58545695161494 18.277386057110437
Ag 14.968715363894146 11.259979996736412 17.405924067801717
Ag 12.102562983886743 11.216847051132573 17.618465003273077
Ag 13.67689732246053 12.228601516542142 19.7121432539957
Ag 13.627796824828946 17.96046518160135 19.87835427455272
Ag 18.16278398691696 17.94814690564013 17.89027108913728
Ag 11.328986638230084 16.333987042471588 20.402725504464176
Ag 15.69884791365285 13.789942876477141 18.59720639385393
Ag 16.447456858060885 11.357596707479404 19.68417360897049
Ag 15.771101372595634 19.43706561866557 18.621875874006207
Ag 13.784810720126513 15.085657436232749 20.05963595406915
