51
Energy = -111.32999098 eV
Ag 16.801356239307758 12.447103175497473 10.452474009842462
Ag 15.136170337062605 13.91989866221654 8.615639483820706
Ag 14.00511303245813 12.427356371510426 6.483940692302278
Ag 17.12923457103383 9.518377409352322 10.100532819891917
Ag 15.693020314099934 11.06038001642872 8.230881685360144
Ag 16.447059471301554 9.395804769639415 12.864297509435186
Ag 12.328319010276712 14.336152552982808 7.734289258939684
Ag 15.269661857591633 11.959917529081586 13.42327657213805
Ag 14.521043667821548 13.914538613085206 11.406976922219059
Ag 13.469223362664168 15.931942894377277 9.710422865363688
Ag 13.241508111272891 9.821632717197703 7.25148013497061
Ag 13.069257924694103 12.07259499370935 9.278049378104573
Ag 14.81458809108421 10.685744845656345 11.016887746234453
Ag 13.682375832096126 14.139420476696698 14.200292407384113
Ag 14.966217991704863 8.344744953852157 8.733444949638859
Ag 11.315116909361745 11.810143773784654 6.949314992511297
Ag 14.584095903931257 7.75954629399391 11.401496715757917
Ag 13.688465346041477 9.477502116922658 13.43698123931604
Ag 11.504009594276056 14.065179886048718 10.588866390354944
Ag 13.008558324655827 11.501673748718735 15.202510204957303
Ag 12.54788287999525 9.412601642562002 10.144976004789793
Ag 12.711337937880426 16.02589262566428 12.412201593224491
Ag 12.302100513976066 13.735811830357447 16.75829256613186
Ag 10.701715146806722 16.65430680639909 10.381232598259253
Ag 11.632096729962951 15.946009219224635 15.093640493430655
Ag 10.978407744517042 13.298492790609172 14.303186111380262
Ag 10.01240063827335 15.625082596097482 12.891135232115062
Ag 12.528504388244734 6.919298194721312 9.264158784973693
Ag 12.599724545981575 12.08818219997512 12.258124803433013
Ag 8.485161918526439 14.668427816049018 10.813213665540058
Ag 12.00905342199596 7.3790915513023165 12.521181839158677
Ag 10.653595940010199 9.000873369508852 7.922913734428569
Ag 9.501875407213454 14.160388635665747 16.47758243977422
Ag 11.44284307366086 9.164017467585248 15.161752827607973
Ag 10.951125455198222 9.937944462759232 12.392651563972967
Ag 9.679379506653857 13.585689494575513 8.48295518088163
Ag 10.355585794909874 11.104418108722633 9.732402521219122
Ag 10.564239370787872 11.495777419257095 16.71912849050735
Ag 9.615806556593109 12.5095831039263 12.01529692713223
Ag 8.119183101202083 13.98074304382655 14.058473948376717
Ag 8.686359327927267 11.171877989040256 7.346317474491215
Ag 10.057192464714042 7.958084266175277 10.57064442193915
Ag 9.25551022155883 10.981605718407181 14.26155699465591
Ag 8.862693174955819 9.270759595826432 16.361898352196302
Ag 9.290620784668485 8.028756744079839 13.667528031292417
Ag 8.020375424934002 9.196854316380561 9.111124918445103
Ag 7.671804279792447 11.984323378368028 10.003612440573221
Ag 8.106294794410521 9.758038184054076 11.799026406459607
Ag 7.585572009715293 12.015246063661461 16.106685497044072
Ag 6.7766678787654335 11.977475249013965 12.770122379696243
Ag 6.862845236849886 9.655535631337546 14.407798941293898
