5
Energy = -6.92185744 eV
Ag 11.678463401756982 9.062199591733956 9.850797906935668
Ag 8.040949908905503 11.222643309312136 7.832166760651134
Ag 6.483246904917775 9.180782593276913 8.653878939592865
Ag 9.12502498557939 9.09518826197007 9.055422716237603
Ag 10.161904073590208 6.847477399679728 10.08356567141162
