51
Energy = -110.69589272 eV
Ag 9.377274603683743 15.07318546935439 15.575938168526287
Ag 12.139146429334126 13.924890097897968 15.796037284897793
Ag 11.432428277377138 16.398421523570335 14.380263809563951
Ag 9.624041048826484 12.34936321846076 15.95795660257574
Ag 7.777022014108564 13.203734218842875 14.111826190817947
Ag 15.184146577045658 14.138603362740735 15.651903038864067
Ag 14.121510570552811 16.10104858400444 14.01532084656602
Ag 11.843951625750591 11.508529238902355 17.392751038019803
Ag 12.623656348272856 17.76639213654758 12.29903909584817
Ag 10.188731536995776 16.32120567112517 11.88771699852745
Ag 10.608003948223873 13.791376308176186 13.377002597619569
Ag 9.825189852868217 9.637818756760081 16.79776125477499
Ag 7.856119815124069 10.390488568903043 14.914007075469716
Ag 8.549483052989645 13.881603489818046 11.48749293130512
Ag 15.147820695293339 16.66895547923605 11.479658833166539
Ag 13.666216898263029 13.259210830716695 13.509345739411435
Ag 16.173925425896567 14.48929502201424 12.91299617724876
Ag 12.489960490781655 14.749736248617644 11.408344063749812
Ag 14.144537933444898 11.458284808124306 15.85716079490562
Ag 10.144065871345271 8.854152550523205 14.17570740029529
Ag 11.702248535945191 11.336974821120322 14.32821156812077
Ag 14.028240266193128 18.776913267516164 10.102951654965834
Ag 9.240111255779095 11.303112140156038 12.665111403052771
Ag 12.452725619920646 9.138793557193305 15.923620267290266
Ag 11.938230004347442 16.95561626023761 9.687603385100108
Ag 14.483151302845576 16.356096279829757 8.716095267563498
Ag 7.897421821509232 8.731003034371602 12.596426108504678
Ag 9.221776651817192 9.792779147898209 10.29655746983347
Ag 15.130379657657603 8.711239318518887 15.1144570347647
Ag 16.359945457663578 11.958381979168552 14.278012086942063
Ag 11.656870942708855 9.918852599847407 11.84444664842378
Ag 8.482267629545717 12.328090098355812 9.095448707443795
Ag 12.622416926944478 7.693325682289552 13.56543034767162
Ag 14.146295349658711 10.32272366511298 13.185376955892675
Ag 10.806629029590406 12.359641998552673 10.518458248438613
Ag 10.121446353749171 14.925538056415435 9.435352671227731
Ag 13.45778319280848 12.053516959188352 11.02187583289905
Ag 16.23792118994494 11.92202218146171 11.468047193518045
Ag 12.890009072002677 13.988265587589991 8.65657205824832
Ag 10.282225632261019 7.415767100588441 11.715280859606048
Ag 15.277288401139318 14.19692419007208 10.218824347486793
Ag 10.828272124445459 7.923929351807141 8.972474934784653
Ag 10.267512436694455 10.454919652577907 7.805373405045951
Ag 16.870908452379776 9.572578128711797 12.92413888236486
Ag 15.123735032271114 7.432454514607497 12.51630876987623
Ag 10.50240393655139 13.203785913899603 7.36421422095455
Ag 12.940733028214018 7.557372103211362 10.778294919432
Ag 12.668408384655155 10.022017309789039 9.178211956588338
Ag 12.724033451833453 11.673337879135632 6.9586563596016395
Ag 15.031966624264792 9.537374141783046 10.599768654222371
Ag 14.948864402344102 11.796199957941601 8.741811723505489
