53
Energy = -116.29524284 eV
Ag 16.95513445151614 13.419331225556883 12.458034785700468
Ag 17.30435553524348 11.786934189442272 14.670170510686587
Ag 16.653017915419017 10.632943004939289 12.203038673433865
Ag 15.4116138591954 15.66208145757524 12.510625570999496
Ag 15.77669697158991 14.218570598399124 15.015111696306432
Ag 15.801997413233671 9.376308291607353 14.538173479305042
Ag 14.923622319160163 12.768046536000904 10.510405404016195
Ag 14.628865493938896 12.14103978277243 13.491747564105426
Ag 15.280892316130746 8.094589758115697 12.084440843819916
Ag 15.057039783497789 11.661489098361669 16.2817673268264
Ag 16.004092241491396 9.69283456778465 9.738181377490047
Ag 13.684006436568453 7.414544117428929 14.49923936607902
Ag 13.052802038497738 17.1598734126975 12.092735369767857
Ag 14.186860829835686 15.621653768435497 9.954157871150466
Ag 14.386273543371436 9.040257318409415 16.911409843001124
Ag 13.319391397744292 13.638455037595808 8.234898826725203
Ag 13.491207281438665 15.805764115099695 14.522028766986066
Ag 13.752850982568436 10.370235460489045 11.454774735697113
Ag 13.3829999464433 13.845366881391884 16.546078494495323
Ag 13.018181770045109 14.080712055470674 12.190000381427538
Ag 13.00223450420972 10.077509531397787 14.617798814818682
Ag 12.01979027361393 15.991818980818781 7.58890047674787
Ag 12.462630812017714 17.86440999725686 9.514499604694516
Ag 11.836050137909332 12.267527286871177 10.221189801177417
Ag 11.877554700497038 12.727221102492013 14.461070566925175
Ag 13.76638072106474 10.857455862955064 8.566962013983538
Ag 11.729136854669008 8.480643450143935 16.696625149054743
Ag 11.359084368715548 15.17935219982647 10.244884874492351
Ag 12.454310203493193 7.809257446517911 11.977480968748683
Ag 13.734207993327704 8.133182625375241 9.46407918593409
Ag 12.050710330802355 11.833169710154504 6.55421010098096
Ag 11.991795521273177 9.104915180790893 7.290118667147758
Ag 12.34129206668402 11.250981673512237 17.1406318500513
Ag 10.211526160462979 17.61255624033148 11.118621353734348
Ag 10.87519557296268 15.890030857102115 13.200212203513129
Ag 11.114889501747696 15.317489910312176 15.860026982382289
Ag 9.147449922777076 16.053764344870032 8.923714656505286
Ag 10.213633640416118 13.258149365095484 12.21323488562528
Ag 11.13734201448425 10.553021301356011 12.591671126600856
Ag 10.782810950522359 8.045832784930177 14.166610772089014
Ag 10.154401535194177 10.445868394890004 15.467554686206174
Ag 10.420841059258064 13.762216685553996 7.73774587503214
Ag 9.876409656360819 11.08081894501878 8.15226414175154
Ag 9.597932617035749 8.247077431287876 11.685830074331577
Ag 11.324258535563164 9.456765512500278 9.918248717532515
Ag 8.810552951642704 14.433806253823034 14.418574389045906
Ag 8.477566441860494 15.43333439889315 11.705479996639365
Ag 8.57702851577855 13.40302644889743 9.743292532186587
Ag 10.059714009250992 12.93370438651066 16.626587913326787
Ag 8.36520400872659 10.156938404786164 13.341702242065281
Ag 8.99200687099681 10.891454033362821 10.769994448167322
Ag 7.733720137438244 12.033630802575098 15.24938246700771
Ag 7.50459030446034 12.749516506633793 12.439326422245053
