51
Energy = -111.93774536 eV
Ag 9.26101626351393 15.104909555876933 15.148066522414712
Ag 11.461279337787701 13.43973577309108 15.482640327577723
Ag 13.910503325598377 14.318972051515091 14.008349002270785
Ag 13.785308676763897 11.695451914201401 15.28455186515045
Ag 13.645236164446993 16.722596449894457 12.442767578113374
Ag 11.349129811297084 15.418579135979574 13.390584035122968
Ag 8.705128381122975 12.317146784343523 15.253892100847668
Ag 15.625718630671868 14.679563362441495 11.61656893243501
Ag 6.9897625460848145 14.233673182977785 13.960773694822603
Ag 13.142301558727755 9.117832853032201 16.06721633693315
Ag 11.012142502994934 10.696952377737462 15.270311272140951
Ag 8.751443663692765 15.913104802527894 12.340757811259532
Ag 15.55671568807922 9.532868106887813 14.386757745680272
Ag 15.594455124930573 12.206452071639912 13.158458910448672
Ag 12.257792649847136 12.296836652662847 13.026260848391498
Ag 9.554214237808585 13.210437858416629 12.649459986895717
Ag 11.131630936799072 16.5071953890708 10.785316788931661
Ag 13.80917434441036 16.39124528938819 9.640682395333512
Ag 12.914291103246985 14.308122718130774 11.272858315427037
Ag 13.82581339077394 7.14178911812308 14.308804530659515
Ag 7.089750331065048 11.65791136588322 13.011328010269542
Ag 6.91880138654157 13.946632711196038 11.228548485131903
Ag 8.583498375823407 9.571649245161122 14.338618936694102
Ag 13.130126838229412 9.636975465321115 13.093233994258597
Ag 16.763099923620032 12.367143128755862 10.429081297024187
Ag 7.195089703373189 13.234844238931307 8.56033338396118
Ag 14.118928574364917 11.620250511167464 10.817439484124424
Ag 9.345605268945018 14.520856798723115 9.956879621255526
Ag 10.293773001316987 10.33708919398939 12.342763415195014
Ag 14.716906278029594 13.821442998988394 9.019915611024546
Ag 11.90295519384376 14.488786231084093 8.694456480722383
Ag 16.79002956610629 10.036316598936896 11.908883887103535
Ag 8.58689334080253 11.518609375985715 10.367563715134189
Ag 11.033429734624443 8.063506380751459 14.276611121644024
Ag 11.282710742517054 12.198401793381574 10.43335384861895
Ag 12.391985536231614 9.464328340190347 10.400284837445508
Ag 7.408363521428117 9.296573065176085 11.680119349665748
Ag 9.663406912825275 7.669351876678019 11.801448822793391
Ag 15.518121920814371 11.367010432812195 8.003199120104393
Ag 15.145431095610036 7.834528924537985 11.978256156852199
Ag 5.866306101926611 11.428435838223345 10.431133510349522
Ag 9.923064435403804 12.554125726787317 7.977035169134015
Ag 12.773382218821668 11.746449850140081 8.149570248078994
Ag 7.871589598028983 10.607901918665668 7.7781552476314655
Ag 12.368222925367187 7.031344093044296 11.93381950927082
Ag 10.623780905828612 9.86202356683458 8.153991210074865
Ag 11.102148651078044 7.253888658107129 9.30936700923686
Ag 15.505267411926877 9.20177144389668 9.619084218498482
Ag 8.574339065529369 8.418176776037749 9.33370303078121
Ag 13.355449482105387 9.015676547696236 7.788329497657906
Ag 13.909537440403737 6.966741650992589 9.596078634040996
