5
Energy = -7.32039279 eV
Ag 11.870525560520305 11.581114634589921 9.637282966517597
Ag 11.78825987698358 12.243564114441327 12.257229169639057
Ag 10.136704662464322 9.683740981855797 8.689093197376849
Ag 10.187015292770187 10.268135996847166 11.385199077946256
Ag 8.3865913354891 8.534006614332451 10.390246951583215
