5
Energy = -7.31773766 eV
Ag 8.613929005547075 5.978241227509781 9.428946891278088
Ag 9.823621229305385 7.535511222773013 7.577948001414016
Ag 9.169229293414118 10.201338329450978 7.492569668909537
Ag 8.271885267634737 8.636510699542477 9.575546391424542
Ag 7.6960491668515925 11.259943487200516 9.500925309868403
