50
Energy = -108.86014454 eV
Ag 11.519636973799837 6.585678080032739 10.457283824111904
Ag 9.017363748171084 7.773527305797912 10.136259508564423
Ag 13.7062016232425 7.525246190268934 8.976385081110944
Ag 13.097162365204369 10.22515519924808 8.907784121940743
Ag 8.656873250006623 9.65598262801658 8.111252116845602
Ag 11.199679001146702 7.261015928706863 13.296075129838654
Ag 8.710698960996302 8.56625307472286 12.811343000058445
Ag 10.374729757621925 13.77364609702072 6.8426375090196325
Ag 11.220992816716599 11.900836164108261 10.490294491625646
Ag 12.655646085326955 12.954383354751238 8.23823795667378
Ag 10.488934033978689 14.574488619905607 9.652035235069047
Ag 17.747967709390984 14.43300002444702 13.009043179926783
Ag 13.64144910990135 7.793679470236479 11.80893483652869
Ag 8.583347108381066 10.514950104988273 10.802104373368756
Ag 15.669815039852269 9.301324175313473 13.129233071822046
Ag 15.462251038990171 9.290461360213573 10.251571640530228
Ag 13.039017601813505 9.206725129654995 14.205878610238818
Ag 11.157434791912905 9.275337278486013 11.415594330623879
Ag 8.39702189013293 11.296637542938315 13.539181789870108
Ag 13.583319569081864 10.744262353215335 11.805562076215152
Ag 11.09754329225552 8.323271879421311 8.278144110409686
Ag 15.0192456926512 11.07975476528831 15.193705082305478
Ag 12.261046719999609 11.083327689001438 16.08718075369107
Ag 15.254670723723082 11.934011045017305 9.327452634090605
Ag 9.475010407488133 11.937203157122793 16.01961834080691
Ag 10.253705059558454 9.415023686896156 14.958426684284033
Ag 11.336685860558127 13.006293255254173 17.98337243623792
Ag 13.694045993999705 13.424539883496829 10.967241960159159
Ag 13.614195573480021 12.96453820722839 13.777221016843407
Ag 13.896011534543806 13.337328182744878 16.76653787390909
Ag 8.921620963348564 12.370252719124174 8.751777609609345
Ag 11.184425355157748 11.54473409446685 13.375673571495913
Ag 16.00035325202751 13.790706827705705 14.992439879621978
Ag 11.484244593366975 13.781600296567897 15.314231578910455
Ag 16.04591737296513 12.100361679938898 12.561239716585426
Ag 10.919984620463389 10.986613604303813 7.273492936840588
Ag 11.497205692837463 14.221291686554862 12.46212633317277
Ag 8.984073150037622 14.12720487254454 14.07159157773397
Ag 9.33491174820478 14.767782407218089 16.82284880221986
Ag 16.522648421920895 14.07628231290939 10.613034755516955
Ag 8.849749606500222 13.275221839790108 11.483490996705177
Ag 15.01906850182198 15.370803642722912 12.671683070810404
Ag 12.0591744777248 15.654113151097864 17.306089390983026
Ag 13.84383881453219 15.70018900622849 15.190089456843774
Ag 12.14414488392369 15.730216746485343 7.737764446196293
Ag 9.944949627087654 16.327366788982644 12.030922611642541
Ag 10.658678717161724 16.406330876354865 14.880264727779105
Ag 14.635311423570885 14.839954376537932 8.749632565457505
Ag 12.629771539487097 16.92491457727204 13.061486454048001
Ag 12.72652783537517 16.02429089381505 10.500322368635143
