50
Energy = -108.98170351 eV
Ag 17.371721864654333 13.516629198985326 12.7605245717018
Ag 16.128258281975427 11.644744574078297 10.862165757713418
Ag 17.273452306322927 10.786328282489105 13.583740256856995
Ag 15.091844625361265 14.371969179001331 11.493381676350992
Ag 13.763983262688841 12.130655158207054 7.998298652113149
Ag 16.66394220551616 12.952566859119388 15.399530190185372
Ag 12.892747022071937 9.241759235763112 7.213558982084012
Ag 14.300669029041076 9.809663607312924 9.642032488239215
Ag 13.338143678507654 14.61448948203525 9.362583719224
Ag 14.71659069709859 15.014387096282036 14.238021240430426
Ag 15.100005711618568 9.521788244216337 12.40917129550543
Ag 14.925038150015501 12.246155834909237 13.346927718044919
Ag 13.290709506856757 12.204343355638743 10.961710090301272
Ag 11.557549100664358 11.461871235468253 6.253461875743771
Ag 13.905064485380427 7.383938285665087 11.08978252440804
Ag 12.878852887952444 16.010493339467285 11.922441579882532
Ag 14.944273775123797 10.16762210568238 15.272055738828398
Ag 11.214331367799764 13.614590617307288 7.916332680557344
Ag 11.581136773235269 10.841651018884765 9.150626881862548
Ag 11.625314028338028 7.979669511044046 9.38334594833273
Ag 9.988978288158139 9.283802496455715 7.441818298715784
Ag 12.272367082592623 9.65648596582955 11.69278547017239
Ag 14.001866654043852 12.87787257761972 15.983861539458047
Ag 11.059697479817887 16.29850444437466 9.496892594260325
Ag 12.423964320367027 13.555675493407957 13.35192191168292
Ag 8.964130584633917 11.990447715188488 7.098100351658814
Ag 11.410705797140572 13.63965475764732 16.16558536956712
Ag 11.270255225549173 7.0512465975567205 12.001451682019724
Ag 11.015180984740914 13.95144231862948 10.868324111203647
Ag 13.232673776333295 8.11912050287804 13.952430849937231
Ag 8.830123536576588 14.650075343030032 8.884875102121214
Ag 11.975924630545807 15.955262879947492 14.612325202845769
Ag 10.112773445662775 16.28450092418447 12.23481779571195
Ag 12.490610505331231 10.901974658030747 14.180841646077484
Ag 9.236371135602822 12.046528292126743 9.844395685539926
Ag 9.563587184577075 9.418769879682202 10.930850891440688
Ag 8.75528864063669 7.389008051363428 9.346068350289153
Ag 12.246932970629086 10.940378394993864 16.887375983204915
Ag 7.595648725769671 9.974972661905824 8.719827442853452
Ag 10.243513833019051 11.729344135528017 12.463398707921545
Ag 6.766057611200937 12.712439964468683 8.756324001463287
Ag 10.48530653961032 8.928930076111 13.931076156866155
Ag 8.579626271444027 7.244482195552311 12.514031007883466
Ag 8.280543940137555 14.000828862284424 11.635030607384856
Ag 9.739402647633637 14.211939715808652 14.054481758549102
Ag 6.724794284978927 8.64265497934461 11.019746123173078
Ag 9.86113102384203 11.41434209354643 15.218791446284124
Ag 6.928120466495796 11.42267493865718 11.290114196175821
Ag 7.936597767369335 9.830228706167185 13.370662045087292
Ag 7.56553295449829 12.49730384344035 13.896933294188598
