51
Energy = -111.45689347 eV
Ag 15.825919049596802 13.887174087270028 8.598739857227775
Ag 13.567656173779014 15.320422269876186 7.33099307321271
Ag 14.258914865455194 12.747440504925166 6.574404177610873
Ag 14.256911929540708 16.021858074432533 9.921319438427865
Ag 15.837488991022418 14.175524837799642 11.347345503228606
Ag 14.964942639936444 11.06600685268359 8.801998151296546
Ag 16.64604652859364 11.303839683659781 10.986366370286836
Ag 11.343553898925434 13.632046089607664 7.047138203610479
Ag 13.499220682319475 8.652087149886327 8.621497376386243
Ag 13.222676785538932 13.282676595295099 9.339076333765322
Ag 14.66669900396925 9.200356259957214 11.1465291362259
Ag 11.507117375436268 15.602741467606142 9.26991076262526
Ag 12.37642471979923 10.966445545220935 7.433039372001697
Ag 16.772444359153337 12.594726539823721 13.482650723111993
Ag 14.779750834998444 14.518523715597652 14.05329310538503
Ag 14.188797878014249 12.050927065672727 12.007644892642524
Ag 15.668553680576682 10.056141355428027 13.568676738968849
Ag 12.101821907696499 17.127269071242807 11.657804218246488
Ag 12.37858112949854 10.715605617779511 10.263326555403673
Ag 10.434755809050687 12.55630499869462 9.44289925625306
Ag 12.005372639538711 8.06235634829362 11.0793638382015
Ag 10.707046996994151 9.03467051879368 8.642810645677764
Ag 9.637731793270158 11.224725828907385 7.062657248887523
Ag 8.859299964417996 14.770694361734535 9.094916316657464
Ag 12.972825265321259 14.573497813000834 11.910970780024082
Ag 7.627039971553138 12.248771711474632 8.738360687705613
Ag 8.02983958837694 9.490377766677447 8.675435248897726
Ag 15.1686921709066 12.092639151888589 15.6975088040163
Ag 12.729475012221183 12.678639907795773 14.403934421798192
Ag 9.631126649998274 10.253136281613742 11.250024565080153
Ag 11.10616883759859 12.42224984113511 12.166131741615649
Ag 10.135762456816735 15.155257033102826 11.709153575968017
Ag 9.170778562298706 7.624120605824086 10.586083985591683
Ag 12.462848788940736 10.086260234828298 13.149771463159128
Ag 14.120822030719417 9.493431123950861 15.722438180557367
Ag 13.598945397667968 7.745686145253795 13.553072633166645
Ag 11.645332551343266 15.28202767422994 14.269116233899053
Ag 8.379028495256858 12.976241772751404 11.357678637323952
Ag 13.412430148214206 14.262532753980341 16.505316177247433
Ag 6.813864435416033 10.61894251657624 10.920314805235623
Ag 10.314755811927716 8.154737498638408 13.280921289665987
Ag 7.623297602861951 8.584275476629719 12.761617530955782
Ag 10.395131425573346 11.122157646002965 14.725019335140244
Ag 12.664850969212182 11.47654784556457 16.986990774476062
Ag 9.276596771731919 13.682626680282928 14.005756706847695
Ag 11.506347472694376 8.71080433642601 15.710635858173463
Ag 7.814932773970886 11.246427285482284 13.498716749162785
Ag 10.685871805444807 13.450613170807415 16.420426974282236
Ag 8.595634302279604 9.13451655020274 15.3803393327293
Ag 10.117764700304976 10.49869818400606 17.444924851510205
Ag 8.200902202915858 12.062242170466083 16.1258361524306
