55
Energy = -121.93282822 eV
Ag 7.219831932396504 10.639924690065095 9.423788590074993
Ag 16.608610353332818 12.92760915590819 11.469058832223652
Ag 13.73964444679092 8.822161242305937 13.762661077325744
Ag 9.872089737529416 6.729993094661884 10.56659844743235
Ag 14.526966886195538 12.867701915736168 13.41530430361079
Ag 10.253452968379467 9.796951541555526 15.899329938689405
Ag 12.279472620911227 11.64745099093106 9.095223401470863
Ag 11.210644153084218 13.993773906280962 15.663312026742544
Ag 14.169256980041693 8.595283036138879 10.956921985775782
Ag 10.111241855679989 11.59473789169771 11.093589153207283
Ag 9.617254855403695 11.062986532951626 7.992915796469899
Ag 10.811901191906784 9.518255499175824 13.057163466155446
Ag 6.989266892225091 12.097796861346216 14.808155950562936
Ag 7.4276351200969595 11.637445504330758 12.038952336631088
Ag 8.071813054014623 9.597152424920603 14.11573885320011
Ag 11.836901426150648 16.367192015548788 8.804416635745037
Ag 9.118533619038354 15.705139489101658 8.573447317471546
Ag 15.91345746579567 13.591711599063293 8.83173051941767
Ag 9.906762408283408 16.609950412727862 11.061531111652162
Ag 12.107562820680052 7.064942747371235 12.19136629865061
Ag 13.800199923770549 13.527063667169125 10.696554525266105
Ag 11.601470634609301 7.451588964392279 14.945027340575907
Ag 9.35220424730086 7.1631183968573895 13.319495711242155
Ag 11.758533288149478 13.479390046880383 12.74748197679761
Ag 15.765685332538355 10.343471338032876 12.552889408084695
Ag 15.284905039578907 11.001404087322614 9.879492303724508
Ag 8.522160102038125 14.48200829014907 14.871046889044145
Ag 12.372991064324697 11.39407927425525 14.64549636063731
Ag 12.954799427918593 10.996075939464383 11.822383651083658
Ag 13.012865903573024 9.31564945836146 16.48621342736437
Ag 9.128603821142685 12.292275658630905 16.6409232153336
Ag 9.608772935981097 11.998174470018789 13.904029324249313
Ag 17.16769119544713 12.22589132381967 14.130297218339143
Ag 15.30179308064417 15.427057757591779 12.223004875399907
Ag 14.535511794025695 15.971561913576801 9.53528123200674
Ag 13.91683175343915 13.30031567036975 16.198025131158758
Ag 13.300896455779824 15.39800318083085 14.303263925847679
Ag 12.615133032628263 16.14862223065154 11.622970523237187
Ag 10.514246395179724 13.648194798253266 7.343945027843147
Ag 11.277063352450018 9.195133708399014 10.197624308674541
Ag 10.563205508619369 15.936938523053167 13.661885071906596
Ag 11.25320291949786 8.883677115022557 7.3449317824333225
Ag 8.430612962101948 9.034243479788476 11.36506545353241
Ag 15.108981328916858 10.77515690439344 15.339025512907545
Ag 13.799162220080794 9.264014743761098 8.249365517915553
Ag 13.244966053320857 14.058384392582482 7.820582815807549
Ag 11.814171633189055 11.764854107928716 17.350081191711165
Ag 12.01395352674803 11.456767688704522 6.378122690204328
Ag 10.98148344651164 14.095961963626987 10.073505725998022
Ag 15.987781553798385 14.720999274417482 14.875442096041873
Ag 14.664039298489286 11.683981417897327 7.22793331599021
Ag 8.897024073203111 14.180310687115066 12.100107321928629
Ag 8.836336168036421 8.435293799187757 8.632047378692214
Ag 12.479296863073769 6.939006026929196 9.282897381041456
Ag 8.357412875955104 13.15945914874531 9.428644325469591
