50
Energy = -108.32354454 eV
Ag 13.89243978526436 9.587172423990102 9.716975612504093
Ag 11.013826461838065 8.645999805187666 9.547103188037246
Ag 12.10828240200964 9.483703958846919 11.924864793308682
Ag 8.888995074952824 7.842340281873649 7.902453878615175
Ag 14.807393459713882 8.9926446280606 12.556175997508827
Ag 13.096087227871331 10.990507249058702 7.397979471086076
Ag 10.117087128019715 7.744087107136491 12.591825486001825
Ag 10.865143457590177 9.529526478694384 6.889297777194279
Ag 16.48490836683387 10.613029005211247 10.911445515905344
Ag 12.528613437076656 8.0287500554118 14.213670846276582
Ag 15.166883122423776 12.039172188134472 8.933012325719293
Ag 8.383524855628613 8.567690842269775 10.547537027272226
Ag 13.373879474084186 13.747354830216615 7.297657632062252
Ag 14.724165286711205 9.48706740867631 15.244475814201415
Ag 13.962825636044046 11.54358532795335 11.685569490273595
Ag 11.616119291922603 11.44997311822761 9.807984536579012
Ag 7.921383429734139 9.539081385034113 13.139152958196409
Ag 8.88831220290517 10.539776918482683 8.53246088352333
Ag 7.61892293233827 11.256598123040582 10.951485752565317
Ag 16.77131744953616 10.758654325814888 13.65265381400616
Ag 10.248062664333695 9.578330748666584 14.742316753936244
Ag 10.037813755232046 11.293453957817132 12.342664359185846
Ag 13.400185574472376 13.84731479170561 10.097835181324001
Ag 14.703429436644587 9.544622453266399 18.05738295041084
Ag 10.673676787500197 12.395298315785631 7.196475986750076
Ag 9.024724998757355 13.13871102042619 9.414046137338248
Ag 16.485295796378733 11.164968433948495 16.512091453556756
Ag 12.497253670661228 11.298892998793908 14.137242147165958
Ag 15.983205241641599 14.700097883862462 9.416508542387948
Ag 12.24962303895836 9.334312950253006 16.70605313940221
Ag 16.028759350469354 13.408566379545713 11.97704444318164
Ag 8.506127164945914 11.854696465384482 14.675091581955062
Ag 13.251752926456964 13.906101991198854 12.912567800883348
Ag 8.332613835739846 13.662523547244628 12.37112192282163
Ag 11.130096094989906 14.8406642405638 8.588154945990151
Ag 10.926190500069444 13.7639398134546 11.366281750622276
Ag 10.880011446600847 11.854372739211362 16.390115877422797
Ag 13.627039669652582 16.223475769738084 8.707649884021157
Ag 10.693952503333891 13.558513042935333 14.222726243532522
Ag 15.142768122783744 12.68976612795021 14.636289574217928
Ag 13.678440806086956 11.76882280554518 16.83206683874584
Ag 14.634177935530728 16.011294354556544 11.537942038373396
Ag 9.136849887177837 15.782088524651579 10.390370039342137
Ag 15.255703502841289 15.437839248563142 14.193015502425343
Ag 8.288948384838738 14.689016977821959 15.020747868110881
Ag 11.907077532702205 16.350200394452745 11.004943976147388
Ag 12.999546178158912 14.268364594112947 15.732941680529548
Ag 9.88677539276591 16.069921674234827 13.071965694370268
Ag 12.645386985903448 16.469122518025568 13.77747401014917
Ag 10.758912937200586 15.952502380289873 15.769601480190042
