5
Energy = -6.93853022 eV
Ag 6.602001401855422 7.938333806219673 10.139119876084472
Ag 5.93454557146197 9.684031308465583 8.193323112717236
Ag 8.28392129621005 8.410490148111062 8.109204262061533
Ag 10.319836470186866 8.53869782540371 6.385900800014956
Ag 10.386101647524825 6.770637313468572 8.421272113922123
