55
Energy = -121.75689863 eV
Ag 9.149409686092058 11.14659747828943 15.928846735268301
Ag 15.551819317207059 13.648728061699812 11.855604584537302
Ag 14.481362176377651 9.584619389512866 15.52640444963973
Ag 11.239981317006787 11.817270237332135 9.812587697009912
Ag 15.626054182710147 13.94370444175933 14.730994814949847
Ag 14.258847850506914 14.615831111693005 7.742601426965734
Ag 10.821447807604743 11.460701587478868 13.649122071085761
Ag 8.84016143045019 11.731331443003267 11.441748907144289
Ag 13.134594988227162 14.40968474224103 10.377719817434233
Ag 13.874374757753738 11.606760678815574 17.47529403533082
Ag 11.204203122198464 12.517068511381929 17.247427373861388
Ag 13.162840678220627 14.609087274546424 13.269535491853937
Ag 10.542717240682542 16.04652892170186 10.235822942959997
Ag 8.382608585758334 15.077648420298315 11.948651639937323
Ag 13.251584369804764 14.72032267586848 16.227227215728227
Ag 10.610215801511117 16.57707252508835 13.005809082084296
Ag 13.932591419232834 12.075924891163716 8.983320011543036
Ag 18.352654118246424 12.599548709726887 10.710450592405817
Ag 15.97455857592448 10.978863861501365 10.53694401182352
Ag 13.185257151665535 11.986763399676503 11.93332357727638
Ag 18.151830612435912 13.249551764509187 13.378273057708233
Ag 15.626174507613293 11.366965406446685 13.536971230527445
Ag 13.241859365989598 12.229088696911482 14.819006013780779
Ag 9.11681358453355 13.717130032971482 9.573982958147731
Ag 16.44222387186598 11.478308372839093 16.345845054680062
Ag 12.8357626783841 16.77044350768164 8.803131637322913
Ag 8.712440756956488 13.796328513891739 16.705906476170846
Ag 15.351867024126486 16.096080492985784 10.067020018100141
Ag 12.990735473849742 16.96185689788999 11.605071249037373
Ag 10.908656015611523 15.240884913991145 17.746086898257516
Ag 15.411835009214126 16.426046412678033 12.920027024433978
Ag 13.11264815241209 17.18764140111919 14.423708552477773
Ag 13.09511558460895 13.882867230675298 18.908727493663857
Ag 10.764932957110604 9.645870068359164 11.499692071525098
Ag 18.037776094862334 10.432217693053227 12.44433552829688
Ag 18.06674402615881 13.766047975682032 16.168646278221154
Ag 11.770789688130561 10.054686129545132 15.952210785548239
Ag 18.917064249424726 11.250351371255546 15.084214705786128
Ag 15.617954412121094 13.960799934661122 17.59945576540023
Ag 11.488326796202026 14.181704662308404 8.16899113509885
Ag 17.70285618576608 15.32720544924246 11.442080690843397
Ag 8.441665220221921 15.739859365145605 14.680707963197182
Ag 10.79272685556344 13.728186674975875 11.960372485543063
Ag 8.633741682775282 9.841722260076425 13.491635476923184
Ag 10.653405219618707 17.080853688987265 15.724377412071995
Ag 10.804591295711463 14.180273061444607 14.867687825519887
Ag 8.313952334603284 12.967047809407378 13.931165587382464
Ag 13.02551039184698 17.256513814139236 17.2490294511068
Ag 15.457892433198978 8.87253216484449 12.413933313306172
Ag 13.43912084233951 9.663088580990918 10.475562268945216
Ag 15.48090064365646 16.473150786637184 15.913595998110782
Ag 17.09328385096575 9.192374512066447 14.723272393769173
Ag 12.848228628004538 9.426121898110962 13.31935000050237
Ag 17.752996740772634 15.850848820678118 14.30204705098538
Ag 16.348413415455724 13.57941245031506 9.142562848063692
