55
Energy = -119.6196069 eV
Ag 12.141507271182844 11.031672134169497 10.066439519732041
Ag 17.547319471208116 16.809772232657142 9.423638933913654
Ag 13.889575466396984 12.788025953416419 11.307951639608234
Ag 15.513410658734834 14.699234897207647 9.995943645785719
Ag 15.393010047337027 21.317638784415255 12.383481858940234
Ag 13.104886244847515 15.843141912060517 11.316354920152147
Ag 12.970363619578839 10.478421138371449 12.718636473399856
Ag 11.649347185884082 13.86586527089838 10.033108517886065
Ag 10.93912827374221 12.287922454922276 12.237752981859364
Ag 18.35164571953901 17.98709177980216 11.973587845030991
Ag 17.848725883354064 15.214059765645215 11.624684407592914
Ag 13.928823805437409 17.112674884459974 13.772627587825072
Ag 16.039113717955107 18.880819271959886 13.35885019390723
Ag 15.153219838945704 11.96605589072723 13.863304524000082
Ag 13.657186455977644 19.105693696179525 11.711466648203675
Ag 16.74254528517248 12.541082682445184 11.616729010799423
Ag 11.446297670284494 17.72271765136705 12.849149254994973
Ag 10.693683244391197 15.042323884633046 12.496627584550142
Ag 18.11915767733924 20.605011000919816 12.93386986858628
Ag 10.539521500282143 10.5366962752005 14.374423038191654
Ag 15.640384078989184 17.11624332434348 11.33412030728059
Ag 17.691711865162524 13.766211921102299 13.982008888717342
Ag 19.293013979394477 16.126061890652565 13.91565690569184
Ag 16.585897892126223 16.29236431967872 14.733092189016254
Ag 16.358692059080777 20.982452010297884 15.119176885052687
Ag 17.763959280099453 11.118314181229268 14.47441316127174
Ag 15.838934623666729 13.661894121654443 16.286159524053154
Ag 15.664812519980835 10.838379873687307 16.40129154710101
Ag 10.344717652333268 13.276104920125437 14.85211031055913
Ag 20.038836926505525 12.846863742463084 15.02114732116833
Ag 18.22298010343582 18.549667160603725 15.018117189647677
Ag 10.828212614079112 11.501512317809437 17.080746284443077
Ag 11.448434402097066 15.875348060864784 15.087139476723067
Ag 12.9153336307802 13.752272497801965 13.870678890335808
Ag 13.05588985730421 10.908588014773574 15.4462748346844
Ag 13.662027293891548 20.00072002554405 14.416248156572536
Ag 15.404357704938898 18.53473987116247 16.178241963894365
Ag 15.286337704851217 14.69574571224495 12.882009582926035
Ag 12.648343184309216 13.561931985526154 16.62634310668904
Ag 12.552122091925915 18.17945204532626 16.233425632043826
Ag 18.642361420587825 14.939405017106338 16.357583669437375
Ag 18.205423503802614 12.154610221978588 17.076058708185176
Ag 16.635036064214475 16.44851512851556 17.581724033642352
Ag 13.449933173827045 11.315645654453732 18.198080322205502
Ag 14.223405191229748 17.415638948069045 18.584346782350934
Ag 14.154704654563043 15.837878932873316 16.21908081345627
Ag 16.043012522278534 11.865116274305473 18.95358205004933
Ag 11.898811492058588 15.920103091205517 17.960877106743247
Ag 18.60171524039389 11.87066393090083 19.93333310340553
Ag 17.650766058440354 14.237694251261518 18.886856908518745
Ag 11.710014376265201 13.329642410098998 19.220824531504775
Ag 14.4050141398669 14.41521948199225 18.745480877408447
Ag 16.049542983718144 16.038406002378224 20.319422318953293
Ag 13.945283127645158 12.455767926100084 20.727182331479558
Ag 16.52373472510232 13.387130346947353 21.270763006364252
