54
Energy = -117.93865264 eV
Ag 12.591836218807456 10.327053285145338 16.336355541854484
Ag 10.024760870551583 11.194247334970452 16.311766487200135
Ag 15.778611181366731 7.029104544196975 14.740517334860082
Ag 13.162102069197676 7.7903106650615745 15.209509990817189
Ag 15.273291044441931 9.526070780224803 16.020475113574708
Ag 10.432588790906719 8.43157351278252 15.596064492838398
Ag 14.604266352822208 12.268514386223194 15.64678057659339
Ag 11.899361009380394 12.66669066393648 14.799777583489506
Ag 16.37584889647322 14.260603994795703 14.940912479746054
Ag 14.269948224793332 7.743745526883146 12.439907394900056
Ag 7.8868614044962575 9.67821143314774 15.415591726335116
Ag 13.776097117585191 10.253583903079061 13.774536697756169
Ag 16.609601528453073 9.325207014584175 13.507912137986132
Ag 11.458410232130872 7.485001625930495 13.071450179325913
Ag 16.109500921275032 12.047982608140744 13.223639404621686
Ag 8.762936719200232 8.120079705592117 13.278780402450844
Ag 13.649285464869315 14.833904837169213 14.808451764701504
Ag 10.65817431606197 10.422108779374678 13.576634265107527
Ag 10.892277086719746 15.319139134193165 14.481455003345149
Ag 12.378346157600621 6.863905298002398 10.48665610685125
Ag 12.326567155065518 9.612657391782355 11.35117614493508
Ag 9.919944636038178 8.139508629732118 10.72826046180942
Ag 12.994603999262301 12.333719206729635 12.1186321871182
Ag 15.289179148263266 10.155305213398767 11.269724908136194
Ag 15.216888355036147 14.535728489522686 12.435739817378943
Ag 7.545150010099912 10.588890971806384 12.79160739757004
Ag 8.090728824559905 12.46298576015151 14.739732643083045
Ag 7.162455247800395 8.580770151775571 10.945931968724949
Ag 8.156295186098577 15.09006688136971 13.82131364186047
Ag 14.07288950358989 8.623708156684806 9.240124535487736
Ag 16.041062343614286 12.708976702773338 10.414163060618113
Ag 10.06043328978626 13.17613224638089 12.681712651989326
Ag 9.823998919879386 10.972532316112794 10.887083532494286
Ag 16.037527314843512 10.540866255014683 8.541504464325053
Ag 13.518448150522083 11.491399535803364 9.494917121399087
Ag 6.9018556446664565 13.213483805697138 12.227765849680994
Ag 12.449397130600957 15.101207797074357 12.220077119658912
Ag 11.354946623199403 9.831912193435304 8.633115756106582
Ag 13.940609129083182 14.433595949424301 9.942699307132795
Ag 7.155906728075192 11.34805360625289 10.113138880656996
Ag 9.873924302620885 16.019458327387788 11.861144006701055
Ag 11.320424438251019 13.272683060317032 10.034118757616376
Ag 8.494574938248338 9.351439496488874 8.6134593858078
Ag 13.700003010684863 10.279033862121077 6.949129749240491
Ag 7.1111939167452665 15.875388851728367 11.306279527977557
Ag 14.86126132980033 13.021534474225037 7.616982916188112
Ag 8.553466709566388 13.860719969289471 10.056034280395348
Ag 9.391565977584527 11.918521035050045 8.170361270679605
Ag 12.004344353256588 12.4517449445883 7.296823485826952
Ag 11.730476385715251 16.172733131763795 9.736224841474046
Ag 9.000885861259052 16.64400371707302 9.28511060646697
Ag 10.176955361772556 14.55545595714069 7.732148673119124
Ag 12.964843255571354 15.130558019787115 7.3722306695777595
Ag 10.951630559668152 17.143075182847866 7.255899984020457
