50
Energy = -109.17678073 eV
Ag 15.655215496734213 13.846493066168517 14.347421792429385
Ag 13.64024492844029 15.894831394128367 13.62841063590091
Ag 16.88649259734124 13.007197459381553 11.352650904000892
Ag 12.896861865443048 13.472633112756832 14.847378301852299
Ag 11.307387361058142 17.044399884121443 12.353564248332988
Ag 15.588165992895386 11.273134864201031 13.137686505098833
Ag 12.976021907643805 15.687898039118343 10.375804976824638
Ag 14.563527452118695 11.47172849037069 15.752100755019738
Ag 10.900740751564992 15.62250648820653 14.86563711485813
Ag 14.317982583536926 13.758067457031647 11.94762466882005
Ag 14.532260803972072 11.260666921796808 10.538322769592632
Ag 11.581634601116667 14.337630068858408 12.455877541540772
Ag 8.281219408475918 14.769632654762852 15.418855757710041
Ag 9.606258384588646 12.546118677872004 17.004876096196405
Ag 10.148536532047682 15.363220253323378 10.17612070516684
Ag 8.918646701410063 15.519534928610673 12.765553663843857
Ag 11.77438123731999 10.919021054236323 15.499909319579467
Ag 12.215913618032536 12.914230780783361 9.97628589449837
Ag 13.598046170666736 9.457848296950454 13.940868299789887
Ag 17.22334945050351 10.246899802323401 10.992916478206977
Ag 11.758949742734464 14.695471088560502 7.921133248814373
Ag 14.6941218701455 13.781043669828618 9.051097176489433
Ag 16.727934374850157 11.867282019469911 8.747777596027026
Ag 10.063139846238048 12.861775497504121 14.375201856965635
Ag 12.424997287226175 11.691277585342094 12.568765036447154
Ag 9.381011306738792 12.83133840421088 11.682107024409412
Ag 9.075573110099612 10.185726869544471 15.499710016886336
Ag 14.362159556076026 11.53596842181295 7.30779608355
Ag 7.2162043502431565 12.221223804245064 15.450361971458735
Ag 10.122986565807338 10.252538201645534 12.900684073843118
Ag 15.135078793240043 8.585823554593349 11.636364877845804
Ag 11.126203482869219 8.215315048861028 14.505054066843654
Ag 7.480603532729419 14.448375421371773 10.435493300546351
Ag 15.621053115042596 9.219320103540296 8.854259035520405
Ag 6.9400767621001735 13.579371090928955 13.046100929656742
Ag 10.475063624782614 10.80937585097102 10.14418103927687
Ag 12.390463867335736 9.172127356829145 11.397992169154708
Ag 12.689216958845797 9.88809053136178 8.700879110604605
Ag 13.117150119743053 6.87049305780361 12.683915884205275
Ag 9.388354941838504 13.100304411078778 8.676558933076032
Ag 11.521979315506028 11.92371956402641 7.337897223525736
Ag 7.3894311162483834 10.837637988915612 12.991689145941043
Ag 8.334367386365205 8.218025031668011 13.646335746804333
Ag 7.46910566489518 11.57386324099993 10.180110295632776
Ag 13.513959069069626 7.38193214337352 9.551714548194488
Ag 14.00577256982463 8.739180101969948 6.669219446544674
Ag 8.4380691276311 9.000395412992034 10.83411491785015
Ag 8.892858666312474 10.168531209568872 8.076455351000641
Ag 10.382324771500764 7.246379014775038 11.966481428311148
Ag 10.626510409817568 8.081372393805879 9.270282410576707
