53
Energy = -115.58346725 eV
Ag 13.728733847364422 7.107036015725754 13.23866242359214
Ag 11.326971074649673 7.48749410344521 11.90223978562648
Ag 11.350543254597307 7.27448846060697 14.71356380536314
Ag 13.642381730838778 9.098788481177094 11.075420311609125
Ag 15.316864307167293 9.280229078761794 13.46644278186124
Ag 13.661726115718647 8.664343283247282 15.739589856550715
Ag 15.612763895860823 10.75524086632788 15.74669675350986
Ag 12.29815368520302 9.737827429932347 13.517377743182761
Ag 16.92712796408163 11.669252934738207 13.139015550509168
Ag 14.98149071176014 9.88339661162797 8.74385143133277
Ag 16.472730177989575 9.696882131033629 11.055091435899541
Ag 10.757939959064192 9.983851892835004 11.0143698695799
Ag 9.555325651699187 9.250110938028563 13.517313689849946
Ag 17.781514725699985 12.348987409858083 16.041289943368056
Ag 14.540874773717054 12.54347948223966 7.882759807662396
Ag 15.090676053714619 12.100170309828778 10.634408082952023
Ag 16.66676626089293 14.217176973934443 11.811419476245673
Ag 10.843809355626938 9.557656897361092 16.102455072326595
Ag 18.46683022583645 13.947601959863208 13.912322996653092
Ag 14.102029001907821 11.82654501059926 13.338836062651268
Ag 12.968915686101854 11.469577074973719 16.03720709869043
Ag 12.572316706912632 11.097290413828539 9.315849323672419
Ag 15.257943933604523 13.126266171739369 17.186034412556708
Ag 15.572562349367448 13.921968370050926 14.47358188631716
Ag 10.06323649743763 12.462332549483131 9.72819800900358
Ag 8.833139760271024 11.659751647444377 12.168202585742542
Ag 10.519037557743404 11.99205741293107 17.335970912121415
Ag 11.750543902614833 12.473085329719924 11.984316292259436
Ag 17.300705009046236 15.078603339773036 16.361705817206133
Ag 12.527376668372185 13.850692496631543 9.360808715790451
Ag 13.842346524143753 14.434360640067814 12.008243401524222
Ag 10.447592650233029 11.851015694233054 14.501541955017956
Ag 12.556347754951908 13.95930304103257 17.27916620899186
Ag 14.569998431402057 15.845151373655854 16.82896759585172
Ag 17.06744670515982 16.34694094302715 13.674269602285161
Ag 12.538576577171057 13.987232327476463 14.427350326480152
Ag 15.153350279522984 14.776974182894826 9.497018890094822
Ag 7.911099623287704 13.906127868848218 10.772743322954359
Ag 14.166521905539435 16.449798848536044 14.071671433234336
Ag 10.010206790030415 14.306170752686862 15.869801801956374
Ag 10.377395104359614 15.160399425321536 10.502339044191869
Ag 9.566888694126913 14.244999808399736 13.072207539375869
Ag 15.404422116272965 16.847671623770214 11.471684256791018
Ag 11.610602544052453 16.28873883961583 12.751525494208694
Ag 16.48987673066164 17.719194231216143 16.018093407855115
Ag 11.925868803350964 16.417609499085053 15.982395098859365
Ag 12.86476765330325 16.49634560058557 10.245275598678145
Ag 9.51529426176297 16.681635851433423 14.526201235177254
Ag 13.239421260627365 18.57658954847744 12.083997235637073
Ag 13.834796944077162 18.545651062290123 15.976416666918004
Ag 15.639977451993092 18.82088266997134 13.559354086816109
Ag 11.534785404335521 18.628490144701697 14.317187762327215
Ag 13.47633466000915 20.583882020768527 14.079993201484125
