53
Energy = -116.3756515 eV
Ag 11.047953596680863 12.067944236581177 17.217500391626526
Ag 11.82862108207083 7.600107107738931 14.116226602398477
Ag 8.79244538441623 8.37866557011356 15.160968943542542
Ag 11.156318694271762 9.778901814354631 15.660246751992302
Ag 8.687955719718959 11.259112777345383 15.883855751978201
Ag 13.438574165575908 11.353121275534438 15.936019457502228
Ag 13.103087094452254 10.035210282749366 13.538717383820897
Ag 12.590851224530201 14.095991693274126 16.09444709279401
Ag 15.719490042922086 11.369170009817076 13.688246680275029
Ag 9.45532269398654 6.7978488813214035 12.941758613948917
Ag 9.66775735672111 14.288179756379447 16.11038952030087
Ag 15.2640497460744 13.383037844158924 15.711382100018955
Ag 11.815392435750041 6.126826974404823 11.637109963661082
Ag 11.156967893524094 8.834302390248986 11.650691533296214
Ag 13.881641850244899 8.142549811367395 11.53419485272988
Ag 10.762956339222686 12.565903516098691 14.294059397403954
Ag 9.37953318955403 10.309080556950306 13.331500637562957
Ag 7.389622054493687 8.522414395523848 12.446018941430431
Ag 7.797065545332305 13.392004667031953 14.272198035658404
Ag 16.531195323467898 14.171662388638438 13.420071465341916
Ag 16.424706732547705 9.52040970861559 11.504267293962329
Ag 16.843586761161742 12.513824165212625 11.288599653813694
Ag 14.188345813552845 15.569165552450107 14.100977386205482
Ag 13.442622742346641 13.003896873776432 13.397566489129893
Ag 11.56662771846882 11.585048720190755 11.742815436909364
Ag 9.346746182327372 7.3446173657599 10.183068116046348
Ag 14.333563534651109 11.223594797889712 11.157417963760999
Ag 11.338190649336482 15.418433569470885 14.010720721297094
Ag 8.721089982068763 10.068286564378194 10.560322883976221
Ag 14.779783677664179 14.649697294756184 11.342690499834607
Ag 12.836028675554584 16.64538978366728 11.866482655258247
Ag 6.755041929156084 11.260693003990996 12.539356250518034
Ag 12.333959573274825 10.280059151545043 9.413868761904315
Ag 16.60530992784293 10.921776795133056 9.089005825247709
Ag 14.768700357822429 8.860916174172434 8.996903568433952
Ag 9.034995401052987 12.726260984108853 11.851519185411814
Ag 12.143576756381341 7.492280100254924 9.221945709828576
Ag 12.71841621599861 9.132506054186969 6.940974554781667
Ag 11.379595902607695 14.338779061938139 11.403368339556112
Ag 9.0001934302274 15.492444925368535 12.516378454633198
Ag 12.904398034193202 12.998612893493277 9.471753521839537
Ag 10.079904176301737 9.35019278992304 8.18567518239407
Ag 6.610044150918386 14.105559557536164 11.817759471609737
Ag 15.603450749091325 13.560704850426967 8.899710188782292
Ag 7.187399045263473 12.257162236625875 9.763229826402197
Ag 13.327201718827366 15.764847747980408 9.196604056860888
Ag 10.682241654469061 16.622550434526094 10.044224706475504
Ag 14.41868728986896 11.32952416824131 7.479707526211287
Ag 10.013253746160018 12.165763636948657 9.209449160761727
Ag 8.680471576833195 14.670206095716965 9.761122299548493
Ag 11.685494517936272 11.832468665965196 7.024313102984057
Ag 13.57028282534709 13.99354161442749 6.95030301283871
Ag 10.968865422874373 14.574240002246254 8.06785140600726
