5
Energy = -7.3219468 eV
Ag 10.418141306207318 8.913916063689818 10.09069136651089
Ag 8.632304076015078 7.467220534617859 8.690477695053273
Ag 8.751570770945436 10.20196763265317 8.39999677809475
Ag 6.715867301337133 6.1152966565030304 7.358601543738573
Ag 6.943772793989802 8.763140892805309 6.921827574770444
