5
Energy = -6.69428556 eV
Ag 9.761812471141543 8.45836202198743 6.748587825207302
Ag 9.255942867245402 7.143277693288648 9.59346295201865
Ag 7.377274505408055 9.726768863553275 7.035621985355336
Ag 7.562189235095811 7.088004840538287 7.5075251575583595
Ag 6.804881850982398 8.292518379844418 9.805358194096927
