54
Energy = -117.85847239 eV
Ag 9.306509149774776 11.109574355631555 15.11386167082844
Ag 10.151634472569048 8.191103690266244 10.39731151288591
Ag 9.402041165294737 12.786984245273302 17.349707021342596
Ag 9.753718638433407 9.586552916960605 12.8550601512861
Ag 11.358861642755556 8.780648014631085 15.055899104765713
Ag 11.904032026243444 7.587516266686649 12.512907276111212
Ag 9.726495234742712 12.61405283147878 12.519539989202476
Ag 11.56683270931403 10.973262291402516 16.85170581584111
Ag 9.294535260973843 10.83249569967225 10.379386738129822
Ag 11.961883792858401 13.209862747675533 18.482413612348378
Ag 8.534102232679482 13.811316937368522 14.81502667245127
Ag 10.957682654140756 7.4697917938653395 7.81487441398393
Ag 13.912181353497386 7.405376940688715 14.39544710705436
Ag 13.893548164625793 9.858291809893755 15.587535728552519
Ag 11.841102785829293 11.386489237443852 14.04078591632095
Ag 8.510323743249563 13.41862280866099 9.793692903019995
Ag 8.969746224766524 9.369689917399745 8.06110172571641
Ag 14.199895858262241 11.823144794426323 17.495700052869353
Ag 11.7348826496053 10.131514452008368 8.475871297145094
Ag 8.52987505601109 16.133286068539256 9.34717306419975
Ag 11.333877481729944 13.85348862690565 15.684965333456873
Ag 14.605722075767805 13.785932201654763 19.34780916751321
Ag 9.813485203966923 12.028475971488113 7.751581471271249
Ag 12.126311763580519 10.230456877781357 11.446847659486854
Ag 8.041067629721452 14.954565900828827 12.221234259202674
Ag 12.886175805861315 7.88663354935781 9.766266715189202
Ag 11.572527451326144 12.552659030251647 10.02810757608706
Ag 14.51121802292086 8.599686049274354 11.862475928457618
Ag 10.553302025475418 14.96279992113831 10.931920997670572
Ag 14.357497376974402 11.222913069634735 12.959410489903046
Ag 10.793031058237096 14.598338361944087 8.12559512302474
Ag 10.358906888774843 15.574226883116417 13.690748195456173
Ag 14.028008936906188 13.188132830746827 14.926112313842072
Ag 14.29165374367042 10.358121747834625 9.614813639375111
Ag 9.575125096092723 17.428688624487524 11.672108241805764
Ag 16.16187060649869 9.202056673384066 13.931561260959326
Ag 13.65484605828874 15.012502869039443 17.03673055018373
Ag 13.497949855237783 12.66268297523856 8.035555259239322
Ag 16.22224263049101 11.447833110421747 15.494850718147227
Ag 12.544890470419634 13.651885529006337 12.506553492225926
Ag 14.6313056599378 12.943775825857122 10.713680784399875
Ag 16.18372747051458 13.8068921335348 16.959426017199533
Ag 11.193098739856593 17.176280724086197 9.289444591054641
Ag 13.009111347262879 15.839257568679034 14.465681385151646
Ag 13.087302276224428 15.095737868969325 9.714472770760436
Ag 16.55119799526059 10.863996137134277 11.348189512396747
Ag 12.444703734903204 16.823642332582477 11.94071499210616
Ag 16.372673644514766 13.216223460510115 13.285880676468366
Ag 15.754053063559862 15.541867629020125 14.835740166546072
Ag 16.28884919455904 12.031316290813695 8.637167024892717
Ag 15.651734145032938 14.7792964654553 8.834149050870119
Ag 15.000069822163237 15.384575366862121 11.963351645843732
Ag 14.7379884428527 17.73805182430659 13.426360874335778
Ag 17.33316599106017 13.691122344306986 10.75602148971142
