5
Energy = -7.32248739 eV
Ag 9.196480902535319 9.08608639322247 11.892708936549893
Ag 8.56715689397836 9.82009370504631 7.2971436977376
Ag 9.434348968006233 8.228473623374784 9.361200923848926
Ag 9.545321538541831 7.347757761741944 6.826124224963055
Ag 8.49268010412048 10.761715159137404 9.883169498236224
