55
Energy = -121.05814581 eV
Ag 13.990311090409348 14.331506790194158 13.891505935901662
Ag 9.337385370417822 10.019798199659327 12.809392068669071
Ag 13.760834303170927 9.897897854868251 16.412951180065573
Ag 9.209804680170567 14.346177287214998 15.232979928568975
Ag 14.127558412983573 12.879076068557906 11.414951803416454
Ag 13.82677991077387 12.871894189677354 16.363141610851965
Ag 13.970458226584103 17.2135648087552 13.876388692222886
Ag 14.147352727794956 15.846048700716892 11.372261357150382
Ag 16.172480274097616 17.082385387119313 15.637661470846274
Ag 13.97322968101358 11.416114810430537 13.885068660995302
Ag 14.128719252500076 9.913660289876299 11.363008732140456
Ag 11.447334486778557 14.361126717021369 17.089800921423727
Ag 9.19307098200797 11.416325587017681 15.232832852796038
Ag 16.49992634083732 14.337348785989294 10.740927520372049
Ag 9.135535651736184 12.889491912959128 17.61130955086112
Ag 13.937511354133846 8.539689314540514 13.856203776317336
Ag 16.488155661415064 11.394133747727361 10.733231668545715
Ag 16.30940271915001 11.43778808802867 15.65823251276478
Ag 11.581575514519328 12.880848618076582 14.546848477269947
Ag 9.408684830088706 14.323812328796715 10.327865015807816
Ag 16.13150932912013 8.639977291315795 15.630751026833952
Ag 11.592028307243616 15.840176477365814 14.623728674693696
Ag 9.390959381452664 11.449754687229847 10.32647029601368
Ag 13.790827926440235 15.847048055014687 16.415185429007085
Ag 11.556550704886414 9.92442264580528 14.612568321879378
Ag 11.881273601112008 12.885237645630546 9.636690308365067
Ag 16.32736798457011 14.28272923914257 15.67053802037891
Ag 16.435827965833873 12.860631927440922 13.189709896189763
Ag 16.512323707383974 12.873242040011808 8.334804559292413
Ag 9.592005242148112 12.887600985814775 7.857918097540831
Ag 16.367914010405787 15.73971273897615 13.169863716292767
Ag 11.920682922163627 15.874450417483732 9.595761525827596
Ag 9.621166248668061 15.709693727086792 7.900068669923679
Ag 16.351496142868534 9.99230354600302 13.166521444729947
Ag 9.56189925095233 17.13879767230008 10.378562402573547
Ag 9.610349113249075 10.064267054814056 7.883421291314189
Ag 11.746967985655555 14.347803513310616 12.10346322985219
Ag 11.895225632030208 9.89279526223378 9.575078536744932
Ag 11.977781312083717 14.35877924045856 7.188011190384373
Ag 11.768108636461452 17.24124756560512 12.130308776441055
Ag 9.530357273206127 8.636756391582644 10.3600485213893
Ag 11.969719182952822 11.411524722214152 7.180836438057449
Ag 11.733416551365499 11.418645243947735 12.094324868068181
Ag 14.275282539329355 14.47920454281197 8.902653521642929
Ag 14.307911215088335 12.878840145745931 6.594077685439128
Ag 11.730738464605487 8.532541106998362 12.123024772075944
Ag 14.264847225360826 11.275177231417791 8.902799128658355
Ag 16.105705353064174 12.857492134817555 18.150999943337506
Ag 9.27391721719292 12.883342867034484 12.783946363000592
Ag 11.427063271170008 11.390438181749468 17.075647026481676
Ag 16.096489599841245 15.671612388493752 18.111795915599235
Ag 9.371395611782944 15.75751619012091 12.825629757566098
Ag 13.724142073432429 14.324001069773812 18.790071726955247
Ag 16.04847100999363 10.043863769000627 18.107244286893742
Ag 13.69835594576654 11.425872203484346 18.787100303031643
