50
Energy = -108.74477942 eV
Ag 14.833418856570642 8.023040253510318 10.394232593618383
Ag 16.206917438172407 9.241109197025997 12.402417299416852
Ag 14.506231899454443 10.802695589338553 9.568121223927761
Ag 17.075621991785347 11.620832173814446 11.037262228618632
Ag 12.586345085372203 8.672652314763186 8.871296372764673
Ag 15.304662753717892 13.61400166427463 10.137857069056395
Ag 13.433206228946755 12.996300140953068 8.129248002387907
Ag 13.229820774768623 10.493250749798474 6.965036194212003
Ag 16.46831367842761 13.953524192978955 12.6746594324154
Ag 13.40474925569314 15.589406412910625 9.263626233170323
Ag 10.972334120826932 12.174025290689029 6.883415505438294
Ag 17.050445648147978 11.455187738824977 13.938639334505247
Ag 11.00075688866645 14.260585031318987 8.797306048031563
Ag 13.799935735661649 7.592876862313686 13.254800049633644
Ag 14.724028043316547 9.888933158242997 14.63240466926475
Ag 12.349587197706958 6.7958777523005605 10.941612222825501
Ag 12.840947215975868 9.630169832022831 11.60039231082513
Ag 10.94674364680047 17.014365797514717 9.189322329943762
Ag 14.660682982574794 11.713807729395295 12.309225200941842
Ag 14.462256578163288 15.726241793480588 11.803196171439636
Ag 10.135122055271822 8.533021252795473 10.241476491522969
Ag 11.30516619655379 11.157578284597921 9.49136056811384
Ag 12.649704382586457 13.131127551194428 10.928585638386062
Ag 9.45044352289934 9.885064195410452 7.838260500414181
Ag 15.052798963400704 15.567579686382244 14.561302968824744
Ag 17.214015738591524 13.93526280261198 15.351778266482786
Ag 12.397809391792565 11.503700896746393 13.974489465069535
Ag 12.05667741741276 9.023723028593324 15.161561360631278
Ag 11.135471413973521 15.631905761416887 11.620177102748814
Ag 8.741231205118776 15.411269722003516 9.986237415441801
Ag 10.833033393131918 7.8730761109719 12.973776953934612
Ag 13.295496144513411 11.017255943420327 16.752251712376847
Ag 9.820290761194842 13.064913658141428 11.178945843486066
Ag 12.769038971731007 14.223763236652365 13.461788037185997
Ag 12.761522744130877 16.991885000585107 13.671391549171787
Ag 14.73869185115636 12.790001028347728 15.055488681324237
Ag 8.726348979346469 12.649637154618635 8.436419520932288
Ag 8.149277648591474 10.615844747043347 10.22605493517636
Ag 8.13698625093883 8.678495206366778 12.284076785404705
Ag 10.328816650863253 10.583967333611097 12.264473357730283
Ag 9.241243047652663 9.609633777658454 14.642630744685663
Ag 10.43867108871199 15.641388361467742 14.474802099319428
Ag 8.328097693540764 14.845717323183175 12.735487994338834
Ag 10.531702829480265 11.327238547739114 16.361608051686062
Ag 12.130259514420889 13.626731724816388 16.065136257376786
Ag 7.073197560210586 13.237744949117678 10.63318019157068
Ag 9.934554316518453 12.922352991517863 14.040272058783685
Ag 7.715771057815927 11.543452768289464 12.864763218676357
Ag 7.840183878041211 11.808302455816829 15.672861189068326
Ag 9.403051091626814 14.009655451244608 16.56199885188862
