6
Energy = -8.30151749 eV
Ag 12.81584424441451 15.425520075252855 12.114798054892931
Ag 11.78285547501288 13.128970920529465 11.518809795057646
Ag 12.178503132613267 11.017387832429305 9.76183627521369
Ag 12.017376102061183 8.322035555650205 13.671629214880548
Ag 11.317327399203585 10.395114413712577 12.292287579035476
Ag 9.696648947474772 11.662853599292761 10.33884899070898
