6
Energy = -9.58458517 eV
Ag 8.699914460017391 8.3808540586415 8.358610319153206
Ag 9.625140121756122 10.673068951779266 7.316093708321124
Ag 11.353963747089063 8.770400046113854 8.488052994081526
Ag 9.965907054086674 7.408316274632978 10.51934952930375
Ag 7.256905581625095 10.597162180437483 8.851534406321056
Ag 7.350973620386286 8.465496934003376 10.68268168263575
