6
Energy = -9.81530374 eV
Ag 5.263614060524319 6.317512946138348 5.607245390449219
Ag 4.65746157808197 4.09768355276373 6.9808496571338114
Ag 8.672418960815504 7.2067228670903205 8.721323267174446
Ag 6.710915310057932 5.576963925504023 7.872699015889077
Ag 7.43936895819853 7.845821297912048 6.424709774792686
Ag 6.143587381120605 8.38361989969456 4.135788377086943
