6
Energy = -9.58803828 eV
Ag 6.842090854852809 7.754312440781265 10.096415619469838
Ag 8.211054701564285 6.153729384307296 8.191572430532535
Ag 7.862598866858271 8.791757362157009 7.848962475071824
Ag 10.170182039716556 7.75291844410741 6.950543737983796
Ag 10.04670079137728 10.339154543681165 8.070152917981293
Ag 8.003961587465842 10.345719241441781 10.024571496101544
