6
Energy = -8.2338617 eV
Ag 11.409812324979871 9.303408582752645 11.877075458295977
Ag 15.390806106746373 15.781578143255754 11.571437669515852
Ag 13.591323659589444 13.914326141347393 11.615061119250411
Ag 8.916299764811416 8.281227374771944 12.323833334601355
Ag 11.835890976666672 11.927473763139101 11.198126347620134
Ag 9.359536247207087 10.926301314492004 11.810518084831727
