6
Energy = -9.81863222 eV
Ag 9.228226 10.827167700017664 9.228226
Ag 11.912246926284901 10.776827266036596 9.228226
Ag 10.620308687852212 8.427098042018017 9.228226
Ag 9.228226 6.134337683872712 9.228226
Ag 7.836143312147786 8.427098042018017 9.228226
Ag 6.544205073715097 10.776827266036596 9.228226
