7
Energy = -11.32889944 eV
Ag 11.249025264054884 9.20540641477967 8.810327108146103
Ag 9.411276641231007 9.341413001638713 6.765011702734467
Ag 9.685982848756167 7.187478611153131 9.801232816608707
Ag 7.756588891721406 7.381677489858369 7.811604787793219
Ag 8.586034979319894 9.71113344126796 9.406673890236249
Ag 7.052948536723303 7.653805548746147 10.441531198977705
Ag 6.780543716978057 9.917059478935819 7.341079184908371
