7
Energy = -11.16197068 eV
Ag 11.966993266153395 10.726060856907479 10.468403828958785
Ag 13.035063690673244 12.706082035711582 11.924562719427302
Ag 10.744340352325281 8.73685813314873 9.095341244265612
Ag 10.394795497884237 12.25598180973957 12.139718470587338
Ag 13.332749820583526 9.347041850139778 8.550047087530169
Ag 9.171521707335685 10.163811456878339 10.793114452560866
Ag 7.723648426118918 11.918793821301396 12.261317410789442
