7
Energy = -10.50872768 eV
Ag 9.173742336380004 10.19401004955132 7.754576211294666
Ag 7.22797567870091 10.140794539009166 9.70506370851915
Ag 10.721816917690775 11.659348733243974 9.489121703657977
Ag 11.708090770898652 9.3665266520621 8.403421785765063
Ag 9.742383914317152 9.206420502672964 10.372788616447238
Ag 8.125341970366819 7.798734576884111 8.617854182503299
Ag 10.494679522716021 8.803389166254508 12.819460176282117
