8
Energy = -13.34875553 eV
Ag 13.268772083057026 10.392938746154845 9.313805656753145
Ag 8.595242715462179 8.344757703057418 11.16274713977231
Ag 11.083858199605489 9.07957817666344 10.17138058983311
Ag 8.651046610941048 11.976725319836117 7.142124040729548
Ag 10.89537558879231 11.158092534446968 8.345223440104448
Ag 8.406644633950917 10.435849944606092 9.345973703175176
Ag 6.356072485240771 9.795911263044246 10.972025876599393
Ag 10.717502352797306 6.758140373369668 11.489906646719147
