8
Energy = -13.32942499 eV
Ag 6.411213508393421 7.34588902523531 8.437143402235604
Ag 11.645727730079102 7.667426485559047 7.369826473531634
Ag 9.051103250526461 7.639304436584988 8.055669845316586
Ag 10.963903710869259 8.639333136825533 9.77490430912301
Ag 10.883109472277663 9.562482707430345 12.28961948090122
Ag 9.407385958424902 10.820438139270207 10.435014762775465
Ag 7.466702347306669 9.78883342928094 8.752077308063392
Ag 8.041422780804133 12.406861398495243 8.756313176734958
