8
Energy = -13.90524974 eV
Ag 9.902832897712926 8.240147409908982 7.057091938299371
Ag 10.361648988196666 7.2130749163917605 9.601052706399159
Ag 9.762979945361838 11.018105213758835 6.977001448179969
Ag 7.896631084520099 6.8899024742065595 8.328894869189808
Ag 5.823669352669174 8.348872535302718 9.482882014806483
Ag 8.26131364971753 8.601415873067836 10.785688178053617
Ag 7.770999126081864 9.70077993330043 8.21042210814518
Ag 10.242742704681786 10.004463179583725 9.533198633181787
