8
Energy = -13.69951543 eV
Ag 10.993139880279363 10.110635576090537 7.798729614162774
Ag 11.968147029414308 7.85115925118629 9.363013684819867
Ag 10.196043285619991 9.572884296337905 10.463324710629289
Ag 9.453792631604582 7.79934889902591 8.375126095745745
Ag 8.374984069034108 10.497542488534844 8.364831313747155
Ag 8.093887400558623 11.111457680605277 11.082938598347761
Ag 7.638286165710527 8.450144147712065 10.409582507989029
Ag 6.88241807089922 8.207526193628029 7.743152007678701
