8
Energy = -13.43061723 eV
Ag 9.814838042492664 9.398012410328505 11.505299387431567
Ag 10.337257398479945 8.055652117941664 9.237039779049866
Ag 8.046908246971562 7.4904303057662895 10.540512566905196
Ag 11.411474109251412 10.087669405285018 7.792521173183514
Ag 9.759915756290589 8.1498591088382 6.573316243733558
Ag 9.43140133369544 11.092290500887936 9.304011547427777
Ag 7.7743659342286735 9.040024390278981 8.156518055730935
Ag 7.142500373573357 10.252505437974099 10.47366568857746
