8
Energy = -13.8823338 eV
Ag 10.642668683261297 10.345842121524843 10.064021265159806
Ag 10.883254665986517 8.126388485842371 8.464548286472679
Ag 8.631665040080565 8.382790734037957 10.13821159868634
Ag 8.102304813984055 10.802239392011874 11.145895050789404
Ag 9.169953065004337 5.988965827828959 9.009725176704608
Ag 9.643571540897762 10.38420163982282 7.459419083795955
Ag 8.193847919583892 8.024326102702707 7.3771360676183955
Ag 7.1081201798161295 10.21329316473841 8.610617614188575
