8
Energy = -13.50258608 eV
Ag 9.962890872854958 11.694879189687153 11.382974923324099
Ag 9.167076103108638 9.222862894533197 10.653801585146464
Ag 9.778163345084781 6.611896472199595 10.123667716510097
Ag 9.918013490466947 11.091412531497916 8.773580424021665
Ag 7.088002510514194 7.564564681742638 9.99524756745628
Ag 9.626559918318902 9.890853021569603 6.33924177360857
Ag 7.664491391465726 9.464893630251625 8.20446926603119
Ag 10.73713733410417 8.4167564094565 8.382232766543845
