8
Energy = -13.86936613 eV
Ag 10.302452175416567 6.281571900992485 9.107268378391028
Ag 11.146424080405811 8.949605977349362 9.221806262801431
Ag 9.432262017947583 8.09454196485928 7.129926184746505
Ag 8.494598725240587 8.138601620670737 9.837799296489488
Ag 9.313930637208331 10.682873007583055 8.093807129418694
Ag 6.9877364519406555 9.232062595868866 7.684277242603822
Ag 9.60824291020126 10.562474065898785 10.844066570994473
Ag 6.900176804024222 10.251392895289191 10.272837047206012
