8
Energy = -13.3993349 eV
Ag 9.54390533137143 9.983675909148644 7.027044392063988
Ag 12.39612679299153 10.142068869699878 10.27931551735182
Ag 10.523264053043649 8.484518612708447 9.106588874870095
Ag 10.144068838679832 11.294900819381644 9.319691239508604
Ag 9.320767714314288 6.928033175371227 10.929242284747579
Ag 8.507051861352938 9.495427200753623 10.912901989909354
Ag 7.536777111090193 10.880492379566315 8.75295032365467
Ag 10.446390889413351 11.134435697428108 11.991742773902908
