8
Energy = -13.87017727 eV
Ag 7.309068068020534 10.76516967349342 6.898958369732241
Ag 9.613756005060877 9.15071717593959 6.8003753238971285
Ag 9.260936038065536 6.775015790216681 8.156768597625943
Ag 7.104220965189297 7.927087348355703 6.844239510398415
Ag 7.9371005862329955 9.446278567025338 9.144208635873976
Ag 6.753459546686829 6.87107719220695 9.362188238196595
Ag 10.722503973995144 8.847692728278954 9.304357847538911
Ag 8.824859404701755 7.742866112436833 11.014808064690003
