8
Energy = -12.60978883 eV
Ag 11.612680053126365 10.395705674434105 9.067549181111387
Ag 11.848576378005376 9.47862864936321 11.658117680950562
Ag 6.9452902174351365 10.390246056446573 11.33182307135704
Ag 9.34599816504199 9.583127358070946 10.511142659479118
Ag 7.239772236757207 9.730040897865537 8.737676728315234
Ag 9.697182755378774 8.958744614347852 7.692040332938434
Ag 11.106947114213783 7.6242042487019175 9.712123346530554
Ag 7.4610334004620835 8.98003159981532 6.165369336091107
