8
Energy = -13.87413933 eV
Ag 6.960209606066312 7.74839227040041 5.239311387103108
Ag 8.744418011944113 9.559236872720925 6.418902138264735
Ag 8.454603955344092 6.902377429879859 7.29018575170324
Ag 5.674171564715643 7.277840717602625 7.679684434120321
Ag 6.910638800799188 9.63183656820676 8.512701275237955
Ag 9.53087727387308 8.90313606984821 8.975499213754542
Ag 7.324116381349609 7.258939200838778 9.862366490704064
Ag 9.86420351653637 6.181479981131105 9.484588419740577
