9
Energy = -15.48570382 eV
Ag 9.470923874103669 8.933761621486891 11.761350614705218
Ag 7.697051643361562 10.52232386204132 10.242903216183782
Ag 7.514056213699805 7.8040043250751765 10.044109161545368
Ag 10.524512322412363 10.468586577989178 9.725912518926497
Ag 11.151399861251575 9.307470765052555 7.281543296583732
Ag 8.808377778051067 12.03985689239948 8.260275861034044
Ag 8.449486065973188 6.373897708342186 7.907941494959861
Ag 10.328524964760959 7.7103772114244356 9.398729190557956
Ag 8.459673167980378 9.257614208253738 7.842224577726838
