9
Energy = -15.56847606 eV
Ag 10.855010076777324 6.891860326951464 9.165302664688992
Ag 10.459182350360136 9.301476669964723 7.728746412515357
Ag 10.892630834482075 9.426764014371944 10.558009904368804
Ag 8.864132870968202 7.075887758405579 7.202514262552389
Ag 8.981714996232101 11.048663885476248 9.324107331948412
Ag 6.348608739290271 7.447574418146223 8.374071999739893
Ag 8.5298242566846 8.242629710047142 9.82502812298444
Ag 7.770028354220397 9.646428133875371 7.238250696251687
Ag 6.40895259379056 10.028767536650927 9.694020272271535
