9
Energy = -15.06356621 eV
Ag 11.995059754023337 10.04625701550116 10.619993468623653
Ag 11.053990035076017 7.823674372329227 12.051209731251355
Ag 10.251891257317586 10.960833331034594 8.76193579975191
Ag 10.589620060636003 8.137869565642006 9.278250276299351
Ag 8.907229386276425 6.772553693963602 7.691167815620784
Ag 9.161026600102488 9.613441117180152 11.252238844470648
Ag 8.074857932569845 9.14765029200905 8.622024927442865
Ag 8.028586439498879 11.661683148894214 7.326331121059555
Ag 7.532337676311471 11.396750731436379 10.052266910423496
