9
Energy = -15.55229972 eV
Ag 9.554400459256124 6.95944232496019 8.063079241907413
Ag 11.976417786415919 8.429396947307325 8.15481838278414
Ag 11.340661774780306 10.82260205246808 9.5588659423456
Ag 9.482329818348859 9.736184730963632 7.76839373124103
Ag 10.10863413986258 8.447478795042613 10.343001206546814
Ag 8.640695153659466 10.859105325020757 10.214149467228223
Ag 7.4853256866270454 8.4063043398328 9.240747923473817
Ag 6.950269534255721 10.844745702065671 8.007665634117604
Ag 7.889812263140088 8.827497796657177 11.956872026885392
