11
Energy = -19.31698435 eV
Ag 11.904093611060889 7.025298025792378 8.024555244218032
Ag 10.79820407438851 9.459174140513523 7.751418615173567
Ag 10.143931645236568 7.8640256724550195 9.893190199932533
Ag 9.574189874408772 7.609575021631755 12.604059916101995
Ag 9.721945210203458 11.859597618516181 6.849369717976818
Ag 10.165855654191624 10.125179448882555 11.463224084590983
Ag 10.829034886444072 11.748337061619901 9.353174653615767
Ag 7.728929567644595 8.79518182605869 10.97147386278031
Ag 8.422300398999722 10.390053791478348 8.868176490139005
Ag 5.803467444902403 9.863157455801447 9.418563894063182
Ag 11.917557604785431 12.189781925753786 11.756082674937586
