41
Energy = -87.56485221 eV
Ag 14.086420821278638 7.36078096881069 12.03764261660203
Ag 15.907674709625232 9.473899212104936 11.631212983832134
Ag 12.714600279498459 6.115720033722932 9.952153895481649
Ag 12.688950472110124 8.618906311302117 14.111428552120216
Ag 14.490390405857204 8.249768461522079 9.406668181303752
Ag 14.662251811165385 10.814453477736508 13.999484209718485
Ag 11.27768396810829 7.641753922635506 11.85617561614036
Ag 15.853851726052014 13.316196704590535 14.349238021500069
Ag 12.398247038149389 7.430871634790287 7.54227642662305
Ag 13.198399887065348 10.093710877199653 11.747976283234081
Ag 16.012819257902695 12.301326848136082 11.743101850325976
Ag 10.150954963491307 7.14306749385351 9.34445545279411
Ag 9.802085291364843 8.957758085282437 13.856868094045977
Ag 14.787156549406378 11.099144582547597 9.539117167188252
Ag 11.732516380792932 11.213256123158521 14.008707002416362
Ag 13.61592795175665 9.952019767317127 7.217537133613832
Ag 11.881324852446264 9.415367843264603 9.386267199928247
Ag 13.313782030090888 12.965367961643821 15.443967832822223
Ag 10.369197678898727 10.641410865445472 11.539186160397945
Ag 8.597049108792419 8.44822211286161 11.295649329786881
Ag 13.678865663157605 12.72588562276243 7.52952337360628
Ag 8.958744841282082 11.612751947415097 13.979317155061144
Ag 11.178621947525517 11.420407464911493 7.409648439055727
Ag 12.172864063419919 12.188228518962147 10.133321915985341
Ag 10.443677558385664 12.787594688141677 16.061275769283814
Ag 7.0262690566980455 9.813205764589087 13.257372033972757
Ag 13.575840766181457 13.162402124823426 12.598099690953179
Ag 9.198337518766229 9.841706542687799 8.869089586110976
Ag 14.315121022694 13.98970639887368 9.975410683243085
Ag 8.492388226830572 14.324206103948303 14.445558346674074
Ag 9.32877953116347 13.402766460789225 11.808536592317505
Ag 11.256581370885689 14.047259983909724 13.769088104100073
Ag 6.610257231908095 12.756916286694723 12.898661541597784
Ag 9.341267730282093 12.617096566324689 9.090320942223638
Ag 11.586757394822692 14.317244855920054 8.444821594467635
Ag 7.6647078456626225 11.12973643285266 10.8692686063224
Ag 11.869976142046974 14.900476006142716 11.163812183148977
Ag 7.087647671116247 15.564575544384986 12.332819880456839
Ag 9.746900116442887 16.167077167666008 12.609037929285947
Ag 9.370451914015945 15.403785382079333 9.865436525366599
Ag 6.987558234342939 13.7949109823439 10.196716711853297
