26
Energy = -53.43740957 eV
Ag 11.093417538465092 13.133566812927217 9.085324470717868
Ag 9.761323780371407 14.283171784602374 11.28154338490724
Ag 14.2282208018388 11.38250143464405 12.463874209765995
Ag 12.575008471544585 13.72923055356025 11.44709520075879
Ag 13.459197480162617 11.72663807456255 9.725109732593134
Ag 9.739935360287662 12.887262486254425 6.745817857065241
Ag 16.00974827872901 10.852296994295921 10.357437663292233
Ag 8.213872937647551 13.200610498099133 9.1161998631656
Ag 13.015995406738936 13.37214190039794 14.15164112965245
Ag 11.33469887943835 15.446772614174025 13.26506666800372
Ag 10.287963461726806 12.84742318982482 13.633696963216991
Ag 14.164194820828182 9.539390529741436 8.267415701790272
Ag 11.928959242870317 11.078772887562385 7.334842197804813
Ag 11.091602400112617 11.314036306568616 11.378373162376759
Ag 9.41916963326784 10.73701265183409 8.513676428164253
Ag 14.02982827543297 9.019521476784883 10.992879447482952
Ag 11.633209191340786 9.250390229470606 9.493059230810417
Ag 8.294992952731116 11.996634516047406 11.851213905667056
Ag 6.937473255327787 10.749516380669528 9.839910430480398
Ag 9.131387600483164 9.278509172468095 10.871782828024763
Ag 12.10713477104044 10.761170579732784 14.199411127037708
Ag 13.973648291957245 8.770282258173333 13.773267717810732
Ag 11.571838579491498 8.593063324423165 12.256430496361332
Ag 6.856530163424381 9.736897852736872 12.495661535737344
Ag 9.453578696926945 10.009450858052862 13.613856372552336
Ag 11.31533945267738 8.287878485292788 14.992163212742684
