24
Energy = -48.51119476 eV
Ag 14.373627981927235 7.840507610155644 10.915584839498795
Ag 12.562078394611412 5.967952492779616 9.941327344580783
Ag 14.532692626521127 10.362357447210165 9.669392058967771
Ag 13.185247179405584 10.122386342793254 12.120950725139261
Ag 12.13538159389966 8.706582409303683 9.591080069040387
Ag 11.8952367028871 7.526996548555865 12.184314971646662
Ag 13.239344021365461 12.689835593088453 10.646135809751838
Ag 12.279375227885527 11.2925471115689 8.326797215266135
Ag 9.572172903825857 8.456357377545304 10.995534286204515
Ag 10.635775498421262 9.704893063475712 13.349553542117066
Ag 11.929092184182672 12.416792035973298 13.160117330572982
Ag 10.840162706643907 11.066021781041396 10.831505649079375
Ag 10.901792403304025 13.548909776886498 9.290209753436171
Ag 9.884032468076233 9.695706001318442 8.403991251604655
Ag 11.542028526236416 12.96328770713645 15.856695517321082
Ag 11.744290395997087 14.892798106755611 11.621176934473835
Ag 7.707124021588838 10.510842706708424 6.981551765211994
Ag 9.9343969736235 12.185621597514348 7.047540568291361
Ag 9.405176890209988 12.01091530231879 14.29728693562386
Ag 8.266473540565125 10.741037484021078 12.090241707923319
Ag 7.349673021063403 9.482080511432272 9.6773352000937
Ag 10.4353302311623 14.704119725683903 14.030850383073053
Ag 9.405205871320177 13.372193092992928 11.764136239425675
Ag 8.48453286273944 11.999165832070338 9.447889707565942
