31
Energy = -65.04398693 eV
Ag 14.473361642015977 10.495326195802232 14.07077440336287
Ag 12.834985663666421 12.736661358717006 13.789343351504565
Ag 10.258010163418682 12.720928521558054 14.89269727411505
Ag 11.536912919261763 10.27750715475689 14.34150250820861
Ag 13.106956466041538 8.12878769851651 13.108082713907484
Ag 10.418898606435747 8.707032020742144 12.305622132975355
Ag 11.557259210485133 6.380467933962508 11.473278418799003
Ag 8.950467247389476 10.920840211429867 13.216147145133966
Ag 15.319761607973774 9.503222487072613 11.583198596301948
Ag 8.893509097093574 6.765151593485927 10.730180315534831
Ag 14.788885149963663 12.334968450175728 11.723285505130045
Ag 10.640258556001829 13.764659939014354 12.305738265198126
Ag 8.021150861421622 13.559748983771911 13.308326346953836
Ag 13.288794646656955 8.158624702311544 10.216751611139689
Ag 12.685840502367274 10.538197989019608 11.78778714067366
Ag 13.34498055190016 14.787965814763478 11.95682107886156
Ag 10.592075208964147 8.496561774518229 9.373170646612836
Ag 8.429000236429788 14.82699553421196 10.789867754130329
Ag 14.048103203628779 10.722581024013241 9.31308095635744
Ag 12.760319116625467 8.87496589823959 7.554927574211688
Ag 10.255644946718508 11.159111150925758 10.750020196194376
Ag 7.986842661300812 9.404663944125659 10.959028723075415
Ag 7.937841350669739 8.20756494858643 8.42662495908806
Ag 11.197840237115376 15.511468030317483 10.223174690005399
Ag 12.482701727097664 12.944486691824602 10.119283763370621
Ag 7.578007219758268 12.147226209503918 10.963118214651448
Ag 11.446998632676097 11.19038739994255 8.185575834215612
Ag 9.97859094680481 9.261408331564079 6.750752201443969
Ag 8.473479584258405 10.955517548129778 8.466113206620957
Ag 7.170107492126644 13.520205398585311 8.606146294878645
Ag 9.913370143071031 13.36452030615854 8.953038455223966
