39
Energy = -82.88471783 eV
Ag 14.759678515583479 16.740030516614205 8.795931675563043
Ag 12.136203156018178 17.14304663790838 9.845212357564336
Ag 14.138351568005628 15.913297754787989 11.365332048867781
Ag 12.948998383264355 14.602673664306975 8.92707494035284
Ag 11.512340105059504 16.225049124422622 12.447518225404155
Ag 15.704245193171245 14.17617795788801 9.577839583776978
Ag 10.407360470291325 14.93804436626558 10.161513298812784
Ag 12.630984325489822 13.432996097348017 11.489907225763268
Ag 13.553607196763581 14.86453618868616 13.914835850886373
Ag 17.991151782730782 13.443024163170648 11.230177196644979
Ag 11.108037406079143 12.347976346470357 9.285027563501842
Ag 15.461636030158093 13.662330755392038 12.343911499243788
Ag 13.865361030518526 11.967209143717401 9.087242712614705
Ag 8.575243765922195 12.805529749651726 10.461889330164805
Ag 10.909129241637713 15.140964404331827 14.963215170003968
Ag 9.607054436011305 14.066917020739652 12.737635568324908
Ag 16.391654174019102 11.484689401120445 10.236998823980842
Ag 11.807515463811484 12.597180055965744 14.084205453957255
Ag 10.684661582800677 11.331361498595403 11.970076859310206
Ag 12.939067370315412 13.648446750760595 16.373725349972823
Ag 6.648565822387062 10.735353798135769 10.673969353735764
Ag 14.779313378681573 9.361435724840844 9.51524427381559
Ag 7.814286913216293 11.904300968862913 13.01138220760839
Ag 16.448302911079068 8.96998563359084 11.668495821214451
Ag 9.23155151019682 12.853167819261134 15.298110089826272
Ag 14.022307269323658 11.022324185080697 11.96893094748149
Ag 12.11954615791698 9.798893466231496 10.008797324459954
Ag 9.72237640822306 10.07695839380516 14.428701765972038
Ag 14.57633291411086 12.139877271155273 14.611550880305655
Ag 16.886636878462213 11.415044446835495 13.040836973221317
Ag 11.343925132723102 11.198059144425587 16.431661954615446
Ag 9.300952465212111 10.066787141891334 9.923629663472608
Ag 6.952007354564307 9.934098608914926 14.806551474911872
Ag 15.212698599567368 9.435806311326724 14.112202393128909
Ag 13.65548654129129 8.229593108278774 11.94074693059739
Ag 12.489539936153149 9.851329738269104 14.078593107201275
Ag 10.828962325407385 8.48543029558434 12.155445134044692
Ag 8.149473532860828 9.168180236691153 12.34690247158673
Ag 8.614347562305152 10.661826499107734 16.91148185926756
