28
Energy = -57.67299241 eV
Ag 14.156614002466517 8.98707353926027 8.606029583647302
Ag 14.991259448297765 8.408196809724611 11.227295729630669
Ag 12.216557155932783 8.41964569509609 10.513992182769385
Ag 8.87344366457309 9.854351329201313 14.770460271960006
Ag 13.041312122145314 8.213173523338876 13.26426895347131
Ag 15.656794491562668 10.915929723545698 10.103224929547759
Ag 10.246971081137547 8.299685413755741 12.63511612324067
Ag 9.440246524892217 8.701994612427594 9.996321386482768
Ag 11.55150843702048 9.853399287050278 8.152055557512394
Ag 13.859161413940736 11.669501348590181 8.168659032682273
Ag 8.74438045559772 9.835875955745284 7.604659961548495
Ag 13.54348286321751 10.67209113816491 11.919215477065142
Ag 10.82245150339232 10.899716141392283 10.941194830797201
Ag 11.14094244168524 8.172339426303163 15.277030978427291
Ag 11.879493393052268 12.09738893141916 6.3844744264348705
Ag 7.830143067321069 9.569427679087097 12.196005599562415
Ag 9.899539697089825 12.182046825826905 8.29595552213763
Ag 11.43286107526622 10.524959704221232 13.851324360023192
Ag 8.046958460290787 11.366028427791456 10.152286474777862
Ag 7.383211261971141 14.083651218191141 13.745004727569418
Ag 6.394274339886089 11.903070792065769 12.372365884502281
Ag 11.940200396573468 12.918880869044365 12.598204697255762
Ag 12.036701477914365 13.773602248814301 8.745894834656069
Ag 9.096913355772745 12.07072387549508 13.007326667850279
Ag 14.00327302646775 13.137141498364413 10.638625803502729
Ag 9.853635195342664 13.604249542369018 10.653844842309324
Ag 12.118350798788466 15.22195295428708 11.188277022808334
Ag 9.966088978820553 14.810671619846145 13.157654268246178
