40
Energy = -126.93132959 eV
Al 13.07959576746113 8.275552965701651 10.29114992052525
Al 11.460604407637325 12.820830400339077 8.588267781612997
Al 7.007677108346042 12.526429552191834 10.113298470300682
Al 14.043897075559778 15.46634171571555 11.607555543927742
Al 13.450664756113296 10.729714915564129 14.463548368841007
Al 8.72118643615757 8.856910340795332 10.312367603786921
Al 6.575696151865599 10.087054369002043 11.657349032088268
Al 9.692015373450767 16.048689039426982 11.627351486104102
Al 10.795939859761699 7.833949122447271 8.815556272266482
Al 11.775865855273192 15.122000808710451 10.100385324382897
Al 9.38314204927685 13.711047375765034 13.177452666400866
Al 13.08903270155913 8.472363777752017 7.476237417509139
Al 11.462145189105502 12.726320378139025 11.638438186018359
Al 8.715982129723816 8.90337208220996 13.05801872277984
Al 9.105810360236537 11.442653433597409 8.781700598339574
Al 7.2903753544108385 14.79451531912926 11.609575419624441
Al 11.482462052109884 12.775359909731502 14.621459652779441
Al 15.48383227306007 8.897933470358733 11.61295220981977
Al 13.689947199909582 13.190752445704527 10.129993661832694
Al 15.799162237660669 11.216508175516363 12.984652230642412
Al 11.137471436845908 10.248516032982547 13.018213466603255
Al 9.08796396283335 11.347391106835898 11.628805551819443
Al 13.389981422008768 10.77327336334081 11.608356226912912
Al 11.781831231788486 15.063282585577475 13.083980662514566
Al 10.780494434121985 7.623806038166592 11.580250012387198
Al 9.421399933747141 13.760638613013015 10.149883625414413
Al 6.892656595356378 12.407721044123527 13.027318402502344
Al 13.740624186027729 13.127750925682424 13.157167465439915
Al 11.12129829863822 10.226754754877337 10.16416352205607
Al 13.121766993879916 8.315477731181117 13.036306456896702
Al 16.03163266678354 13.62566237562592 11.570084311750243
Al 11.130050971217722 10.386816531793052 7.304560418808452
Al 13.372955379289424 10.872127526224642 8.761634026411397
Al 9.04505471364668 11.319672786269994 14.483338966435953
Al 8.73911945165045 9.053940756590215 7.496547216356605
Al 6.655421053365642 10.12774401757139 8.8541137610969
Al 15.394527375155036 8.9614107250022 8.812017163466281
Al 15.694336412791484 11.366354158169766 10.07207830220771
Al 11.156922760166243 10.301508130816002 15.807129686201737
Al 10.81905638200741 7.811451198357919 14.336340185135334
