40
Energy = -125.59577349 eV
Al 9.190651327399886 14.221230268477141 13.349440105705538
Al 13.628935465964995 11.994653586363155 15.997277321901237
Al 11.366956254125894 13.317455464702604 14.90471792483706
Al 6.97376279787517 12.543978207557512 13.858745491928381
Al 9.36868782550076 11.5717234423065 14.488514328705948
Al 13.35684695118925 14.179632403037237 13.479256150564133
Al 7.055419572418702 14.124723819179543 11.50795521701814
Al 11.572464735854807 10.421516041275858 15.522126591859877
Al 9.455759524184849 14.309929733918517 10.411577340472851
Al 11.271376947544345 12.784118125027565 11.955677277373251
Al 11.354588841339416 15.48092761152615 12.081657347081256
Al 14.722933755039614 9.670910879939544 14.32561911995597
Al 15.44797013058527 12.482709053948698 14.16540020026301
Al 8.727293007691523 11.911806403122203 11.6728997467901
Al 9.758408909180183 8.731598036559962 14.547341055521644
Al 12.900410393456244 11.345123910638602 13.39536806235279
Al 16.04139502308881 14.436387942028396 12.512083803507936
Al 6.048328489994075 11.639190972392921 11.478772838612485
Al 7.613002087767162 9.820112555484483 13.310413726951756
Al 10.589539667172199 10.240280968777784 12.34295703861727
Al 16.41099175017423 10.81013009751968 12.295052939450338
Al 16.830475625047836 12.915871379560782 10.399036772095126
Al 13.950466917598348 15.415392357513351 11.069167442578719
Al 14.265781829707318 12.591659354740099 11.464617248254687
Al 12.335031461937952 8.557693870253619 13.461248768736242
Al 7.606843681494492 12.25944810314342 9.234329273437979
Al 9.322559596394282 7.876635329326467 11.880558331082792
Al 7.174299585979974 9.327199636685997 10.685062311281772
Al 12.076484922785463 14.088149542365283 9.708406051553377
Al 9.49528350508137 9.93163045837644 9.608553932046327
Al 10.15391704132757 12.38783552338092 8.62451411418434
Al 12.590261445074825 11.215804263071007 9.925167177798038
Al 14.096664842313187 9.424963358978644 11.667244291969379
Al 14.57047534839282 13.280818998060084 8.857119813868001
Al 15.445389500875244 10.70057395779156 9.701634741820577
Al 11.624040918695911 8.456731217013964 10.638050400526884
Al 12.426513390868125 12.60595937569462 7.4249802589450296
Al 13.726169152982074 8.640210680605623 9.118262314321404
Al 11.49561133667546 9.92368725753002 7.8653433928553635
Al 14.192610669519782 10.6026324828082 7.275829723015854
