40
Energy = -126.57463798 eV
Al 11.84409700481536 17.260592147206395 10.700624993712774
Al 8.869340028217644 16.15445875987648 10.82546681007674
Al 10.452758372752822 16.658214933698563 12.935976145465926
Al 10.650368570501017 15.66613864242138 8.877063047229122
Al 7.016168722978878 14.023836322156436 11.2533973785361
Al 9.21933808844192 13.395039053020097 9.905638313881672
Al 13.395904336964989 15.262188281058386 9.823170668490555
Al 9.06929438175582 14.144161012133411 12.938229585016641
Al 13.252588134373958 15.925907751089603 12.550983808678504
Al 11.35243989753719 14.368619331548 11.382648843122043
Al 11.439082078813968 14.698146485470998 14.380342776100887
Al 7.801823872610357 11.604862400077339 11.921497419359351
Al 11.733916609939069 13.292075871503632 8.595262485014127
Al 10.449859272431524 11.931832829245362 11.936614846187702
Al 12.704061187032213 12.114248599475935 13.461545805504885
Al 14.467709344690338 13.015003627505006 9.017528237851309
Al 14.196036924042085 14.329611803455716 14.396391846961084
Al 10.36496740100872 11.088181122994875 9.195197508219968
Al 10.074778308265394 12.437975197208976 14.73245519670589
Al 14.252496083397759 13.581108911122937 11.72476713747534
Al 12.843457187000734 11.446408201171621 10.720637316478491
Al 12.928369338161692 10.822996061163842 8.01647070095394
Al 15.674315941235763 12.21522886847172 13.57414177444107
Al 12.51879533784866 12.812201302187779 16.143543307279273
Al 9.248571251955168 9.471583824920463 10.973020316501373
Al 15.724545172959612 10.913476620741914 7.99994925652785
Al 15.811900789758065 11.549983093377692 10.855827086512424
Al 15.306331258533678 12.967972078955773 16.381731359842988
Al 11.624225518522303 9.580159613195695 12.572214953143988
Al 9.10901864464006 10.144748290562893 13.816589442847496
Al 11.796218191763613 8.923728448207397 9.689767875561273
Al 14.460561784132949 10.02227176452459 12.606844765004077
Al 14.525120480998082 9.390769607780191 9.881716006344034
Al 14.254039138617932 10.722505100082204 15.311404687794203
Al 11.504609787811528 10.332901652921521 15.437768971478418
Al 10.643570886060852 7.275566867603992 11.409465590286695
Al 13.477101731014134 7.716238899874264 11.601112165834929
Al 13.329421619403364 8.422111377938332 14.468369239744815
Al 10.495316059276954 8.042691590748081 14.576943637472635
Al 12.115154775070769 6.271927168637406 13.405352207696167
