40
Energy = -125.20584254 eV
Al 10.08512362536668 11.939318626477723 14.968838516595511
Al 7.362893285222127 11.214905077908053 14.475510893604365
Al 8.306604286816468 13.584592008203575 13.53738720320574
Al 11.980061470748982 9.890314765799207 15.729492393738342
Al 12.85906694130634 12.275153815359785 14.800212047708376
Al 9.553857208712897 9.400056393758536 14.38158480107388
Al 11.088794866784994 13.49727257168242 12.816992929762963
Al 6.756873354238842 12.008555031456545 11.73644550285078
Al 9.296627169323889 11.367686197861346 12.187880342653283
Al 11.740420819343255 7.9701261768815685 13.795119131588448
Al 7.497285932731036 9.162000020205234 12.678009559814765
Al 14.06818791114786 9.850444613596009 13.783561124828735
Al 10.89013247729902 15.554625883286043 10.259744522049724
Al 13.385195801811992 14.888483494331888 10.955548732606081
Al 11.748175107065416 10.704041829757138 12.801651922195257
Al 8.983687601665325 13.896841308827371 11.003748553792498
Al 13.715720517620555 12.680140530847112 12.3529353651585
Al 9.120880438631186 6.876061021057621 13.36994249176684
Al 11.598784705856385 12.83119605571826 10.27461965003662
Al 10.247081847147616 9.018240134650684 11.347436214453694
Al 8.252740576002697 7.199104729651198 10.789505687196932
Al 7.824364590879677 9.95400092556502 10.161821824984305
Al 10.030871331057366 11.106409426151535 8.984861461603899
Al 12.648451666364988 14.737756177239536 8.304909217239276
Al 7.566129940682094 12.462908431299066 9.127129843408653
Al 9.989693114808045 13.856365072597264 8.292713196492183
Al 14.2040843093419 12.71459181354183 9.472013308569492
Al 14.859889183403965 10.44158539884384 11.211230260185102
Al 7.919668964820843 10.383774822216367 7.4633488769884115
Al 13.044812157742328 8.473443466388664 11.550084316167542
Al 11.101570127288785 6.4138170365675755 11.520019329453229
Al 9.297214883514448 8.317234525313152 8.580390283044256
Al 12.16330483034792 12.101896005372494 7.411399468956321
Al 12.517439391647237 10.411857026669619 9.641656782271134
Al 9.492373259369158 12.289773060822705 6.24379028707218
Al 10.457383851050588 9.900879116424957 6.463781233804002
Al 14.79502137482228 10.88259768092577 7.696966132678188
Al 14.495636809122406 8.607413523770177 9.260585813385116
Al 11.934827142606716 7.615282899244603 9.244589614180002
Al 12.900691685329278 9.25026117326646 7.092713967035334
