40
Energy = -125.33665066 eV
Al 9.711067983122366 10.379479072639791 15.397585014060272
Al 12.911369529682865 7.764578552424463 11.193776951691389
Al 12.001404674201755 10.559748447380954 8.370657049035437
Al 14.106033021657318 12.109359948736351 12.275925965434606
Al 10.88323946702088 10.79025292094812 5.8033939841033115
Al 9.449444207194299 10.781999511560928 11.263334459826005
Al 14.74558405004308 10.751680197826209 7.9998693274391535
Al 13.702324572867141 9.454124709182347 13.064434642742077
Al 10.629112089678031 6.565381125598036 11.954396020207705
Al 7.908730806975381 9.750886080988705 13.469104211187277
Al 11.047576358403727 8.236722596450823 7.117716247971761
Al 8.257473183881107 12.244366246311094 9.281028550538453
Al 8.72006371965882 12.255843944280182 13.622763737667533
Al 7.313288074648383 9.697744402846377 9.748937693449356
Al 9.211032360661212 7.482614557090167 14.255960866358352
Al 13.280950541824119 9.513247736721574 6.162405593230265
Al 8.351747306447574 13.870016271387735 11.498863980839456
Al 8.518960491686785 8.053472316307337 11.481395186424374
Al 14.700732295580607 10.09571640186681 10.571123366049594
Al 12.986561014997847 13.859112297656639 14.20533415937103
Al 10.385682559461381 15.748156450286274 10.978009271770096
Al 9.186801834005303 14.725197372903526 8.823591228140565
Al 9.327025534752948 10.110216991254616 7.993374109318513
Al 11.928033891331012 11.64249229607743 16.49755239650602
Al 10.090614799035603 13.31176945823487 15.590055623498742
Al 11.55758149196449 11.61893835839828 13.63409734747091
Al 13.094173610691442 12.552715795801301 6.660688312771305
Al 12.064070617606996 14.750605172657234 8.737228884951254
Al 13.418871330892149 8.251785949613492 8.634708915655631
Al 10.780379198276572 12.951445225534775 10.456309746485934
Al 13.479650687478175 12.569183910081883 9.60308186221078
Al 14.120231552475047 11.437661637999167 14.94569755288152
Al 10.855626908919888 9.084060516056834 12.90730815417496
Al 12.791471947705737 14.46514479651846 11.51623763200712
Al 10.44473019343186 12.680759359415712 7.639728629386006
Al 6.831293827052127 11.547632389021281 11.687250209962764
Al 10.666072810165787 8.477375501884657 9.788196984160594
Al 12.06917211630439 10.593099503119976 11.03785522487626
Al 10.511248910155594 14.22367505183084 13.117404082400206
Al 12.212396272126607 9.284320757833875 15.25932659511124
