40
Energy = -85.88965758 eV
Ag 16.71281843365802 11.67445363273545 11.655388566224739
Ag 15.18232086761117 14.003825137708109 11.491348686301846
Ag 14.760383124472977 11.879989050797255 9.685837680168104
Ag 14.393651831109212 9.921491018517807 11.825789206331201
Ag 14.767346123906718 12.084113554336117 13.551420834171141
Ag 14.13962153246243 14.765152583238448 14.013325991010571
Ag 12.312129235244344 12.194394112563078 8.245034772780384
Ag 13.465516811976146 14.41871631407584 9.348653365957444
Ag 12.867827062799913 9.752975578881188 9.383044060128295
Ag 12.381840228011948 11.932965553650533 11.205762565348607
Ag 11.801871326762878 9.95785710631265 6.556429197564335
Ag 12.406351213796418 14.745987393518329 11.88067693732425
Ag 14.377452511799124 7.578451992464242 10.250473898688192
Ag 12.888093309396249 7.514139325234342 7.795374781295087
Ag 13.097729944974981 10.04485406640193 14.400092606300582
Ag 8.91508104669916 14.383454143237005 7.752794329188262
Ag 12.109397993364825 12.710617742435353 14.07155479563525
Ag 10.607630061626711 13.797102871952882 9.869754255311207
Ag 9.70039526160173 11.730492658867108 7.490609650753913
Ag 11.418040363628505 15.400803506799841 14.452898750641962
Ag 8.999038018770333 9.544395523213 6.021294735240279
Ag 13.110858624700121 7.605868926921651 12.879475357105829
Ag 10.23543509248604 8.43726742901837 8.249576484884809
Ag 10.184292659246703 10.623665071628187 10.039374200332395
Ag 11.619994357118275 7.374955683523321 10.426422550736572
Ag 11.17131886157283 9.501087943034088 12.392443904827045
Ag 10.302904613595869 10.698928011373946 14.94765972504662
Ag 9.672713853702769 14.901920242570878 12.354087784476063
Ag 9.831405668894636 12.034385116845455 12.406688555231414
Ag 7.956226524335126 15.191300256420892 10.218496743418926
Ag 8.015075247538025 12.487648247908766 9.696392271296833
Ag 8.961410523225256 8.139703871505802 10.820315680172424
Ag 7.837221338388451 9.81942011359718 8.680426964340477
Ag 11.125477458702829 8.059656939684 14.976391806876624
Ag 10.301933922947818 6.590194563146445 12.76036926315924
Ag 9.37304438754244 13.426044044301262 14.782066441772544
Ag 8.660086814645249 8.737498919211054 13.631175486111811
Ag 7.309612107149756 13.296769718602087 12.337707243410462
Ag 7.5888939516272105 10.444712562883849 11.56360953503906
Ag 7.634636943381933 11.259053942458427 14.296863390558553
