15
Energy = -28.47864783 eV
Ag 13.760068405827935 10.532905545873172 12.197754729257369
Ag 11.471084041400106 12.216109830030762 12.072633881633493
Ag 11.183761665759258 9.411308791570844 12.30911131842211
Ag 13.209734974566452 8.164245204329244 10.793535324461887
Ag 12.26745952199151 10.66092697900777 9.824451627673943
Ag 11.071194765714685 6.689083821136244 11.77516710176311
Ag 11.45525031870248 14.871147980962073 11.39796536923456
Ag 10.642491762641736 8.38599206425596 9.496169570051322
Ag 9.00045826247312 13.556603716209745 11.342303298196708
Ag 9.31055860090751 10.831403456635131 10.830958463960588
Ag 10.835338750180942 13.051252769131953 9.355339761934976
Ag 8.728779413936486 8.176468647559004 11.454282887555369
Ag 10.112152898457445 10.740592921817509 8.055237985597252
Ag 7.95700074009001 12.30405726403538 8.991202597042193
Ag 7.8714252068467925 9.28466033694197 8.980645412711432
