42
Energy = -89.92486980 eV
Ag 16.415756741261276 10.631086905472564 9.352502833398086
Ag 14.903963314537727 12.644948975012351 8.218788365673255
Ag 12.868394415899665 14.463761717918151 8.057869768515536
Ag 14.74403834356896 8.447463673217026 10.591477314624314
Ag 14.76036247186382 15.411999918731636 9.810086064254138
Ag 16.439190856551154 13.181258460201736 10.607120314744192
Ag 14.025055833359596 9.85689760417071 8.129526374977385
Ag 12.113472802527102 11.857270733427166 7.890905117320139
Ag 10.078043294114982 13.931344514930444 8.321059254334873
Ag 9.386726935527705 11.370092207587666 7.397313574389501
Ag 11.45491688955016 9.339741455986498 6.935973344053278
Ag 16.280610916547733 15.595894813335704 12.195007069548796
Ag 12.329782424232002 7.895146068360501 9.229152227114836
Ag 15.335879904028856 10.86555507505091 11.899458211319525
Ag 11.608611160369966 15.377727072819617 10.363313365547551
Ag 13.630815555903975 13.059427613422033 10.721579755929806
Ag 13.524182884328868 9.059590653467396 13.200955632984883
Ag 10.950335347480019 12.541851495039367 10.54097191405921
Ag 13.521482041220379 15.496986752915356 12.419538245309228
Ag 12.744535079301231 10.35532991629679 10.744785570468263
Ag 15.216602028633869 13.303703322535458 13.257788928617664
Ag 10.346462551948562 9.844425224854946 9.443467712346116
Ag 15.173104644635494 10.861558833676092 14.672196894131877
Ag 13.054613093942457 14.129843627127537 14.8396141259304
Ag 12.722511229599476 11.824915984442502 13.209193744517622
Ag 10.995431368377227 14.367828432066702 12.8886793601302
Ag 11.141547955115117 8.180907710357936 11.847237082077461
Ag 8.904590772231682 14.432707945211453 10.873621890916272
Ag 12.938912378961376 11.496517932873898 16.070707856143574
Ag 10.088006463696654 10.708934960084333 12.389651942169111
Ag 8.403700974760419 8.766111429288273 10.992035080672238
Ag 8.29166287585419 11.671618247543549 10.113331275038345
Ag 8.562338961173051 13.047789235947912 13.265425110359487
Ag 10.632954849064815 12.632921147760891 15.040137241938378
Ag 11.215568264922876 9.66672292418573 14.774657332919563
Ag 10.451113582041087 10.914256936798036 17.22899388606134
Ag 8.880240772782749 8.472026651538307 13.716424313867368
Ag 7.156074098951049 10.638551016849465 12.589617060790374
Ag 6.39294278019098 13.177130829819916 11.548439101760188
Ag 8.372087684949792 10.912998806535304 15.181601867809334
Ag 6.102331852489179 12.4344449267052 14.389190035458157
Ag 9.123655249509264 8.584955458829231 16.474404824145594
