5
Energy = -6.36500846 eV
Ag 12.270784155837271 12.309083416492477 9.422460567653633
Ag 11.586588513700514 11.64502323836453 11.892888847522885
Ag 11.177157741790575 10.159589259955675 8.451786941709008
Ag 9.779834696861569 9.697883027547046 10.905922709855252
Ag 7.554731620037577 8.49898339970695 11.685992296322194
