24
Energy = -48.85608330 eV
Ag 12.924958450270609 13.898740551270045 8.429273271547322
Ag 13.671982183626714 11.669683042634986 7.003992596106323
Ag 10.981410822966962 11.89961359710446 7.759843906821036
Ag 8.444563923932476 12.099845385323018 8.84019525457676
Ag 14.973866389272072 10.064150949089179 8.783440772074318
Ag 12.298251232970133 9.465806753908419 8.21348468022284
Ag 9.493475582831984 9.50476040223038 8.051164266402479
Ag 10.679779084145228 13.534602436150239 10.048253991650709
Ag 12.914336708007145 11.64343448920542 10.022770061723177
Ag 10.147785927935995 10.63958494716524 10.499157323895176
Ag 7.191274488490798 10.744621632163216 10.891705764474596
Ag 10.482888844922867 14.8862063903231 12.450020075580145
Ag 13.450214215865405 8.97449893565517 10.804959292828789
Ag 10.915035264890566 7.944046482340704 10.097488985466976
Ag 8.596801727145063 12.9202831990652 11.83403803812447
Ag 11.341585827474203 12.284553006251874 12.543603173415969
Ag 8.169399461792688 8.264843818536798 10.2460940488744
Ag 13.905688800551006 11.101891952468849 12.637203822519547
Ag 6.506491505363111 11.522476151398827 13.420549286580542
Ag 12.272410866020312 6.95456664541329 12.361558297576321
Ag 9.061390954101194 10.500027818274104 13.19690172917846
Ag 11.64402298563172 9.566134164041225 12.849263311043654
Ag 9.537911166770225 7.760003661497755 12.65613220858758
Ag 6.956858631040754 8.718008634507326 12.921290886747267
