22
Energy = -43.74708126 eV
Ag 14.022687751081742 11.784802136728993 10.945242982080936
Ag 10.69994365893034 11.431288987758046 6.650044691551264
Ag 12.886135851095093 11.403416635424731 8.407405509765448
Ag 13.2673022172145 9.173262727464389 10.071134251638156
Ag 13.217671287987551 13.973060480748266 9.437520145346527
Ag 14.033544932351488 6.628118426377795 10.645634369222515
Ag 13.44535237132314 9.924142026035996 12.93651552049541
Ag 10.526653964897061 12.948895872852898 8.919335625731742
Ag 13.02314083035826 13.920058712383366 12.391546312408549
Ag 11.031622745915456 14.97364331944557 10.716066162651412
Ag 10.631375504487862 9.829377076516284 8.858132054233831
Ag 11.754238024202643 11.973253835017024 13.88042592449798
Ag 11.927164151971343 7.631125426103794 11.957396537558585
Ag 11.365720496178998 10.932779991123803 11.28259037804299
Ag 10.247081904780659 14.176811468216702 13.229495690813255
Ag 8.612966361616518 13.799141152348396 10.957241359906634
Ag 8.550436631178682 11.176257381942857 10.024405035690943
Ag 10.66535835219794 9.439357903866613 13.733867729847963
Ag 9.631832256224392 6.907544328436959 13.24387612318413
Ag 6.6034134694961315 12.116005106372109 11.715788519654435
Ag 9.416171309543113 8.874576833631584 11.274657819693562
Ag 9.074718950752924 11.599444364209601 12.872043542446123
