11
Energy = -71.44031742 eV
Ru 10.40679705632675 8.890403274474206 8.086876390469165
Ru 10.171145250212613 11.291092830668852 8.12624817151133
Ru 8.909528729031113 10.11527940171242 9.753807058262144
Ru 12.291072590472806 10.145198440058913 8.929841128816582
Ru 11.55771249873033 12.321223744507762 9.94918354753468
Ru 12.797373593816944 10.67342214901826 11.213135191732515
Ru 9.16959055133978 12.646113050304736 9.83077130216019
Ru 11.03929174475278 8.968067362259651 10.557809832907006
Ru 9.03141932411351 9.161735238757046 12.017337180149227
Ru 10.307100259973476 11.164234124335332 11.598743147208767
Ru 7.9194159533700255 8.223677936042941 13.536694601388646
