10
Energy = -64.881456 eV
Ru 8.447823118489064 12.092877134080837 12.213039061429797
Ru 7.544087285067549 10.531338878769258 10.863879844406846
Ru 9.438499419671873 10.949879251504456 9.326047092549686
Ru 10.531760710748117 11.49974289803297 11.473644571835754
Ru 10.674889203490963 11.054679964150374 7.365247804787111
Ru 12.038237365264788 11.289333003454374 9.410140118234368
Ru 9.606317363418508 9.230367335976343 11.04112786170171
Ru 10.98929482314522 9.087254360776328 9.047354656487158
Ru 12.109701098689929 9.54114888428462 11.184928173020413
Ru 10.96909658859035 7.320385468810684 10.627390079753257
