14
Energy = -96.82979695 eV
Ru 12.102057460387858 9.839251209045235 8.04432869104714
Ru 10.706561892285219 8.131866272363295 9.007211260016417
Ru 9.753955177159266 6.433026253197035 10.562116494522412
Ru 9.403959854114623 8.740408779114128 11.052661308447504
Ru 10.573321745325634 10.071650077222476 6.352748438235934
Ru 10.37851868447911 10.50448358497341 9.614833979052472
Ru 9.256951641730275 8.357059986594313 7.350570282311629
Ru 8.786141589664716 11.2719097562335 11.236098201936818
Ru 7.6405697975268145 6.379221214158582 9.709911392540633
Ru 8.879918324717579 10.734956248700962 7.977025822080687
Ru 7.321367400675895 8.577190797549891 10.31805045501703
Ru 7.276876082065822 6.874645981433894 7.4985261277199795
Ru 7.136425215759367 11.291110525459342 9.653092235151266
Ru 7.0153968298269564 9.121928520684767 8.115275417222655
