11
Energy = -73.45234295 eV
Ru 7.758277874372188 7.07238176196239 4.838996875516658
Ru 6.844161925068557 8.655948953120456 6.430267333925067
Ru 9.220943942961348 8.045748450335893 6.537011663003653
Ru 7.484922612783748 6.325755317385252 7.116040071083042
Ru 8.528831666712323 10.387949345469146 6.9269899145122755
Ru 9.372285173823448 9.023282276562112 8.788050697358853
Ru 9.233606052146857 6.571783859264724 8.737506809956034
Ru 6.979132029318631 9.633052604448213 8.68353567984481
Ru 5.934563533749316 7.409468442338028 8.590555355519532
Ru 7.150748478461349 5.385668887101182 9.35936490107997
Ru 7.692352306894832 7.688785698304626 10.191506294492406
