15
Energy = -103.93778407 eV
Ru 9.571628277579432 8.61754097857054 10.619771172929012
Ru 12.098698276649557 8.734049248247386 10.593272591642329
Ru 7.044550998988872 8.734110480764404 10.593235092543106
Ru 10.863963512635044 10.89048285569574 10.45537248176291
Ru 8.27932039371106 10.890512730002413 10.455340090001862
Ru 9.571660221301908 12.985631445480303 10.426528147782312
Ru 10.718122754682643 6.379181271358282 10.504676410641373
Ru 8.425065647224686 6.379222863629945 10.504681779875956
Ru 9.571662803627783 10.093992414205918 8.435193031639702
Ru 12.088240733597516 9.93259907549649 8.482230623000486
Ru 7.055081227958604 9.932655814402937 8.482162728992963
Ru 10.812331056822469 12.235342403679287 8.401407954577392
Ru 8.331045260851935 12.235365831703207 8.401372309945605
Ru 10.854763578453374 7.766950563107284 8.609697086465232
Ru 8.28848768416422 7.76698459540692 8.60968106995108
