15
Energy = -102.21406777 eV
Ru 10.58526174509355 11.411346655269748 11.508722862049405
Ru 8.985300920818837 10.718328468875363 13.154572151623148
Ru 12.556146526489723 10.694886845408812 8.902688830732949
Ru 10.38749208962582 7.349988444082501 11.445228657774496
Ru 10.687106905792156 8.91562282713894 7.616636754572179
Ru 9.150647051275469 8.621564595710458 9.738322242002361
Ru 12.528705745984034 8.341835303339613 8.850553078320203
Ru 8.262407922971654 10.692084715623993 10.823628763665402
Ru 8.498319026504626 8.239727335896657 7.438471635782422
Ru 8.603030133201388 8.605069384994158 12.209184853990438
Ru 11.885859687288038 12.59156377622385 9.871753882747509
Ru 6.86251632107977 11.551801180122135 9.303083797593404
Ru 8.127347803775478 10.55547625458516 7.668607590418124
Ru 11.313130196591187 9.388878737916752 10.714493529023835
Ru 10.069093016971642 10.924417060099598 8.952151862655374
