11
Energy = -72.73356279 eV
Ru 8.255393788580646 9.338179667162855 10.816113833946638
Ru 8.257302057702029 9.332267515393193 8.148631471205723
Ru 7.377965945387993 11.330901628325543 9.477564464396423
Ru 10.033121282460758 8.230881290199049 9.486140271728573
Ru 9.721513885924308 10.828119099744752 9.480056850307827
Ru 6.222439216319017 9.093316007963857 9.481489506773134
Ru 7.874108493929779 7.189598129207015 9.48663203290719
Ru 10.994425911097405 9.668979092167191 11.208694983656441
Ru 10.997129486756497 9.660872069896968 7.758612768026971
Ru 12.43212302872472 8.6307478068894 9.487151446640604
Ru 12.146981974868394 11.00864269305032 9.481417442161769
