13
Energy = -89.81859583 eV
Ru 7.708334548907163 8.289768794552645 6.601577190875921
Ru 8.07784305949868 8.315821828087852 8.97909442770206
Ru 8.456233270989662 8.306240568689416 11.548240640086238
Ru 10.008189055298105 8.280711221499168 7.492458094817241
Ru 10.349086002522508 8.29966120574257 9.999779303071595
Ru 10.684716921992743 8.305680552132438 12.427428182137934
Ru 7.694030427897665 10.550866832655839 6.6058515750381
Ru 8.064305229908305 10.520959317921736 8.983290879399602
Ru 8.442506196812717 10.525212948115367 11.552560262790113
Ru 9.993845191515472 10.585533720502317 7.496914746867807
Ru 10.335079580093227 10.561029822816376 10.004188252632213
Ru 10.670791372243368 10.549849807262932 12.43164284756037
Ru 12.05014014232052 9.443764380021344 8.412074597020936
