13
Energy = -86.48428238 eV
Ru 12.611118267110722 10.176407537935754 10.212266349247614
Ru 12.631558507459257 8.655251892041615 8.32329150657982
Ru 11.045606197111242 10.478272238652059 8.381250308099288
Ru 10.175842936206816 10.784150937991923 10.731094680620993
Ru 10.7784428742553 8.476242109157806 9.945948234036216
Ru 10.163223333695239 8.261402672903383 7.5376543030981304
Ru 8.69789379388625 9.673170186085411 9.005485608149886
Ru 8.63898661055473 7.1809465297600505 9.267209439919467
Ru 8.653632317959744 8.885329589582316 11.372264222760926
Ru 7.426024329225955 10.915638900458207 10.713644092031963
Ru 7.414578825418938 8.282106096805611 7.458644426274226
Ru 6.555577645347957 10.679045704633129 8.41698008799063
Ru 6.588833115676588 8.656444199347138 9.839686851736447
