15
Energy = -103.23943688 eV
Ru 6.876080024537106 7.469547619951754 5.326024818447699
Ru 7.783179526419229 9.846776210940089 5.94335502728332
Ru 11.144696946243542 7.861209275353361 7.392032876550367
Ru 5.494592175975159 8.980869670697 6.73447440997625
Ru 8.78512773690743 7.797645998570838 6.737607936380933
Ru 9.773666018522434 9.924122124715849 7.926071775314825
Ru 5.449361404568241 6.5420257741191215 7.159242466086904
Ru 7.722263007922434 5.669862752008369 7.077762447265145
Ru 7.365821153817106 9.222753717786055 8.24970910744297
Ru 6.692915169728247 5.744404908266021 9.247842607034238
Ru 9.603414332768683 6.3122358000390815 8.541781414381543
Ru 10.3889773312776 8.408999671090726 9.70358049657058
Ru 5.578888009206895 7.932362608599186 9.187116716928056
Ru 8.621396343326058 10.055643211357301 10.165784573163497
Ru 8.0728017339425 7.58472157166787 9.960794242336174
