12
Energy = -80.98645414 eV
Ru 7.942224228193558 7.040740779551876 6.7251333367712345
Ru 5.532128815499792 6.622029871058645 6.678030485355465
Ru 9.001987113018307 9.261801726011482 7.381620129747148
Ru 10.341209382747317 7.112030327379176 6.381662435635453
Ru 6.512654170408942 8.939808528807633 6.708148135149654
Ru 11.291443491190124 8.516425870925596 7.924779164812776
Ru 6.960249445417432 6.23803165227993 8.726604702019388
Ru 5.580348007822313 8.13512137207435 8.709464351358452
Ru 9.32886751912209 7.315444892971882 8.834555956931615
Ru 7.265186196870391 10.039009019995776 8.837376387812144
Ru 9.60054643713994 9.598178054632209 9.766685990645621
Ru 7.588064036034706 8.126286747776524 10.27084776722612
