13
Energy = -87.50436744 eV
Ru 12.452061804260138 8.327847334904433 8.170072780099762
Ru 9.858217711024032 10.340720262525384 10.84069362592535
Ru 12.528233587801726 11.919026023842259 10.383297570385066
Ru 10.518997175555835 12.596551624022025 11.724281232694024
Ru 11.790351395739044 10.637804670056612 12.418337117102611
Ru 9.63422707026047 11.102493262569899 13.432440057448822
Ru 10.249035324606668 9.707862430423509 8.479498709102671
Ru 10.478589412295268 13.344523123856044 14.068650983454628
Ru 12.314263270908883 10.929897015996907 8.127119743334369
Ru 10.355922615923834 12.122092089836872 9.161983000433779
Ru 12.621667579983805 12.859614592201725 12.927612465836534
Ru 11.727929385035527 11.406679437366858 14.747264871500263
Ru 12.075324718035995 9.478998591910957 10.059272430215984
