12
Energy = -79.06541668 eV
Ru 7.571584429133436 10.221360452878013 5.061704543675322
Ru 7.3430211408511035 7.948409705640746 5.670964619405659
Ru 9.52945189578905 9.706242539528214 6.436165807507498
Ru 7.218257015872707 9.647642450658942 7.4214311371985175
Ru 6.30981774903355 7.23936016979428 7.738222740159478
Ru 8.722745706399767 7.666021464065988 7.699829870809651
Ru 10.381405102735954 7.42891763293038 9.60187732281516
Ru 8.11521156493367 5.9947999048098355 9.336958671064579
Ru 9.395974919855748 9.73803088363709 8.822563662970444
Ru 7.33774502095774 8.348660817881534 9.746692250787405
Ru 8.684787927577034 6.9290495508544145 11.401465745571272
Ru 9.434674241655419 9.176181142115597 11.106800342829903
