12
Energy = -84.22119207 eV
Ru 7.804825249679482 7.808114630034608 6.516049229301918
Ru 7.836686459096782 7.834479478102533 8.956122608388306
Ru 7.817047130071709 7.809182512409092 11.396741842710746
Ru 10.091107191177194 7.809840116537712 6.50974082393519
Ru 10.071149706073928 7.836763976225953 8.950318790192917
Ru 10.103373049967736 7.811813397707167 11.390369486973512
Ru 7.802464384381632 10.093856345496851 6.515265992978943
Ru 7.834395651608297 10.06899375067278 8.955511428457378
Ru 7.814841164096996 10.095688674333525 11.395917255757347
Ru 10.088629819056814 10.096602462807953 6.509149211487206
Ru 10.068880633387947 10.071242035539981 8.949492066856633
Ru 10.10096156140148 10.09778462013159 11.389683262960283
