10
Energy = -64.46075743 eV
Ru 6.4618742807843645 6.901059359226036 7.960543200605805
Ru 9.177883235885524 9.564254527146394 9.65911087324417
Ru 8.559351967405684 11.393909800816424 8.19916881268346
Ru 7.239108068290419 9.37559440929794 8.054751655938677
Ru 7.429323170385334 7.84484598714341 10.069766442332089
Ru 8.215995284653674 5.6284117767053425 6.797432511396996
Ru 8.999801842438261 7.528238284285545 8.2079301300019
Ru 9.448137527429065 9.588425646667023 6.853917204770969
Ru 7.811967141993234 7.87543976642671 6.089120201173834
Ru 7.965532994257225 5.608795955807815 9.417234481375182
