10
Energy = -66.52364286 eV
Ru 9.799826918726618 6.720938746218119 7.149030617165368
Ru 7.924421497933882 8.35152029152091 6.490777436663311
Ru 10.590512796722063 8.365735820816575 8.54511528835208
Ru 9.400540104517455 9.89657211512398 7.342015653709054
Ru 6.310204098770684 9.314009113372856 7.9031360924262035
Ru 7.758122597783837 6.382836799484927 8.031522402775026
Ru 8.442672381237552 7.949827636569971 9.888580262952136
Ru 9.87090901563297 9.513347405846623 10.553258361880982
Ru 8.024332696593863 10.33028364674808 9.08457734441578
Ru 6.218665358587215 7.490685166224936 9.323939396674087
