12
Energy = -79.47249764 eV
Ru 11.158307339204372 15.176916129499926 9.159657053328486
Ru 8.568852290057285 9.19640640696983 9.34723579404111
Ru 9.981641996355707 12.18287101704381 11.865047485091095
Ru 9.790438365291335 11.203987577440786 9.644294354792017
Ru 11.311030729402107 13.281176287636303 10.132384933906572
Ru 12.336322641035734 11.530328624285483 11.88467688819447
Ru 9.286291545968393 9.851134746739953 11.651718030068844
Ru 13.380830828353394 9.266993850276394 10.799724887163729
Ru 10.41438279062649 10.766495697909404 13.802693101266726
Ru 10.919056501806274 9.039081417834556 9.974827297785337
Ru 12.22246625368532 11.062417367473081 9.547154881650467
Ru 11.556296364368125 9.316000446016591 12.30304477575633
