12
Energy = -81.08616587 eV
Ru 11.181727459010823 10.665079967087626 9.211386902347968
Ru 11.485030379987354 8.350730698106602 8.305072905617369
Ru 9.194189080553707 9.681178203754827 8.396144478914787
Ru 9.633388606528253 12.181723646477108 8.140387671802165
Ru 7.734128430007067 11.3472990527376 9.578994572610318
Ru 8.532267591833506 9.197537099568848 10.583017965744679
Ru 9.621427395639506 7.315153859693022 9.254966256042005
Ru 12.391030035769566 8.656036929206849 10.403673893107898
Ru 9.88016794277739 12.59372691787648 10.515042090267153
Ru 8.450396806086669 11.322805367585785 11.996913245529619
Ru 10.544095528326029 7.668930269876758 11.368457637472781
Ru 10.51411947142449 10.181766715973362 11.407911108487873
