15
Energy = -103.23965314 eV
Ru 7.822763966406913 8.914163286713729 11.43081328083093
Ru 9.544048004013634 11.171977140986746 7.858214358044266
Ru 10.046631073290321 9.028516850437693 12.534423571297875
Ru 11.821520093516138 11.45091627186453 8.65786957161236
Ru 12.07386979064434 9.060301958907845 8.867054041157862
Ru 10.018099722129861 8.81908487923664 7.6258530757990535
Ru 12.019678736068421 8.146163302942975 11.288670780539148
Ru 9.602022294037521 11.473285777529092 12.432444126810854
Ru 11.231690263155889 10.456831133410272 10.836044603663721
Ru 9.884299673496693 8.510670705628733 10.075205439096013
Ru 10.247467710254197 12.75398326915339 10.130912863279223
Ru 7.7751440640975025 9.170189273065999 8.72757405045693
Ru 8.830975484986059 10.8156871828797 10.124135287372761
Ru 11.688372737138327 10.228006145224922 6.5861331895935
Ru 7.757256386764058 10.364062848269159 13.18849176044566
