14
Energy = -95.58489968 eV
Ru 11.22381337860019 11.02292413595703 8.235894975119548
Ru 11.249273615972639 9.56352120322433 6.356945161973551
Ru 10.950036497879076 8.512742657604138 8.48432162771756
Ru 11.758577988488643 12.4169418699574 10.190394834436487
Ru 9.249971273556831 11.457472673700547 9.695321891074528
Ru 11.549089329173515 9.922213979838482 10.417320597798565
Ru 9.088130392131221 9.92506258759373 7.705264209234907
Ru 10.333777354251932 11.42792020529551 11.93886514702528
Ru 11.279682792442049 7.399079202013845 10.617100715550343
Ru 8.93127480771738 8.746121149687783 9.91439542692859
Ru 7.134753557157221 10.284703734110485 9.312316188832158
Ru 10.079461666504104 8.912092098391822 12.115328766217893
Ru 9.417280333222163 10.382785634492661 13.881414518750416
Ru 8.138216402356871 10.357516059005347 11.661646274725832
