11
Energy = -72.96826963 eV
Ru 9.871209448816986 12.275207192693479 9.131263172657224
Ru 10.106419573826228 11.312537724182262 7.030476600030038
Ru 11.641392854208705 10.494982071995786 8.808503550423511
Ru 9.226248839618563 7.430994688669834 11.657344531877522
Ru 8.421084730465914 7.793419769677167 8.998709530298385
Ru 7.699927674000641 9.188789624920789 10.798270361836007
Ru 10.213780627260732 8.910194868043046 7.606749279800695
Ru 10.647977355379702 8.131441877651966 9.889492094294798
Ru 8.390350259869535 10.18467410537458 8.421009913560006
Ru 9.42225097639198 9.480197165351251 12.63980679535033
Ru 9.86274466016131 10.30094789793313 10.521761169871493
