13
Energy = -87.61951554 eV
Ru 11.689260130194151 9.384040212095558 10.969472984319516
Ru 11.193804087971886 9.903630801974224 8.6702233318023
Ru 10.410063205587832 7.718802402205119 9.622808709473773
Ru 10.562628975791531 10.474760652497281 6.403698830751768
Ru 9.298999965278078 9.750404227528565 10.440658317927017
Ru 9.843182045755238 8.279922953975575 7.319419194930981
Ru 8.931909176628906 6.13688473044331 8.312568466879014
Ru 8.706709262080961 10.334183422238828 8.042815795847133
Ru 8.08483183514682 7.632327233226835 10.171468919311803
Ru 7.434435219965199 9.206145091303826 11.980861000453089
Ru 7.518633376662649 8.189580450222703 7.867532101880647
Ru 6.80476098731641 9.737445610116659 9.706042347678226
Ru 6.311088679838323 10.316908760445324 7.414770784312133
