13
Energy = -88.15717917 eV
Ru 7.469313582326005 9.398711760158593 9.262119521302978
Ru 9.393100675969746 8.282241050958621 8.788241373341677
Ru 8.333699650099158 6.305774251331092 10.227504245020405
Ru 7.766868638402108 11.037864532667653 7.580712332094051
Ru 6.28685277722096 7.57938746660098 10.10133943122047
Ru 9.851230789702301 5.888212705184847 8.405915214253648
Ru 9.864704377741136 10.127694441172434 7.131815725034736
Ru 5.14308687293631 7.405812464645286 7.829554738097414
Ru 7.515556631846245 6.7210329490751555 8.033021592665223
Ru 8.898822513425465 8.215505261801804 6.384422752324312
Ru 6.738436303766392 9.023461926720081 6.918701471036875
Ru 6.521377349585822 6.67051997125749 5.827100546615496
Ru 8.934680225261587 5.850260069162433 6.123380490235288
