15
Energy = -101.854062 eV
Ru 11.013206155648902 11.316102669958497 10.428382839623806
Ru 9.635015471603683 9.499613515701451 11.515970613217197
Ru 8.286751308547734 11.012576064419772 10.080387287234144
Ru 7.278032507223722 9.782521786517263 11.939222111013398
Ru 11.961647975425517 8.857502868834878 10.496175031707766
Ru 10.069521507615644 9.55930984237963 8.988344181664424
Ru 12.23792876099192 10.299981972160198 8.35405616192819
Ru 7.6784806167985735 8.536572397947507 9.946843215585803
Ru 9.970637996071007 7.329396277161569 10.089315416794685
Ru 6.039805771964796 10.321670534057764 9.381550039714842
Ru 11.543231229440538 7.782738506254151 8.11491043986043
Ru 7.884997210214755 9.9211222536002 7.7935141356080315
Ru 10.262042291566615 9.431115434745806 6.539685780872591
Ru 8.9206264821953 7.681986263883718 7.638684069052009
Ru 6.519387114486198 7.888687333702682 7.993200565801934
