13
Energy = -87.17772451 eV
Ru 9.381238921923291 8.119950395081506 11.404760545670028
Ru 9.232342504214861 6.818848629550318 9.180885483820301
Ru 8.11386529194975 10.392411681589534 11.273519356604302
Ru 7.875785001892581 8.341280329884405 7.484146247094047
Ru 7.278105780272774 10.506151119907186 8.789632006904856
Ru 11.464796797251886 8.040227159910179 9.835945355421027
Ru 10.461759775500308 8.273407178507174 7.441271628814781
Ru 10.732394447517846 10.253520988050573 11.051383800301329
Ru 9.255330490787442 10.551895544845655 7.080342106430868
Ru 9.433474109956215 11.763357431442705 9.431150845205702
Ru 11.420175915269173 10.362469535734734 8.579651192053051
Ru 7.189052284005962 8.247751598001756 10.0558200633151
Ru 9.306357310680008 9.300752054286738 9.291300436022885
