13
Energy = -87.60933208 eV
Ru 12.446144099042119 10.015777239106898 9.338973917693934
Ru 10.862005845601542 8.206632123475353 9.32578659760295
Ru 11.287167538029195 12.195110603814586 9.5460693995658
Ru 10.235378579163124 10.355077882041664 8.230691963985592
Ru 10.3351920112372 10.27418799979081 10.720346473903337
Ru 9.527101390896766 6.182127024382265 9.28611040703925
Ru 9.432282754213311 7.763271103834898 11.234034664164719
Ru 8.711434522140237 8.205225811734667 7.929460449053027
Ru 8.820820206036714 11.903047663451709 9.548986406786748
Ru 7.746876057759926 10.668190205853202 7.798151122936125
Ru 8.116626269317107 9.393627707906981 10.005661236113214
Ru 7.395150001463631 7.098014668022452 9.734029067534097
Ru 6.277424943146149 8.911296806818486 8.370366849794534
