13
Energy = -87.28409192 eV
Ru 10.38596491585016 10.230215985442674 8.694945096290404
Ru 9.436379873772774 9.292208343867264 11.512113713044517
Ru 11.048042765614705 10.179230098375937 13.056617329706768
Ru 11.436904470171664 12.36128733749497 9.05430425437294
Ru 8.79890653016523 9.989265829569879 13.88832384205776
Ru 12.348585646320775 11.027960867978125 7.27110863771225
Ru 11.78560878393677 9.710293459665316 10.685427055353776
Ru 11.897244814022208 12.014328277173188 11.524276558548936
Ru 9.774410189192915 12.201415792792668 13.100657833901174
Ru 12.626608902912967 9.073254531098348 8.558838557694678
Ru 7.794875439870243 11.118871741520021 12.077315223620042
Ru 9.630006657973654 11.62597190851883 10.660812806972237
Ru 13.46339971922138 11.189620021255196 9.544368815608081
