12
Energy = -79.44930088 eV
Ru 9.204325393461835 6.749982824900681 9.26984949821108
Ru 8.114743310342249 10.383316760114388 11.350200546028212
Ru 7.874188448148757 8.249956641508705 7.7089113992142515
Ru 7.204980222785834 10.464740703956416 8.985210759721044
Ru 11.447221317256098 8.016978492361217 9.939081495736996
Ru 10.498056405702355 8.144940533930484 7.58693086195189
Ru 10.78431344558013 10.25154937502468 11.227090446010068
Ru 9.25895210555844 10.347059514432239 7.5433736215037515
Ru 9.438702625686144 11.716730975928769 9.644584134535975
Ru 11.462379285343145 10.276172483516534 8.780959642822495
Ru 7.135619234127813 8.20536556905437 10.137094803837009
Ru 9.317269009113195 9.153148153201801 9.627365084535063
