15
Energy = -103.10621627 eV
Ru 7.313454239011601 7.56835668899435 5.2708789493005686
Ru 7.5032333079117075 10.184645638445714 5.173158802908326
Ru 9.082843986476348 8.851250848125343 6.385195498475555
Ru 6.5965374933310965 9.086035552776561 7.13976647429738
Ru 9.508682938624544 6.454199224244634 6.289609546038371
Ru 7.456351876296349 6.765605188243781 7.610183858254664
Ru 8.15720836644967 10.908935735459231 7.596180720488633
Ru 10.684061877652923 7.758085417036375 8.0453577318654
Ru 9.289840421538722 5.680992043214916 8.759140211671358
Ru 7.013453491952956 5.580154706806272 9.67024218704607
Ru 8.60957871818167 8.797572434135018 8.85898602916842
Ru 7.300681781817875 7.777768831191138 10.6125756755978
Ru 5.475172305187112 7.594229816039784 8.883669100601027
Ru 6.434709441812554 9.858821890784135 9.451824236269887
Ru 9.729894444607421 7.289050675354572 10.408935668868947
