13
Energy = -89.48064701 eV
Ru 7.359253563163347 11.475152296874887 7.5821591753256055
Ru 7.315630334036704 10.761915649165857 9.79280102108913
Ru 6.422308541262331 9.039125773274755 10.87426584293942
Ru 9.642389523693732 11.10913486274476 7.764509139710575
Ru 9.542926335485948 9.709883517038271 9.795915432476558
Ru 11.086803165705843 9.720466576808226 6.806264218013809
Ru 7.98251193059804 9.070597847563414 7.903423253973921
Ru 7.133387171185391 7.375622476492171 9.127357782446401
Ru 8.648793414711717 7.981140255728603 10.970452313803946
Ru 8.770423774894745 5.96389004423707 8.29072529328722
Ru 9.55502386297336 7.726536225174755 7.006225007757975
Ru 10.21755176914535 6.521259587483394 10.03784583773472
Ru 11.079446410643035 8.335413151457356 8.840859660235807
