13
Energy = -87.72886267 eV
Ru 11.462700733587385 8.810869498132309 10.317535337416063
Ru 11.028071231365951 9.496814484913749 7.787184876383159
Ru 10.862070954673133 7.199589876550359 8.374123999095898
Ru 9.664453672945811 10.260040505885694 9.569311288007809
Ru 9.374801154690639 7.603956540672325 10.1538961779936
Ru 8.565147164993407 9.392507974678756 11.555676498630277
Ru 8.361156231190925 6.430108438992039 8.302416468025418
Ru 7.0171485618293 7.800606559421532 10.21277198168752
Ru 7.281452236423628 10.257930498666811 9.590530179024846
Ru 9.25673109905412 8.019250620082621 6.592095432488857
Ru 7.741720201378471 12.183275729763633 8.43384744433326
Ru 8.631349572260559 10.32430771614787 7.403081954861457
Ru 7.028788047720735 8.423190146878042 7.827876727095725
