14
Energy = -97.45974144 eV
Ru 7.344521101714173 8.250278460721633 6.513551905700843
Ru 7.3574718660958425 10.513893508804873 6.505248220145573
Ru 7.738388107003386 8.292841695425409 8.917629226884493
Ru 7.750941630364109 10.484436135075299 8.909418344363695
Ru 8.285167329076417 8.292661821935326 11.470752939428127
Ru 8.29791271472674 10.497335359350888 11.462484283947752
Ru 9.586776215076599 8.218251719079523 7.307631639867001
Ru 9.600115796661838 10.525823437435653 7.299003936759806
Ru 10.06603953359263 8.218645854491086 9.845341921902248
Ru 10.079407857113742 10.538707894214907 9.836653172839036
Ru 10.62286499219351 8.244196524557658 12.246189380037153
Ru 10.636193524501024 10.524354628684144 12.237815602778797
Ru 12.199613964252528 9.369274790418478 10.570901501837445
Ru 11.768375367627604 9.363088169805003 8.211167923508313
