15
Energy = -103.43126131 eV
Ru 12.139900413571905 13.428477439398785 10.835138093782613
Ru 10.51932546753445 12.166298597784456 12.253916310231237
Ru 9.860912735097214 11.028485780215082 7.987433169153957
Ru 11.173544488162321 9.754510017695974 12.766597259834828
Ru 8.834719813060769 7.3694802452937305 10.122134337056156
Ru 11.010035205095692 8.109095077562968 10.960755406229005
Ru 10.271743956528535 8.731392849281871 8.581876666689642
Ru 8.134380558581658 9.683485668920019 9.516731211892223
Ru 9.9210341851606 12.932567995640918 9.906349086521928
Ru 11.966079940780249 11.78230265680866 8.95174829341949
Ru 12.632487041848933 11.05888378798888 11.317733026953476
Ru 8.84010473033089 9.139666264838473 11.881614053710695
Ru 12.568251318746183 9.375135195612925 9.561794159580394
Ru 8.31689297036499 11.454182070840927 11.50199835065356
Ru 10.328253415051568 10.503702592032411 10.37184681420712
