13
Energy = -88.54309479 eV
Ru 10.490733696884043 7.0277500323954945 10.971370065591863
Ru 9.379553359119857 10.968097731110664 11.912757401692325
Ru 10.448365645494937 9.301314099124435 10.362117869830481
Ru 8.192392505577919 6.998957910616139 11.199611195141046
Ru 9.153724106562944 11.546926061035707 9.762484266357891
Ru 8.058011069610282 9.272597103472243 10.601702361564833
Ru 8.017134653090482 7.514467712066036 8.826115657089169
Ru 10.187444787451135 7.542758445375478 8.610988885792883
Ru 8.93008956774338 12.092995606464651 7.600712975432094
Ru 7.8110409495762045 9.906310638009906 8.115723822462249
Ru 10.19014887162132 9.940736264630202 7.878150996657821
Ru 7.716375064760982 8.192708021813852 6.504490964634941
Ru 10.013652786795245 8.225666285145738 6.276359566205528
