14
Energy = -95.79232677 eV
Ru 9.92299552682394 12.649186436011421 8.74970565404049
Ru 8.977486565093447 12.975928238617207 10.960499204760644
Ru 9.884462860651102 10.369809988611367 7.6888630906266755
Ru 11.365583100615176 10.932952391849113 9.661731207786097
Ru 8.805792168853866 10.735054164214635 9.844893871951207
Ru 11.088570454369473 12.209108841410487 11.65327245983239
Ru 9.159171809359838 10.778547910779722 12.361478740659791
Ru 13.214367827540167 10.390695148985628 11.17499271728062
Ru 7.880427743008447 9.004192233962064 11.455311332622202
Ru 11.075080998754474 8.315210909064563 7.954937658903394
Ru 8.955348769605376 8.372275304301885 9.02027582651282
Ru 11.643495873376843 10.178556469715923 12.84520570904559
Ru 10.293674789421459 8.999730836173496 11.065733596454264
Ru 12.279073157328822 8.568675562349613 9.94398018882864
