11
Energy = -72.82972437 eV
Ru 10.119888043976383 7.788205819280321 7.89636378681309
Ru 10.255297273973909 6.990461931083415 10.22795628824903
Ru 8.463260344697533 8.782487162798695 6.2444963752392475
Ru 10.822193003731938 9.242901392149797 9.791989083351966
Ru 8.164461663731212 7.5685994728497334 10.711108644440094
Ru 7.615216037315415 8.093548071434165 8.256681533298309
Ru 9.443697289144923 10.198353052356762 7.853232329698474
Ru 10.864718402386648 11.719227525192434 8.658724380745744
Ru 8.493925537479402 9.94837474072989 10.071201503126701
Ru 10.037136792991074 11.463379288127745 10.761385444368747
Ru 6.300450124435792 8.804432966196948 10.11161072454594
