10
Energy = -65.82833852 eV
Ru 11.139077224950913 8.959650095763593 7.682334140749947
Ru 10.280951142960642 9.51503090487764 9.732628117010282
Ru 8.708849618070296 7.697623750428407 9.528956855657338
Ru 9.004587477732382 8.089827430268402 7.195125758511108
Ru 9.07977518599215 10.4168839712906 7.811988808443069
Ru 6.84549793095729 9.18789927870156 7.3474194411885465
Ru 7.5692643234845525 9.821539902811512 9.62139535050737
Ru 7.007564420918651 6.645174069632088 6.9850681262062055
Ru 7.934931412154334 5.594410519097265 8.780822030689267
Ru 6.328256033050191 7.608160220273238 9.16009210900322
