14
Energy = -96.07861363 eV
Ru 8.287404148280837 9.81982363708382 11.453166089831667
Ru 9.460266303638017 11.825265069343983 11.884428639815521
Ru 11.04016904693047 8.118766021838194 9.857869793853295
Ru 9.293501181041531 7.4856964874834455 11.529741234025678
Ru 10.204475579120253 10.537249801614568 9.886296865009607
Ru 11.625875338021665 9.763311984452407 8.008841667062631
Ru 9.63276422498254 6.184765650062896 9.363146627403616
Ru 10.203100138799744 7.84685526481366 7.518000000347449
Ru 7.53444782612934 10.863554280026174 9.309510427849292
Ru 10.713784270786315 9.401411487563227 12.028060385772694
Ru 8.80987018989723 12.68519402836343 9.76279012639942
Ru 8.625501074702987 8.409042132968997 9.336555455127776
Ru 10.339443497643265 12.173918642020046 8.012202738085024
Ru 9.17220193371643 10.170806636286862 7.551769897284358
