14
Energy = -94.1052411 eV
Ru 7.950998995993891 10.476756608286179 9.301803209141772
Ru 11.227247847658775 9.937024312548346 12.247846389985382
Ru 9.57185479264484 8.92715784398449 10.35214410285745
Ru 11.45685662298164 12.799635915173068 10.91345283592909
Ru 15.082256164302393 12.046686807994096 12.634292246362847
Ru 7.884570568046303 8.12051825316109 8.888928253655182
Ru 9.835999265300938 9.722587208896842 8.050247341889184
Ru 9.84045962050205 12.110010648549837 8.796489114882185
Ru 9.483539372299525 11.287508220969922 11.099111739061852
Ru 11.386648099364216 10.5147126241209 9.831851701788523
Ru 13.0302300629758 13.277011005562132 12.84271898635297
Ru 10.708862932899615 12.19787033563185 13.20863006437409
Ru 13.27028734230998 11.20207651834334 11.518804259770404
Ru 12.784942902376978 11.11436809406245 13.87208378977201
