14
Energy = -96.12202859 eV
Ru 11.517933809807548 7.346318072428864 7.860159721124077
Ru 9.2491283568679 7.6800853993019995 7.156871404862359
Ru 7.655377147845402 9.132865190339645 6.288625787510512
Ru 10.607852612667271 7.0633673065135865 9.97188685482859
Ru 10.508497373885017 11.803777005132977 8.901267804914404
Ru 8.657998063043333 10.861264677539268 7.568475064360205
Ru 8.42502815344341 7.785561859072005 9.301106314689456
Ru 10.764350042538291 9.604122310716377 7.791679643630907
Ru 6.94214080651226 9.433359239004375 8.662351924406307
Ru 8.380465611030196 10.978327300044612 9.978321637455826
Ru 10.28140937466554 9.56753101018598 10.062938382358336
Ru 8.22578896661128 8.69251961617833 11.477321539009921
Ru 10.473345300452172 8.224116709503686 12.039845628220922
Ru 6.402140878528523 10.097784985202821 10.994676375132533
