12
Energy = -81.56740825 eV
Ru 8.81577632874706 8.084794831092857 11.298747470858046
Ru 9.7606644610315 10.732806457951057 11.591484545050385
Ru 8.148517968695945 6.723442407968821 9.589284566871747
Ru 7.319795953005867 9.705275332591397 10.59299254407694
Ru 10.509294366627973 8.93546349593247 9.899611788566485
Ru 9.82734906785528 7.59945222142487 8.240964427722183
Ru 10.56198989500017 9.253852291789618 6.462088200160818
Ru 11.276706668096265 10.562944607080302 8.009891224093291
Ru 8.922457348281053 10.657835857029223 9.154069587099604
Ru 6.652475815346355 8.353032859613242 8.883500288474945
Ru 8.254715235967605 9.311430679929874 7.497159821006078
Ru 11.374994593927156 11.588198677603131 10.04498479738598
