15
Energy = -102.02094453 eV
Ru 6.374481732259188 8.084112015344349 6.575883297173722
Ru 5.0069356314360975 9.839514981529302 7.639274106542405
Ru 10.784620169542745 7.827356340124754 9.180978054184317
Ru 7.170702876185575 6.256527866535839 8.053267804461886
Ru 8.60501941951826 7.068710618222313 9.935556992832023
Ru 6.7280582740141215 8.695823233188925 9.005563047106026
Ru 8.941556770533964 9.653203549443118 9.620042140760686
Ru 8.433239454164559 8.821268065706853 5.269191757255672
Ru 10.599262101867408 5.582469604378901 10.194157596257355
Ru 8.770444138684251 8.157856373515862 7.629574175371208
Ru 9.077071977860829 10.455769511980098 7.12333596244346
Ru 9.690929606157834 5.851992978525781 8.002781021083711
Ru 7.103112532033175 10.989406120616708 8.489880136917293
Ru 6.791421714906422 10.412646156197972 6.036196861494401
Ru 8.235061800178315 4.615260784032408 9.556235245459172
