12
Energy = -79.59787513 eV
Ru 7.5012516907848505 7.948325060399911 5.126402767161098
Ru 6.652887563414655 9.953643114250237 6.003939972149494
Ru 9.047240633473017 6.899151172172455 6.722670206061621
Ru 8.76982277541024 9.359586253808041 7.0777330857047875
Ru 10.646113928286432 7.869526392373024 8.162258987345036
Ru 6.876020916715772 7.897680502283325 7.505902985307036
Ru 6.943905024032127 10.213588070522901 8.519148711583583
Ru 9.16455016655867 9.292752052144753 9.610575749006516
Ru 6.800423581312524 8.48818256786396 10.084808128758196
Ru 8.584269720679792 6.960772413435222 9.285102221660054
Ru 8.611089607970754 7.779486378498168 11.615123468084926
Ru 10.734903276340093 7.669784907227233 10.618812602156748
