12
Energy = -80.06620953 eV
Ru 8.106451942422808 9.054196031809132 7.19725935392757
Ru 6.251540207506344 10.195399434840994 9.656833403118357
Ru 8.287207335628983 10.867707294992702 8.823043657296871
Ru 10.153404549106638 8.949905600897207 8.207229128296815
Ru 7.143261523218169 9.777824958416423 11.70710318388847
Ru 8.215502488562649 8.584900949044751 9.697669283795005
Ru 11.248076787126903 10.859897446265308 9.255551378881956
Ru 10.97720556762157 8.842611722164925 10.611760159861822
Ru 12.055324494814737 7.749381797979864 8.54802849667551
Ru 9.194723097787794 10.501294720967172 11.054176654305833
Ru 11.305653300771624 11.113920868482795 11.687106070679468
Ru 13.118384185157954 9.5447200155436 9.45563740506996
