12
Energy = -80.37159302 eV
Ru 9.09952917889457 7.70288748837563 9.954622366900528
Ru 11.046225567262223 10.556745415572703 11.026997680798173
Ru 7.606206034444484 8.914158639501602 8.431712835855302
Ru 9.675309027907824 7.869864252054244 7.563743007860163
Ru 9.4316397624456 10.33354547640407 7.567408007657314
Ru 11.111566957197775 9.257548917858141 8.99785494607888
Ru 10.688938662683167 11.866095054768875 9.06791580229313
Ru 8.085112263857082 8.98840726935393 6.049026447527107
Ru 11.21113045368085 8.187820085536725 11.316963721784338
Ru 8.75922333049137 10.498674952548914 9.93816251735769
Ru 6.963350051966776 8.97067037490908 10.828478429750069
Ru 9.05925354580087 9.021435737216718 11.971689256025211
