14
Energy = -96.24975236 eV
Ru 11.122710624852035 9.064818946457216 7.596072561106433
Ru 8.810253562263842 7.9902412433939425 7.627958950005905
Ru 10.747620651649475 6.904121821719737 8.88445866437023
Ru 9.160881176253822 10.23076267397635 6.467966372301746
Ru 10.933972864582646 9.054338764323564 10.027689600456053
Ru 6.821700036060819 9.237297390027019 6.637565504959777
Ru 10.01460312188746 10.97161533032747 8.631499350470214
Ru 6.4489920537306205 7.079590254574128 7.933998228025954
Ru 9.365325712511025 7.229804025200269 10.861235015412644
Ru 8.410379322728845 5.910187604188831 9.051259826016867
Ru 5.967224116822556 9.253939331383826 8.923351882479638
Ru 6.88081952297518 7.3334865892579275 10.319210566219358
Ru 8.420567219408268 9.239304179128682 9.603433875417556
Ru 7.5323406836882345 11.073400478630543 8.075751029902007
