55
Energy = -405.98660304 eV
Ru 7.072590852013482 10.01575811148897 12.247536511367977
Ru 12.921845365489151 15.113109139973734 11.967842372148302
Ru 17.19250896296518 14.646307999338179 10.827991396429784
Ru 10.188180576469021 13.073646897421773 15.396997739515882
Ru 11.552845762565598 15.865732982715501 10.163202018833438
Ru 8.670204788150315 14.362011877329486 13.754583977114166
Ru 16.787079303406006 11.986683698771682 7.090316805393214
Ru 13.070064691042353 9.964797001074023 13.374073319061667
Ru 11.197512203689998 10.879544509100207 16.15628166497008
Ru 17.617894176753584 9.87412995038761 7.783358207969614
Ru 9.699073821757638 9.279039914720046 8.549482299400479
Ru 8.866570792951599 11.247534561968774 16.68759113982556
Ru 7.701258161447108 12.27645359506952 10.068795436659732
Ru 18.57301399335684 9.510971522831063 11.992077023100562
Ru 11.22910042229276 8.854278445277075 14.67293310278655
Ru 9.757816750431637 11.74764738793346 11.511251345978154
Ru 14.52210148657842 13.030819005125894 12.459396370584436
Ru 7.538664439909572 12.421465514724673 12.592962728493088
Ru 9.58654568141126 9.276030063020631 12.49878305060358
Ru 8.437179441365007 10.828706707423324 14.3285567794036
Ru 13.438232565095577 10.10022759957293 15.826332508481837
Ru 17.65472766876399 12.903270362432941 9.069757511424047
Ru 8.791053324641572 8.540127624647269 14.755868007043047
Ru 9.22582210213049 16.09533951603494 9.858405395481213
Ru 9.179192940904334 13.8556924781767 8.770518111590528
Ru 12.803118334216297 12.3138785841189 14.550999407333823
Ru 12.556908024625647 11.902932234732997 11.873071678285946
Ru 15.92677687546363 8.483943408003888 8.564664368400955
Ru 14.973900720872999 10.270279391608902 11.846238738993568
Ru 9.700881251484779 8.942067216304386 16.865280022054527
Ru 15.17731528101131 11.173694424537587 14.274526928384581
Ru 10.790939901859597 11.082005406103098 13.701995054189466
Ru 7.533757901288151 12.963512707211992 15.405108410896641
Ru 17.300215428235358 11.128078506442735 13.136352452744186
Ru 16.364887524596956 12.250200970798922 11.163444285413444
Ru 18.12710882435072 10.648116491282392 9.933636808241852
Ru 18.813375412434226 12.67932416530644 11.478253920890563
Ru 17.486512435793152 16.251900837634725 12.410664127664877
Ru 11.19884381477729 13.497115930906357 10.304108940982337
Ru 14.938178611798174 15.88648103478226 15.34977519914654
Ru 15.376129962811493 15.416328461582221 12.947873630373616
Ru 13.105152551626807 14.813754974812381 14.471129903658046
Ru 9.924445935742593 11.60606881123184 9.006158514652112
Ru 16.55014429798936 8.969506199883343 10.79314424455984
Ru 8.474725137027557 9.875284445337185 10.357454170205068
Ru 15.50731751612425 13.615005040761384 14.724318366640226
Ru 10.94522509067106 15.400172059399903 14.820102568673775
Ru 8.71510424457345 14.917912081029428 16.247513895791613
Ru 8.819536919170226 16.714445097522947 14.400266514291184
Ru 8.846608772376841 18.76729132346915 14.02937113039291
Ru 15.792951491257682 10.908469976712453 9.114097374435586
Ru 11.024668927091556 13.67899873243466 12.904092985695204
Ru 8.936150463784198 14.163110532005225 11.276740741777331
Ru 17.270557252198028 13.69157401024843 13.10149315267863
Ru 10.358837830246921 16.05057748831645 12.354584649972757
