55
Energy = -417.12296601 eV
Ru 10.986199190554746 9.03192958635223 12.284360837898214
Ru 14.06888005233597 6.734606776905424 14.232662683331695
Ru 15.434458649838646 9.370169008160424 10.382380761819364
Ru 14.298846643578354 19.2656124386855 15.768956685313425
Ru 12.625538555630175 14.428092214140728 14.653495270507662
Ru 10.41428374645555 14.550942193893007 15.816953974761386
Ru 14.988208575955934 15.025065931657641 15.352124767613766
Ru 12.708808166446612 15.3020968112026 16.985427487763303
Ru 13.748367028313815 8.357212901252675 12.208001541250242
Ru 10.314715036389492 15.84312334986834 13.608668105281948
Ru 16.882097806569426 11.546802006936803 13.50868917495878
Ru 11.864192366273134 15.526042500790128 9.51121284833889
Ru 12.415163128877742 10.895197193771143 17.479480228481787
Ru 18.766440420581358 12.745847006544613 12.480731949814828
Ru 8.459731982628629 12.17895113406727 12.246224268306168
Ru 13.841581540184977 16.710451949814072 13.787490442125858
Ru 14.15436925408957 14.418134417565657 10.386391989807787
Ru 10.866277693759969 11.556627903380921 11.444184096146092
Ru 16.876641432984506 13.919572219462594 14.151460891479598
Ru 14.804395718159343 10.55016026881347 12.594914880957932
Ru 15.321592640117595 8.686163896367141 14.24689541820155
Ru 10.128889956712216 16.453943244596534 11.150680010412552
Ru 17.421374692204182 11.288256443504268 11.047271965102246
Ru 13.856416784732852 10.247437126586831 15.379557980954809
Ru 8.569401940750689 14.537379045063998 12.40468723738519
Ru 11.878743027868412 16.90092572477037 15.271710612275912
Ru 11.149127320131239 9.797801218475641 15.670751721186795
Ru 12.233546715084806 10.8067401735723 13.57704429510198
Ru 13.678914633475069 12.715756020544426 16.39337149652155
Ru 12.284980929152885 8.231354751814738 14.223847452266051
Ru 11.642896849990604 13.276142532877744 17.867287945128826
Ru 14.26208561292369 17.038566150263968 16.38766464032406
Ru 14.37067993943271 10.764400760410341 8.696618960358766
Ru 16.691160505163896 13.729063683417596 11.580872006993673
Ru 15.744090116244227 7.213895759795084 11.752780201886274
Ru 16.969757338556878 9.22808568804609 12.265297157913688
Ru 10.327481060919512 13.905508571714327 10.618557554543418
Ru 13.240656219500428 12.741180429160272 12.13290612942338
Ru 9.784549783296955 16.487799424063397 8.722632476687115
Ru 8.293702201894874 15.152296596488826 10.053269848546911
Ru 11.304060081025803 12.32241669931836 15.619770794616153
Ru 12.912862186616575 10.29403494120433 10.762928296799052
Ru 12.042118238737263 10.80489075147865 8.510039992253617
Ru 12.245182127683295 15.20394919360402 12.116749481466963
Ru 12.545611540045218 18.99394278717729 14.414618659332696
Ru 14.762510144799961 12.470856762821638 14.245912434719461
Ru 14.845219702873374 14.556185941465749 12.82092912440238
Ru 11.833587350550145 17.75081254697005 12.543192307999437
Ru 12.284661253638452 12.841842116940729 9.639198287840214
Ru 11.654920426834837 18.04538640921226 10.119690997545572
Ru 13.633428543758384 16.86696007766698 10.926745109504173
Ru 15.162818837328128 12.06236341192709 10.489842777239103
Ru 9.687817177157159 10.76120352928956 13.649454274115534
Ru 10.694799952315542 13.284923618321463 13.32192428975363
Ru 9.795115276300415 8.354854255227194 14.265443272664092
