5
Energy = -29.7594678 eV
Ru 7.588339555025149 5.10512633004991 6.009282241404414
Ru 6.185067616486908 5.941268981626956 7.8249058506160285
Ru 8.057095372400383 7.54379915566668 5.8031142565523375
Ru 5.930149144463754 6.88511232434114 5.770858839412584
Ru 8.317706398803557 6.595872911673139 7.845971277953708
