5
Energy = -28.95907657 eV
Ru 8.540858897140282 9.022361513383014 6.589369605708056
Ru 8.419316472482379 8.618952717295034 8.795409470884008
Ru 8.54616994664283 6.364572332564319 9.045267786083352
Ru 6.848404722782456 7.7346666363869705 6.156109972103648
Ru 6.56162029480715 7.200995441365765 8.318007698994148
