55
Energy = -429.05521613 eV
Ru 13.326448055487706 13.68283784821446 13.096469912603133
Ru 9.055411790949435 9.61425343936531 12.20311289074095
Ru 13.33308703976757 9.583495202066157 15.393737193870152
Ru 8.963030007787482 13.518562908868148 14.520591759594698
Ru 13.497585353101552 12.2454523202732 10.848308633531062
Ru 13.26502148169363 12.251278452557177 15.462178078880967
Ru 13.279916599562227 16.140965100819624 13.1804342891676
Ru 13.31742787200895 14.844812928992196 10.859276223449285
Ru 15.345922555166862 16.135704726166576 14.684914857967517
Ru 13.333055998914185 10.813716387614976 13.100745779908838
Ru 13.329421807308515 9.645409053318263 10.8667807168857
Ru 10.978818572402366 13.498813598392875 16.11905478218816
Ru 8.96897859650946 10.961881084855222 14.5244077453247
Ru 15.474997801178674 13.531800469029236 10.168214325882234
Ru 8.970381859562561 12.243368081740934 16.706417077953194
Ru 13.298443726642716 8.355762417369801 13.191826429553217
Ru 15.480814484659822 10.966302914479556 10.171759849487227
Ru 15.355376259352203 10.85857135978619 14.743937048966423
Ru 10.95187242756074 12.243838597798268 13.862072301586391
Ru 9.098853522835572 13.648156809714743 9.971594112523587
Ru 15.365535083357688 8.376151967205315 14.69550190346961
Ru 11.110295141686494 14.831228059730908 13.848637521501322
Ru 9.10531210925399 10.819247979547313 9.975823616920197
Ru 13.320232085047468 14.919270801801417 15.3862239021935
Ru 11.122401373287145 9.657225199851178 13.856215669393567
Ru 11.227191356871469 12.238086945423309 9.210569864654063
Ru 15.348738681798048 13.652508493111478 14.739839682374416
Ru 15.415328950819664 12.252266834704578 12.48785121313618
Ru 15.564676982265322 12.246191139626433 7.975844956103847
Ru 9.164634173154777 12.23110489269793 7.845177558170984
Ru 15.4035234376579 14.868472055205121 12.501919631613863
Ru 11.147891459731625 14.91027355027389 9.322710628703327
Ru 9.238206420258809 14.703916395055797 7.665560215010322
Ru 15.415618688302525 9.636248118098099 12.509225346447503
Ru 9.109108883860948 16.13275877098584 10.003235201589328
Ru 9.249473620471058 9.758942952425329 7.672827931459417
Ru 11.112965018246818 13.688076005963731 11.598332279358566
Ru 11.160391899571094 9.565925271041632 9.330339349058278
Ru 11.390147235401042 13.585416771102771 7.141315992180271
Ru 11.149139327466187 16.14379729806743 11.53968516444216
Ru 9.128843654393615 8.334550884653924 10.014507114850666
Ru 11.39628761840437 10.886197439222856 7.145113405630952
Ru 11.119603190173807 10.79397691807298 11.602550575389863
Ru 13.501616042341663 13.480255274980307 8.572720509286382
Ru 13.338750671110668 12.23923434206221 6.373056731283511
Ru 11.167289426492193 8.338347598192238 11.551090277905832
Ru 13.507234251531624 11.004527459768473 8.576065381948505
Ru 15.270949138407437 12.258076681709976 16.886644571340984
Ru 9.033707709816063 12.237103338959606 12.202678126867946
Ru 10.984811893981568 10.995554136325673 16.122732679811442
Ru 15.141669550129686 14.716375609501675 17.056978788683992
Ru 9.043250505765466 14.859827533177127 12.195435836631056
Ru 12.956536790474939 13.550958582899828 17.551392000106752
Ru 15.153187127582735 9.799146516197867 17.06378780194756
Ru 12.963071711599088 10.956261504098714 17.5550615836364
