55
Energy = -426.40404973 eV
Ru 8.524554544528986 11.323216447610868 14.542215276580626
Ru 14.865331306677096 13.198704473831079 11.26676129041302
Ru 12.890690773235065 9.55196855269303 15.509503771555943
Ru 10.755239201525889 10.715692572213595 10.131443547748207
Ru 14.896697966603078 13.34770197742865 13.894899606353185
Ru 12.678919390296816 13.702968028699972 7.389465376028014
Ru 10.632902959783946 10.826329775876124 12.825917794960644
Ru 8.506553935980286 11.007940964809263 11.14752231284845
Ru 12.703271494132093 13.725231026145954 9.952061614299545
Ru 12.848688934456199 11.933438495298178 16.64746420469715
Ru 10.830577405674113 11.054830062043983 15.41963365604599
Ru 12.679722770035125 13.968365305984111 12.563165544540206
Ru 10.670684684665536 15.224552728135702 9.85202763760308
Ru 8.481273300290498 14.693024657573432 11.192885216220564
Ru 12.756347722678646 14.081148102599574 15.177435874308546
Ru 10.518755949887403 15.417318863094742 12.502541025358402
Ru 12.791897671354024 11.400957835936609 8.77423214370671
Ru 16.958229093018442 12.399140400748403 10.032048068023505
Ru 14.90923423115779 10.881669370116477 10.122412605696343
Ru 12.741703638773993 11.533851248445428 11.40823852727224
Ru 17.01572485231425 12.488252970729201 12.585040356618187
Ru 15.01464777828786 10.856542595728111 12.782827364896734
Ru 12.787156129588023 11.703574963102477 14.036473991752192
Ru 8.458088867862923 12.87491783600316 9.56647505121041
Ru 14.989775064543652 11.235378234302543 15.363656925421406
Ru 12.669816391074894 15.847498414982 8.443322671354947
Ru 8.403174512044474 13.32176461765622 15.947368747904838
Ru 14.701574350266055 15.30315279842033 9.850136944228256
Ru 12.636396803062219 16.14334882349748 11.14224160310313
Ru 10.691908872844014 13.444373343200825 16.558898411831787
Ru 14.75181508762721 15.505777905369492 12.447308514408476
Ru 12.661709431433517 16.30875774556084 13.703834348520942
Ru 12.768196130126531 14.371349735079967 17.72222111416692
Ru 10.681305747569041 8.604093919888852 11.641283499056778
Ru 17.012825340615432 10.249979697547111 11.437947243508958
Ru 16.975776915245273 12.833952747302742 15.245205573666295
Ru 10.71384804116488 8.754999150011919 14.220222174787981
Ru 17.076178173826673 10.49984765034971 14.120812530545965
Ru 14.86259298112027 13.540596253888841 16.497203949732565
Ru 10.658982406175067 12.913764410521289 8.657971917103593
Ru 16.867392431467863 14.705639350409104 11.242862534300404
Ru 8.515999799789444 14.861938840901745 14.134942057299597
Ru 10.484162673313188 13.11274698474234 11.288509345697902
Ru 8.532846638437983 9.415335109608803 12.975409087687574
Ru 10.714493972102641 15.565963434064503 15.139240692629462
Ru 10.52720088870503 13.282214967987418 13.915739278945466
Ru 8.2619962776567 12.76635518114945 12.724937957006153
Ru 12.750923032539747 16.363560908800775 16.409231392954418
Ru 14.860056600281043 8.702213421249962 11.572108205760639
Ru 12.805091371744995 9.223358715760394 10.233371882577286
Ru 14.770702653026081 15.651227418847977 15.046546065713173
Ru 14.888930635902854 8.891548986084638 14.23711357382443
Ru 12.761308007715462 9.323722258077186 12.86315239532583
Ru 16.8839211369973 14.900259083060789 13.781233773371074
Ru 14.776873028771888 13.018610636826457 8.6879437288263
