6
Energy = -34.41975203 eV
Ru 11.29951980099366 9.392015088129412 10.908792022363974
Ru 13.294176444824796 13.08569688574692 10.107794371632279
Ru 11.648777393863073 12.028209677910473 10.663160164432735
Ru 9.212925579691177 8.460914047870292 10.812481506625032
Ru 10.337474309247838 11.15874180085071 12.223192829076735
Ru 9.20466895246352 10.647613648074808 10.216753274159249
