6
Energy = -35.7847308 eV
Ru 10.043361455661236 7.341272028461558 9.478481877492
Ru 10.504300964073845 8.476524577706394 7.586961236086956
Ru 8.084588076692098 7.200228607187476 8.399520447438508
Ru 8.704872632052533 9.573838014221607 8.358973102418064
Ru 6.310330146497955 8.312778401345708 9.208702414738388
Ru 6.748995604358697 9.455845818498744 7.266869434645315
