6
Energy = -35.55184904 eV
Ru 7.6253074803550085 6.316290009081866 8.798578427843012
Ru 9.319124002794545 6.997602663214986 10.06156130944711
Ru 9.394311944875437 9.19338168404466 6.982605978137772
Ru 9.139703931248796 9.117726112124373 9.358166312112413
Ru 8.02611922495186 10.819491169069332 7.684329467743183
Ru 7.30698269645611 8.332528732271953 7.901036597687473
