6
Energy = -33.33931388 eV
Ru 11.466775402144698 8.091119729508286 13.500887712349583
Ru 11.541339670544902 9.742923114741153 12.33764029387784
Ru 12.101985712791706 10.675309900010436 10.249774899215353
Ru 9.981717832287622 11.217686245266528 11.413208662407413
Ru 11.282656347339946 12.872607833760407 10.382104470817238
Ru 10.820207551530553 14.579091872917692 9.39341310566203
