6
Energy = -35.69075447 eV
Ru 10.14335007469072 8.05284764059666 7.585688861757647
Ru 10.38621227197983 9.803128442090685 8.988573371344874
Ru 8.791880056293762 7.530432146189043 9.411108800270357
Ru 8.22229024136371 9.63946460201189 8.31972489485762
Ru 7.2559532436490715 7.320281832671711 7.662317878299779
Ru 6.284427421554167 8.740630513863985 9.120913427313232
