6
Energy = -35.85463383 eV
Ru 10.535714186981398 6.955139472212472 7.906735294647732
Ru 8.215358604857173 7.133286564359648 7.666010444959341
Ru 9.52970566394258 9.033758720025748 8.284548278327447
Ru 7.3478674693902715 9.371228864565541 7.25571289625786
Ru 6.637835974573597 7.825409080584703 9.124053067198666
Ru 7.888001160005933 9.63053766117664 9.710902325746646
