7
Energy = -45.16693219 eV
Ru 8.111800792402022 10.004476167853486 8.249794449665892
Ru 6.634992506902074 8.602151119569445 7.22336421598774
Ru 9.832435303963502 8.788019387607456 7.378764726928687
Ru 8.351825419064786 7.194822728401889 6.667309447168668
Ru 8.102461253627611 8.63667211105813 10.074377940470606
Ru 6.919433243457322 7.0698550528164485 8.898769620034663
Ru 9.566530980582677 7.2234829326931385 9.027099099743628
