7
Energy = -43.50378833 eV
Ru 9.98456965215234 13.245455005914426 10.497611337024972
Ru 9.367984852467085 11.309092361583824 9.582906529706234
Ru 10.711917023765546 8.924061740003165 12.565401352612373
Ru 10.39674193562074 11.038120192845659 11.913536091429018
Ru 11.483904099345507 10.467419588003231 9.825634197583069
Ru 11.751648411840444 8.383366423802162 10.673503162679149
Ru 12.07925687384029 12.491819281050253 10.786217382772078
