7
Energy = -40.26358072 eV
Ru 10.152550844720595 8.90581937101983 7.413945628242172
Ru 8.508397944838604 10.670617262931138 7.786912321264394
Ru 11.236238713986763 7.834400035293805 9.3056963034377
Ru 9.648911935933011 9.645770877672115 9.68561460469733
Ru 10.70472019992139 8.556168755294262 11.59251501410514
Ru 8.034406355849896 11.43668785363978 10.064962439749113
Ru 9.143702598883364 10.400167796578208 11.954182480339856
