7
Energy = -42.74124942 eV
Ru 9.411005452475942 10.279566875756988 8.42046717350833
Ru 8.630618649972325 8.508642389139823 9.937780800057029
Ru 7.066927680532284 9.559820642501787 8.389046239908776
Ru 7.616823974217632 7.148788694343049 8.145350895768676
Ru 8.446831988457879 9.010429727446127 6.614377090304067
Ru 6.611619583296904 5.3911334088663025 8.246503050188695
Ru 10.009014846798099 7.956335503055436 8.159458537444328
