7
Energy = -43.35187387 eV
Ru 8.844394457282416 10.823106043400017 9.281303783634492
Ru 10.716993611128057 9.304076261201567 9.434274034379536
Ru 9.278754885623902 9.709342691571557 11.224442859938602
Ru 7.530802931059856 8.980535816721112 8.94398091742331
Ru 9.245427646441847 7.609140611445871 9.091059205011495
Ru 7.184934993276909 8.289630900359839 6.791185547903106
Ru 8.890935104089744 6.940200571509899 6.940749503295253
