7
Energy = -42.44014035 eV
Ru 8.872891325016264 7.6299769671796955 6.772957089807614
Ru 10.600955786720919 8.00894098079303 8.153745814377393
Ru 10.63780931329187 10.297916091725588 8.067365168817647
Ru 7.748992510050653 7.052231554908223 8.62978645131001
Ru 8.70622678566778 9.4469004278925 8.855727520458899
Ru 7.548108589313561 9.251785947212115 10.721376494592247
Ru 6.207255850878133 8.567490593753364 9.01523347290301
