7
Energy = -42.90572561 eV
Ru 10.77437451811103 10.152723186084007 8.433122774763437
Ru 8.900258374416602 9.187104503771634 9.528883897081492
Ru 9.835317004641695 8.339411346910014 7.511799166945026
Ru 8.006775894970493 7.5628037888599495 10.9520093231038
Ru 6.907296244855926 9.309884789098176 8.465514380875007
Ru 7.873644471348851 7.0565269822711985 8.720994221123622
Ru 7.83021911830896 8.505427218613427 6.524081205289986
