7
Energy = -43.34163114 eV
Ru 9.510544812138818 6.919996980638971 9.291577099643254
Ru 7.972585591696775 8.52960851937619 9.744673788664288
Ru 10.792743887703375 8.617706794866423 8.15524417944511
Ru 10.859847642767068 8.404096528996005 10.439988968853893
Ru 9.12513508632504 10.08007153902094 8.696057269678997
Ru 6.23112838743569 8.859524221835454 8.31286192390204
Ru 7.377199866098932 10.392436691309719 7.269430288133375
