7
Energy = -41.56553686 eV
Ru 11.201316160068716 10.909141589651123 11.407057505792073
Ru 12.344337123628424 10.527287736255825 9.271498250974213
Ru 10.631988537765618 8.926307546081878 9.988077229053074
Ru 9.968149924981217 11.1748274379104 9.23993840639005
Ru 10.823239406559056 9.578449559899122 7.725779184050321
Ru 8.944963925388139 10.220556476366728 11.350133817717952
Ru 7.217777034822076 9.34838192056616 11.937834568244224
