8
Energy = -51.29684627 eV
Ru 7.768615461053457 7.659852885842469 7.116663804045502
Ru 9.744946928036947 9.197410821255781 6.690816541911766
Ru 9.1437252596819 9.680665252524335 9.107051613862826
Ru 7.664360862071092 6.363390913689358 9.114915583067745
Ru 9.825418518634798 7.501782073330809 8.352053494335005
Ru 7.516237868695593 10.185415143017378 7.225705348146279
Ru 8.707060582092382 7.8868392339819495 10.617588346489347
Ru 6.905038388443103 8.80004833281235 9.050609268141537
