8
Energy = -49.71656347 eV
Ru 11.123621990336707 8.257453133123734 10.16971003122767
Ru 9.196663228749255 7.741834321180319 11.439098604333557
Ru 9.76732618902551 9.984938528298342 9.656598551419876
Ru 9.699712748147032 11.208556925781123 7.721543756393294
Ru 9.379236061063505 6.740071851428639 9.41060305610001
Ru 8.140831708506415 8.624378298167438 8.95722074016609
Ru 8.287771593637935 9.858799401258382 6.79261438004881
Ru 6.342735838844694 9.535565352408934 7.781150365930653
