8
Energy = -48.9690499 eV
Ru 9.302769650214218 10.597518235603285 9.096291280382177
Ru 11.435435377714711 11.496588857258555 9.125397877667915
Ru 12.826810386789997 10.099661481716673 7.908753628208092
Ru 11.198695236576842 9.077237044343901 9.238597809515799
Ru 10.575090078794728 10.4732675703881 11.254720913001938
Ru 8.993923856360409 8.659069276407555 10.608722971254846
Ru 8.168138176445694 10.641264952830905 11.506826724233473
Ru 9.64031577349993 10.956063905696164 13.28347660942298
