8
Energy = -49.50298471 eV
Ru 9.756798346027287 7.529748531127259 7.843534304034026
Ru 11.060318213197114 9.276654990472846 7.088181224761173
Ru 6.454052965939956 6.8722035717716725 10.008324453758428
Ru 8.973784295104759 9.671025351169433 8.702749292134834
Ru 7.3208580064605835 8.115495809566807 7.823319642507123
Ru 8.673080553352127 7.491009334994568 9.927088240628214
Ru 6.683656561756154 9.15077126423723 9.932130876086072
Ru 8.840726965648138 9.339107664764265 6.2912650438062885
