8
Energy = -51.03944379 eV
Ru 9.850652869900982 8.356473845020476 8.640988569284087
Ru 8.747334811049045 6.396330508917292 9.500602098998193
Ru 9.134352086799522 10.609770269880437 8.652160363081332
Ru 6.796359977703718 7.380332887768861 10.211408434842083
Ru 7.452938005153918 6.466920684189981 7.5706817131661825
Ru 8.218093323469603 10.3352890633296 6.618128741169851
Ru 7.401419840721417 8.830194650894036 8.585181721716776
Ru 8.86781215367378 8.10822299559912 6.667241342478254
