8
Energy = -50.42550741 eV
Ru 8.328509516567783 6.711681997090536 7.497663075218107
Ru 10.283376427054886 8.128937163623396 6.9563046641362325
Ru 8.490503451325775 8.123544306511183 9.650999086975904
Ru 7.556834539747872 10.18746089236184 10.087555936067272
Ru 10.432511674289922 7.125460424868955 8.980118867666723
Ru 8.390629456185948 9.310709266946679 7.617559491277035
Ru 6.173848142682698 9.068996066469268 8.705197437288724
Ru 6.422421153627575 7.863885301792177 6.790505173013872
