8
Energy = -50.19255946 eV
Ru 9.126154454312164 10.770041412333311 10.367335159901222
Ru 8.632869115519576 8.564212679615654 10.474632913131618
Ru 9.04337131716106 6.51968340377278 9.296414050098253
Ru 9.059133943564033 9.74444903392998 8.34623818022284
Ru 6.869228196231518 7.389287095560827 9.363173929651861
Ru 9.093531609664222 9.570540163361983 6.04630859836991
Ru 7.210781558362039 8.374662713238655 7.3456473731791005
Ru 9.384860868545884 7.469477432847781 7.277197709628662
