8
Energy = -50.54917429 eV
Ru 10.415260704984755 9.177420803064983 9.946446028324562
Ru 11.319809713786924 10.927379787113 8.471245868921146
Ru 12.430766789388285 10.480159759894603 10.52614453030622
Ru 8.967100031632995 7.40630143363924 10.28235765842942
Ru 8.268580581473156 9.413846907942617 11.141780020429588
Ru 10.35154270238814 10.814477533571294 11.758771279647222
Ru 11.172867236321453 12.586980286587153 10.282842615999988
Ru 9.203282045586683 11.27855845468906 9.646967471263956
