8
Energy = -50.15754584 eV
Ru 11.126668243898989 10.66434388126635 11.176496373071727
Ru 9.250740858983113 8.227283382090233 10.06192729805912
Ru 10.825451031828042 7.7889396088483345 8.162706524482385
Ru 9.128289577279611 9.722206023300048 11.909445561059444
Ru 8.340117829932723 10.406538191207087 9.623223628837215
Ru 9.648734725602814 12.200165251798216 10.268008981300065
Ru 10.761731368526483 9.88065323313277 9.01208037060596
Ru 8.732116096462194 8.943166337906957 7.736768945496586
