8
Energy = -50.6142534 eV
Ru 5.423399153033248 7.7717747503727095 5.982094102108913
Ru 7.727709588889129 9.097515096884287 6.479477441977412
Ru 7.631433691386985 6.616256912823811 6.338199809536605
Ru 5.2847674694201965 5.516632250408663 6.068878912597307
Ru 9.59738022761409 8.090109675572727 7.207056046635963
Ru 6.286794943895326 5.329739753171292 8.059181445556698
Ru 6.482149731377874 7.756153001958868 8.11831509456237
Ru 8.552934756966286 6.808388121390777 8.733366709607724
