8
Energy = -48.79937089 eV
Ru 10.399051293107814 8.241628272458962 7.010169151795856
Ru 6.871350769420978 10.456218499824987 8.875243816873562
Ru 7.233672165844261 8.235568989704177 8.850435301446314
Ru 9.317733635206306 9.448147576451566 9.00632062644053
Ru 6.786263139829913 7.052349825873144 7.0259981769142055
Ru 8.220015373156173 10.688843207754108 10.651066720132373
Ru 8.900839158819627 6.5681611092758345 7.613356486950053
Ru 10.72760797396919 7.557582175766417 9.182682387041169
