8
Energy = -50.70092178 eV
Ru 6.488784129515809 8.0339666619576 5.617030909862836
Ru 8.764168107375502 8.406692531223618 5.633122010832298
Ru 7.770196232983381 6.196938227792771 6.664515251019156
Ru 5.316234775425248 6.575481270490403 7.188390319016041
Ru 6.005069724100658 8.714078729955654 8.038790738210707
Ru 8.384060532052654 8.196542328850233 7.86144406889647
Ru 6.936821772184539 6.5119382731053435 8.968197210249045
Ru 9.230712958454864 6.260410208717178 8.9245577240061
