9
Energy = -57.93144753 eV
Ru 10.054466363125043 6.400414042072363 9.35368682012092
Ru 11.1034261129355 8.199552532714018 10.255477342671819
Ru 8.54562897529933 8.232248637592459 10.285262545981146
Ru 8.90210077255816 7.744778265386739 7.844767262839711
Ru 7.971725878099606 8.250404627025937 5.778346650052765
Ru 9.893264088832755 9.583771051742707 8.75281085011413
Ru 6.8681131801103765 9.158024966425607 7.450067117921711
Ru 6.801004677274529 9.565544299875642 9.954042531248616
Ru 8.018060795855959 10.938532867314427 8.489545158116961
