9
Energy = -57.67757227 eV
Ru 6.965950796243379 5.992241845708273 6.045684490825901
Ru 5.50398560763576 7.549258699876364 5.056160417116952
Ru 7.53152534198122 8.523886301543694 6.062858372354107
Ru 9.238724899255581 6.315793081984496 6.284821337401082
Ru 5.645765082345422 7.439363655307265 7.456542154579096
Ru 5.510133063283618 5.108544233474093 7.744565051987408
Ru 8.980982725428795 8.0147417878579 7.922192684245794
Ru 7.602776217059768 6.130864011362166 8.545541377465348
Ru 6.922014304532065 8.827164420651494 8.783492151790306
