9
Energy = -54.75001164 eV
Ru 7.89173484000036 8.73374098916754 10.026673385364267
Ru 7.373457158954441 10.873702028936293 10.02099409487789
Ru 8.735971810469017 12.740981130355381 10.01080362833221
Ru 9.909798816020949 10.238257345648146 10.01877456097569
Ru 10.897176746359479 8.1532259437771 10.014235413297687
Ru 13.029271870324154 8.861671399340015 10.011644404247152
Ru 12.24597441658755 10.931077863727882 10.026591628047816
Ru 11.034364655372057 12.755715624771168 10.02172025576139
Ru 9.048137406186035 6.877515674276757 10.014450442611507
