9
Energy = -58.09127269 eV
Ru 10.339351795357677 8.932290433252101 6.885295831119351
Ru 8.370122476328547 10.198315852645331 7.762592220714053
Ru 10.004072357144768 9.261576096990606 9.312451455161735
Ru 9.356471394573578 7.132366139041979 8.312135557784735
Ru 9.394447253455295 9.51164334618346 11.80004212034976
Ru 8.198354428707052 8.134384385634249 6.268537178067346
Ru 7.805857827834229 10.016168619555698 10.12065377525118
Ru 7.1535822034396 8.184868854044035 8.420714342913223
Ru 8.552575067791853 7.6983674527608095 10.536218530653167
