9
Energy = -58.26389062 eV
Ru 7.4709831443521235 7.974532824351745 6.568259965408792
Ru 9.878631604279706 7.980932395830106 6.569025872684757
Ru 8.675888205661616 10.06399168097667 6.57173051437647
Ru 7.466006565508687 9.362931846980405 8.673015679429277
Ru 9.87507348843979 9.367971584864248 8.67306677762267
Ru 8.668414040453035 7.280208772236299 8.672901429855647
Ru 7.466861156782403 7.980935378409652 10.776323091664203
Ru 9.87821422587841 7.9823255243581945 10.775621437949088
Ru 8.678110881617513 10.06435349199256 10.778238450469022
