9
Energy = -57.86474811 eV
Ru 8.712466369534232 8.558400010116296 5.850434482314072
Ru 10.121839013441765 9.450728796030406 7.448331826588113
Ru 10.122342427385755 8.702546968358629 9.841408895039944
Ru 9.305560431979615 7.1907259565519235 8.11171803052657
Ru 8.282007575405384 10.244173187055322 8.897293890425797
Ru 9.38051165788607 6.436569721919849 10.407615128206176
Ru 7.163513903392719 8.42148797429357 7.508084459143031
Ru 7.76398806849438 8.053755628821044 9.853796425120331
Ru 5.969466338517234 9.75546665394183 8.9036897391527
