27
Energy = -55.19198397 eV
Ag 8.737635082561402 9.659458851848722 8.553790427124214
Ag 6.923205862818976 10.674283087317134 10.602125344902895
Ag 9.303270819201439 13.63521528680443 12.521989954912573
Ag 9.021539429116777 6.7039727730471865 9.671099308237268
Ag 10.487656423769424 14.215753550724843 9.992243927380413
Ag 13.357034822809013 9.293095096784882 7.287321922007745
Ag 11.98330776497853 10.81688311450668 9.292713776653049
Ag 6.662668617398644 7.980140473873761 10.52210531502754
Ag 7.032458746874946 12.049545946331323 13.018046016271855
Ag 9.683086772961058 10.963996344403249 13.25758785000072
Ag 10.07999685698315 8.22352688042722 13.769395207144594
Ag 13.090621472020768 13.366979918404526 9.433026302053575
Ag 7.533069206503507 13.482825408098341 10.392895323653411
Ag 12.652851969827447 12.102854915601114 6.8236819537905635
Ag 10.05204617593756 12.369542823028223 7.861220256407517
Ag 14.200553073838513 11.282795494608836 11.21698031202077
Ag 7.329624400891432 9.265743182318975 13.11820808033606
Ag 12.05109004716826 9.740556491892708 12.259364340836596
Ag 8.207450777248223 6.673669341479057 12.42762838759419
Ag 9.54404666232859 11.632698242275955 10.478325894595368
Ag 11.818851324283985 12.523488692049462 11.891969304797215
Ag 10.713665958213667 10.004710007089935 6.610176803912798
Ag 9.381339149610712 8.966360614179463 11.17434535833981
Ag 11.490045848311828 7.157074749884814 11.29974143844019
Ag 14.781864038635169 11.323888799669941 8.506731037322275
Ag 13.575011558210763 8.701259393136207 10.105902570138229
Ag 11.165858841668301 8.140709116603308 8.679682199427688
