55
Energy = -121.38033773 eV
Ag 13.994599823419723 14.330770606947166 13.901204758005097
Ag 9.33818785100162 10.012868208076162 12.807978803983392
Ag 13.748407689070094 9.856852945625054 16.421136623823358
Ag 9.220122465020175 14.372870741858419 15.2332447034509
Ag 14.134111516362442 12.881398395710608 11.413523242091534
Ag 13.837483751349058 12.87194721867196 16.379981236847808
Ag 13.977362795363199 17.217873307605117 13.876352851678458
Ag 14.157267300950657 15.87970257224023 11.36271936461497
Ag 16.191653733134913 17.069283712742646 15.645541029650873
Ag 13.97033789089314 11.415804676838553 13.884887455499417
Ag 14.131669282180361 9.877781900835187 11.356344787623835
Ag 11.438337599346074 14.382311263597416 17.080761478777617
Ag 9.204695907679616 11.389325372927306 15.230354098532958
Ag 16.498033832182905 14.366699043614062 10.725119007315389
Ag 9.128133303159094 12.882809587023795 17.583929104223433
Ag 13.94848866725197 8.527851961791859 13.866929226554461
Ag 16.482243346551073 11.37750132361402 10.721256141496681
Ag 16.30168005868063 11.438429088063032 15.665836970990705
Ag 11.587700689370463 12.878672643991797 14.562513007197458
Ag 9.395742952086033 14.326728671695532 10.33541609195353
Ag 16.159584250117135 8.657742417253148 15.637609630682737
Ag 11.5883748039782 15.881270187225141 14.630722930323412
Ag 9.376226447374286 11.445192978613827 10.321369354742085
Ag 13.79657029377724 15.883462707360088 16.428075052491955
Ag 11.56224485284229 9.878136657869781 14.618135697644476
Ag 11.866707597943867 12.884924189488611 9.633357335928249
Ag 16.355805138489476 14.284159836653096 15.675640753061499
Ag 16.44766329753238 12.862703011643486 13.178686604644358
Ag 16.510279933106194 12.871546254887233 8.339340748685338
Ag 9.588884350919548 12.89368844709051 7.842372757689795
Ag 16.39051861129917 15.73294533525633 13.17089609084422
Ag 11.915016410560481 15.902608872393856 9.582377301195399
Ag 9.607697595197504 15.705437852408838 7.89775075454092
Ag 16.36620719281826 9.998320170434262 13.162677763151446
Ag 9.556876875632685 17.151039547253475 10.366100253141267
Ag 9.582342934663979 10.06968197817231 7.869565083467415
Ag 11.760436979496989 14.350050433896222 12.110358796621034
Ag 11.891071984686942 9.862072834506478 9.569935412457912
Ag 11.986730770158037 14.376445881067609 7.186436067209578
Ag 11.771557991280043 17.249125747787463 12.125866490371545
Ag 9.52989866876932 8.628249109430742 10.349838040753063
Ag 11.959327109715355 11.389294160221993 7.180409177613891
Ag 11.737611134188004 11.42163706629758 12.094329921277323
Ag 14.260515712948227 14.465654071509128 8.910428255588627
Ag 14.311412366554956 12.873003087138477 6.597498583313619
Ag 11.73966563436172 8.51877386894777 12.115274405051151
Ag 14.242747986784359 11.289136833003614 8.907363341716085
Ag 16.10807040415774 12.858419741555457 18.174697341429205
Ag 9.281906281057259 12.88693145027153 12.795848346853308
Ag 11.420735469062134 11.37310985340254 17.074464966900056
Ag 16.091641736035477 15.674709425653228 18.129950445946587
Ag 9.356625875634814 15.759768684774732 12.816702953091887
Ag 13.70539773548396 14.348586158012123 18.786934604201416
Ag 16.03864075851926 10.048091999647308 18.11361936141026
Ag 13.684933769264 11.402785314866968 18.786524801110918
