48
Energy = -104.66777723 eV
Ag 11.283589478444418 11.158345942818187 7.434651084786046
Ag 9.065773746387963 7.0696483450854615 10.889276794484866
Ag 8.755196529603023 12.426760551453318 8.061204147798822
Ag 9.774551378649983 9.015905138907607 8.810067672133009
Ag 8.011384333490064 9.673900618969498 10.907758465724944
Ag 7.440549275324455 12.362032450076658 10.620395656712756
Ag 14.1768270458286 10.034668130272168 7.275233491648796
Ag 11.951922504805209 8.23170765950644 7.189538672151637
Ag 11.598597385579785 6.945484397427868 9.68219223331656
Ag 8.806498860517031 8.583154386228882 13.369704123434355
Ag 11.178691158021797 13.879110465005251 8.291521538216202
Ag 7.70168951072415 14.20343258698204 12.728942618688707
Ag 9.12681561456387 14.46268445838412 10.147952378720857
Ag 10.1844808117681 11.559657294390474 10.171039072625655
Ag 10.80218184027678 9.230765018046291 11.585699339627746
Ag 11.250444969030783 6.7433116189399565 12.666601621245007
Ag 9.109402423059857 16.090935905003956 14.604179507878968
Ag 12.51246341556865 9.790636565656158 9.496009085892286
Ag 13.639449416787464 12.315410893913086 8.74242709507252
Ag 7.909162766131239 11.359487191578467 13.229325972875353
Ag 13.50827378112404 7.999533516101238 11.475801533986644
Ag 14.253067917839424 7.696144232772877 8.817859179176375
Ag 11.355037080109332 16.175736886376033 10.446935346112676
Ag 9.2590834908469 13.247075514319043 14.990430052579477
Ag 9.004243072956054 16.741528291389056 11.896090507073454
Ag 10.455243467240273 14.524090440585756 12.735755957838883
Ag 12.160885343709447 13.440900040663635 10.873306644525524
Ag 9.669306453567177 10.421058335414779 15.233404614732365
Ag 13.309014096775549 11.040209542902058 11.992540435382535
Ag 13.636915265500557 15.125489617050881 9.126791860645083
Ag 12.18041628651931 9.373591693210921 14.111425764098826
Ag 10.80383765408393 11.726087167286472 13.004750918324776
Ag 13.67249339053063 6.952937553964608 14.02413307144468
Ag 11.575767741470337 17.025275968687403 13.330705455201285
Ag 15.197418313133984 9.190616672945282 13.219189792720474
Ag 15.238277264535084 10.3202341908497 10.165229161772672
Ag 13.029627442616611 13.550386219645356 13.512234971159884
Ag 13.754415403191196 15.826800904679295 11.916672531382051
Ag 11.543143822694024 15.041531497241005 15.527780441447096
Ag 11.808699271348285 12.177584858062502 15.715177344817414
Ag 14.980450153797339 13.360591215045872 10.947974527141936
Ag 16.2329654775784 11.691465490155188 12.722588692411785
Ag 14.274448772300897 11.289316268846006 14.767421373992004
Ag 13.931062552641075 16.30527019033434 14.705899540133068
Ag 14.08063709465882 13.83383121075551 16.090732861851183
Ag 15.741791552092614 14.460800437588516 13.431718694936151
Ag 16.639305892944854 12.694152377987253 15.344656966827966
Ag 16.322856570611606 15.473080439908745 15.971572358545993
