40
Energy = -85.39503713 eV
Ag 13.151891846013328 8.362799423555524 17.050382156253015
Ag 14.193727126634261 9.440006260133398 14.623836284771684
Ag 12.97273475488362 11.053407493628566 16.46699360374919
Ag 11.63986389555596 8.18148227451974 14.602682524266799
Ag 15.669626600656512 9.807683087511734 12.315683914136553
Ag 10.622947354591128 9.58741471784924 16.761270407654628
Ag 17.0459648154864 10.224384824283407 9.821985567018842
Ag 14.445233273779047 12.235615376455362 13.571102582159487
Ag 13.165680789121447 8.407816158867211 12.236432477273663
Ag 12.941671408584986 13.580766556177489 15.529164795098051
Ag 16.570603415632263 12.321504882763767 11.664622345548937
Ag 11.881388299497862 10.913876916139296 13.628284381931019
Ag 14.707366736790826 8.773407633857294 9.845390042809987
Ag 13.668752347951697 15.186938764677842 13.411383960810493
Ag 10.425509363332505 12.253170660526465 15.842391823794731
Ag 12.602246461900588 16.35158436590815 15.698300448002174
Ag 10.356909180911128 8.761823582087146 12.153821456216614
Ag 13.441447437359097 11.07907601974348 11.065418266410331
Ag 9.269328547232709 10.033257745990069 14.393222534881067
Ag 15.325206609120931 12.234499354099793 9.08915202235875
Ag 12.630314790531306 13.115941079263207 9.202207726403335
Ag 10.609800207862277 14.770354705396013 14.603378040622223
Ag 11.92026543478075 13.33559315486832 12.165049650914876
Ag 14.484394995093318 13.994510817203148 11.104123039577669
Ag 11.54106971397767 16.986136248365725 13.115957759180253
Ag 8.032716837068405 10.614773485851805 11.841601799363282
Ag 13.453936163399778 10.56252474805706 8.021247107253235
Ag 9.34232859013661 12.655914118886948 13.274300914983717
Ag 10.548983138276922 11.345345495139862 10.852951956503652
Ag 12.158555040652985 15.638678274716174 10.655433453565065
Ag 11.899259828839767 8.919650117473363 9.753954086658071
Ag 9.113042800437606 9.216004380232468 9.633637236302933
Ag 9.665897926434093 15.233228629787941 11.991576613747407
Ag 12.197678889976673 12.645616484594761 6.513835319185239
Ag 8.153216761778259 11.698359773406636 8.90911358531028
Ag 10.057135667031893 13.971333565911952 9.524697441793203
Ag 10.686660415441219 10.912794806473968 8.02221156392479
Ag 7.771131051852579 13.386585369803106 11.093117485626834
Ag 9.515227487362678 13.239176840395679 6.875696887428907
Ag 7.53153254536342 14.39192840528366 8.443867480019305
