50
Energy = -110.72805475 eV
Ag 15.785835958825011 7.78549707378604 10.519815544056197
Ag 13.132855415534618 6.91302867245139 11.357364230303434
Ag 14.883097061167623 8.360507968351401 13.191655750011776
Ag 16.482896135307556 10.338367130117044 11.700143260413217
Ag 13.571320439380024 7.90242823919411 8.709401974421203
Ag 15.49731165369611 10.97316644240686 14.303028205712593
Ag 15.747663847647969 10.170762163719141 8.942570562567086
Ag 12.223887201897837 7.556450077958888 13.993559346727611
Ag 13.787377743246013 9.686778874286595 10.816514624872966
Ag 10.401228778978753 6.221712999234375 12.200025024082999
Ag 12.904050662751386 10.249640786004209 13.546505311790218
Ag 16.9025321230929 12.986653779619314 12.805290119462867
Ag 16.23494812237528 12.787601383740753 9.980221466587333
Ag 14.356080325510822 12.288849197705323 11.98576822383376
Ag 11.524775135821493 9.912280995426988 8.94816396485218
Ag 9.261827918175666 8.235268882954163 13.891258584553617
Ag 10.909438469563119 7.182742093201466 9.461272842428265
Ag 11.100542925693286 9.700935282954497 15.610116541179895
Ag 11.073669529032614 8.864816573646742 11.727403524602305
Ag 14.682016205581789 13.914243082855949 14.365227003737566
Ag 13.56460209125287 12.091524978544554 9.054099817908467
Ag 13.16936412217767 11.78700697466473 15.865770011783518
Ag 11.774403977644178 11.538670927847907 11.236281998010133
Ag 15.14920045935794 15.022996445632712 11.746145455813386
Ag 8.378978354176843 8.020576293233036 11.195890636870725
Ag 10.008015898854996 10.973980868623414 13.358722909987092
Ag 14.519590738139629 14.852779164719148 9.036258561275387
Ag 12.330270912418904 14.563928045090583 15.862995724801523
Ag 12.035775529593268 13.076845940093026 13.565544251258634
Ag 10.268081504992882 12.538713608149145 15.823800838258167
Ag 10.665403188436011 12.754234655988192 8.970204972701216
Ag 8.336315333426121 10.409858195673934 15.495266106637022
Ag 8.853472674552426 8.862239666152396 8.55702376384084
Ag 12.749021713736116 15.772105952693373 13.301903138665175
Ag 12.439362862957582 14.216637979468691 7.336273757092792
Ag 9.177936022993402 10.793363904512649 10.548750553207126
Ag 7.363448129501577 10.190619908140514 12.776086602417141
Ag 12.440335665415844 14.220987419890422 10.834956564308861
Ag 6.622869674631564 10.05815431957408 9.96503430941187
Ag 13.12903552350478 16.85367090134139 10.666931160683514
Ag 9.972890477828921 14.9669423673712 14.264526581802901
Ag 7.944681552758838 12.837380990538264 14.024234284351698
Ag 9.75630388689219 13.391941320320555 11.818140061237555
Ag 9.426606842139993 14.332666500936073 7.139059389964379
Ag 7.849674634448149 12.305293579539748 8.518401151055158
Ag 10.996568831583124 15.869132096102309 8.97121822802608
Ag 7.058814938667176 12.654752224171004 11.235283172647794
Ag 10.400881925649172 16.129515874347977 11.666343439109829
Ag 7.7434979254236405 15.206829450929677 12.460927519919645
Ag 8.482491176182005 14.77955401487109 9.746657331735687
