10
Energy = -17.71017422 eV
Ag 10.119924741347551 10.59316745237576 6.427353137813547
Ag 8.033846722024112 10.298801160506189 8.083007598819473
Ag 10.618876284164758 10.840736141833702 9.137446700728763
Ag 6.312789109905869 9.905172366067822 10.107802046250995
Ag 10.2564832758736 8.278836900716893 8.089713533226814
Ag 10.91528142650726 10.598489032032955 11.855227929407208
Ag 8.851209832369621 8.801372870936255 10.381079413955808
Ag 11.54549079558804 8.234877690565572 10.553679632322925
Ag 8.543751280758075 11.556833326550228 10.775141946587675
Ag 12.945406424200346 9.034772951153585 12.73260795362617
