32
Energy = -66.84690537 eV
Ag 7.944910577559889 7.85789573835047 15.211733080835973
Ag 11.655572363705295 8.865364060213938 9.1178061967537
Ag 12.278998512443822 11.137651419318946 7.499026191471142
Ag 10.923792641887097 7.383616112080008 11.385340367948073
Ag 9.671269132833757 10.13042253681034 7.464258719035522
Ag 10.621313529782647 15.359224542876449 8.50616546532096
Ag 8.343128233996048 8.140882533308867 12.452098522025114
Ag 10.448772595854798 11.733560241314844 9.81584494032897
Ag 10.806590794364526 10.116428391076045 12.042226813784259
Ag 13.565546644950462 8.480205099676114 11.269357101746552
Ag 12.583469574766736 13.845428642565867 7.153473684601049
Ag 13.87449680676778 10.801892759401031 13.128048163856397
Ag 9.303982772070363 12.765821582035585 13.255138729278642
Ag 7.926375920775731 10.843314255565266 11.738197577780127
Ag 13.025776901171241 11.062949615031751 10.425852054175255
Ag 14.63313307104101 12.404681677499381 8.633216649847288
Ag 14.412683527394798 9.569340872421309 8.481334317508392
Ag 8.0011762833566 14.480721328244535 8.817684533865695
Ag 11.483518567522763 11.159211148470684 14.608567128316007
Ag 7.26741871442122 13.496735466611252 11.320832623080054
Ag 12.399607374420269 8.52826315865541 13.81948254575282
Ag 9.853251421484913 12.920390162103141 7.311501798109388
Ag 7.827630363834568 11.696783589102052 9.06390953907574
Ag 11.94724142131231 12.808178901132175 12.375558077800823
Ag 14.762620471052532 13.023743113330037 11.448892432790815
Ag 9.930694840240346 14.319201612496883 11.002432412301097
Ag 10.54083731735229 8.850073856120062 15.927137088057618
Ag 10.224438470162088 6.8111392472926 13.983560477294386
Ag 12.549066441263193 13.940285951136188 9.901462170241517
Ag 8.969209708795384 9.040122329062646 9.905944356441214
Ag 15.677485069976408 10.361273521833859 10.82272158743993
Ag 8.803415974186665 10.322622575610009 14.368620693882468
