25
Energy = -51.15431445 eV
Ag 10.564931467948368 11.777852635845164 8.501664405518923
Ag 8.952672673438784 9.61509369051209 8.086921039955122
Ag 13.324953158476694 11.792934211474003 9.26477559280427
Ag 8.347397754324648 11.26094780586176 10.332355094899782
Ag 11.740222656573621 9.324842550648755 8.948977523923219
Ag 11.572020207620014 13.875924379181168 10.034353748792853
Ag 9.791526357264368 15.917190721811103 10.823763143421296
Ag 14.278342506540712 9.327269785028612 10.02762289406811
Ag 9.58152866490466 8.787968300708176 10.625443223151573
Ag 8.821480056063198 13.801329825879469 9.252691831448256
Ag 15.794936138551318 11.62867324897738 10.769762043339105
Ag 11.452650392989932 11.20220418960454 11.300168156065176
Ag 12.157571059620185 8.473242936516495 11.714037546661647
Ag 14.056167328713503 10.398553352571845 12.611451584661319
Ag 13.653723216507347 13.192585610876366 11.7849606386638
Ag 11.742451611937957 15.09773621326757 12.61525917946035
Ag 9.507618208028015 13.361647528450964 11.957264731284749
Ag 9.6745696920643 8.17599786952136 13.30830876281491
Ag 9.249223729575965 10.873156012739411 13.088480924735194
Ag 7.233487282825689 9.252519497866954 11.971017617018285
Ag 11.727971350439299 9.845118949231905 14.132246157940548
Ag 11.43988166931706 12.587983575386708 13.862451448132576
Ag 13.725101653241685 11.556605993712644 15.121177385573432
Ag 13.74961746035178 14.246077141449353 14.396767897293628
Ag 15.803448627146341 12.570038897340789 13.411572352837897
