35
Energy = -73.39995892 eV
Ag 12.750999164997083 16.490678646182428 11.301958743347745
Ag 14.91006277940373 10.277411500545707 10.44522067279644
Ag 10.98037297489241 7.46136139754129 9.882555007418349
Ag 10.669084742602118 14.656298829388355 12.09923648803961
Ag 12.448697542303101 11.869254085152816 11.551209798817895
Ag 12.271849708456404 9.900285056917442 9.535601234858284
Ag 9.04281094898047 14.36538426387533 9.727045601797082
Ag 11.825410134566656 6.972100982529047 12.485113729814376
Ag 9.467846389824876 9.788821527232832 9.544258539441547
Ag 16.253715646220748 12.585250891784144 9.289752141988068
Ag 8.483811401136988 13.523013980484777 13.709132905003816
Ag 16.12120364584189 10.268484933979314 13.292488049517916
Ag 10.099911909446684 16.841780768225263 10.50045732606763
Ag 17.580277782511573 10.843216707736088 10.987161955681225
Ag 11.7389688537944 10.153738521721008 14.95790748932905
Ag 7.860940695034408 11.95199184159571 9.052387945139278
Ag 10.700156155054586 12.219827356704062 8.848396538341763
Ag 5.980511122828976 14.754204072452982 13.50777632119041
Ag 10.756374873609708 9.53691451742708 12.078671317254813
Ag 6.9373676710322405 13.316688165300668 11.325923753105245
Ag 9.950682494787383 8.073329891867978 14.43712502460091
Ag 9.08443201584317 10.742223830251124 14.079567024442309
Ag 13.485751557616727 12.356690167068807 8.921153978401527
Ag 8.05777913135336 15.790679519719212 12.031556950521374
Ag 13.693672454549345 7.7441647633153545 10.500056897265244
Ag 15.475241503892011 12.599066763896476 11.964708531659088
Ag 14.525004095130486 9.510014219373659 15.489592988549381
Ag 11.132864729785618 12.649945761331844 13.954367878776022
Ag 9.50443157043812 12.004561675253532 11.482589902586295
Ag 13.527597277331854 9.282100003320533 12.826449889033698
Ag 11.821930150393387 14.694415232053217 9.356671192899963
Ag 13.33240188846277 14.257878221141278 12.866792449434364
Ag 12.641050080871537 7.533768429898803 15.045069322629244
Ag 14.487832696193413 14.589230259637677 10.232902939489382
Ag 13.828696697096296 11.824965701378959 14.118881957044868
