30
Energy = -62.22250011 eV
Ag 12.222560119284053 9.083120381546813 15.12834934410344
Ag 10.375060080860806 8.028900236861015 13.306694874322382
Ag 12.980998553388599 8.760728120399829 12.448380947908715
Ag 12.161777921762546 6.503253735605479 8.29563565245924
Ag 11.214522399652934 7.199249377645268 10.815413918531823
Ag 13.544974317311173 8.458670654231488 9.715840021726747
Ag 11.11660288363091 10.899663216727179 13.1486104468356
Ag 10.199361573155286 10.959123520873835 15.8325694652426
Ag 13.92812288471907 11.00617286831952 13.955971888026992
Ag 13.031453978090795 8.802390954877366 6.965842032349075
Ag 8.44996468544451 10.101696440364481 13.69934774215492
Ag 14.54140672231668 10.752033529941713 11.173885791086285
Ag 10.674542509409369 8.870422311092597 8.579987420066328
Ag 14.59489527132943 10.64412427403926 8.355135811481144
Ag 9.357329488913223 9.370486274343493 11.073360729810318
Ag 11.84236952550918 10.76186586298261 10.43494872046166
Ag 11.912886904227946 11.33517289338158 7.609078484061837
Ag 11.942388903947114 13.02007376198701 14.875749003568684
Ag 9.18052789464391 12.829152539719717 14.034548335799814
Ag 7.907713052421524 11.80991152318562 11.562696296375174
Ag 13.014836161997666 12.982461955891543 12.26158144825424
Ag 8.198272528240471 13.805000654690453 9.524133147958949
Ag 10.3758358774788 13.064311792110608 11.241359211567538
Ag 9.396177373614067 11.328900460656445 9.059219356057318
Ag 13.475859159302882 12.926838713071158 9.450338566061516
Ag 10.92022396791892 14.984241911436209 13.122573703554849
Ag 8.056981167065219 14.59554453782311 12.282271746148187
Ag 9.806157668570437 15.871599371672495 10.522536275301164
Ag 12.440692838888145 15.211580695323645 10.674591421016164
Ag 10.899190228464658 13.835006806244941 8.59046177182171
