42
Energy = -90.26278075 eV
Ag 8.445326986746965 7.967382124975255 10.46051977169989
Ag 7.337385193983373 9.500023483720197 12.493057025488632
Ag 6.438413676357295 11.759067784617466 13.827357762166372
Ag 8.10362998717262 10.877231889888744 10.214326029394423
Ag 9.45361370678523 12.221204442969105 8.129222473769769
Ag 10.190103690104635 9.29829048846627 12.271418933303332
Ag 8.776798023320408 10.128108863430281 14.78958775620617
Ag 11.25900139454415 7.49820927720593 10.358898917482456
Ag 7.586744057440289 14.284314116466701 13.05483467684269
Ag 10.03292108639235 9.446833958198717 8.72833046807991
Ag 12.488025437107039 8.37520758693064 7.899617235036041
Ag 11.44783258512627 9.301591451252103 14.85418975349677
Ag 10.833956313859877 11.573828266009688 10.521275229652167
Ag 8.978247342209155 13.773954726128855 10.487012391351602
Ag 12.738437672324668 8.039607720170446 12.683618055119782
Ag 8.368113266265995 12.8015452326398 15.528854691527693
Ag 12.116218965084226 11.196268003087392 8.013272825744542
Ag 9.021407439301656 11.951418268575024 12.692572492622054
Ag 11.001392938755949 12.304412265807848 14.701093788470592
Ag 11.539728994419962 13.947472237110212 8.95957521283181
Ag 13.136863593611862 9.624773166705214 10.303710988874547
Ag 11.390660719572558 13.76190625471155 12.214669546958982
Ag 13.463190303434075 12.576752307713983 10.517759095721614
Ag 14.702633174901038 10.030656085706237 7.708428871052335
Ag 9.554907768647336 16.064077371172598 12.069524936189259
Ag 12.526609161360406 11.039813474241702 12.72877303838037
Ag 11.940509147004487 16.177073876158783 10.669391827802743
Ag 10.434446130588459 10.949748258656525 16.979574392252974
Ag 14.338815940511843 12.854994108991475 7.853595572325332
Ag 15.04955234749163 9.682378413355691 12.557110061257026
Ag 9.96665524223826 14.851290883733608 14.515756777506303
Ag 13.112521569134806 11.23448368253653 16.08322548151726
Ag 14.172333063624002 8.762013236640401 15.035785924859411
Ag 13.544176746317738 13.467433643454482 14.23944515144499
Ag 16.921097953770413 11.81852630703271 7.884924117991677
Ag 14.242914864392406 14.95594204266384 11.830127651973344
Ag 12.23658179955847 16.068793280964016 13.486248244430428
Ag 15.74272160570794 10.850537845106523 10.164058909126153
Ag 15.539467278725244 11.250225633050293 14.85151899313797
Ag 13.995514096002296 15.366043238627718 9.010352203491614
Ag 15.528958817751615 12.538619911145133 12.46406599174287
Ag 16.090474856086594 13.700809774337747 9.922335521648346
