19
Energy = -37.40127445 eV
Ag 13.352212313962285 7.977857025823278 10.430612241618974
Ag 13.506229748008392 12.575080496039348 11.196134007633757
Ag 13.541696273421342 12.987158581308913 8.476039144170704
Ag 12.730858719765864 10.357355438383715 9.05472823355495
Ag 11.225020986598155 12.119796164953469 7.2559946901971815
Ag 12.445045772383887 10.1714085259096 11.861374117394162
Ag 10.131845906105283 9.707233443454925 7.909559886325353
Ag 10.688123137719794 8.456229021563448 10.303160239123576
Ag 11.552181956914776 7.7941385089181585 12.869840755477332
Ag 8.732431570303252 7.449420207644486 8.62818564733803
Ag 8.68819952404721 12.057520222645406 8.538845251369946
Ag 11.047005534220691 12.529565989401485 9.956872475245964
Ag 11.111940154584746 12.456504340668243 12.723995416827728
Ag 11.425943329926685 10.252721878762932 14.484935922585588
Ag 9.536660710895285 9.73735452062187 12.520124598285305
Ag 8.201386686262714 9.721963640750513 10.063423430952398
Ag 6.333150528433 11.708908390093333 9.928763889520354
Ag 8.952216777272314 11.799738409172518 14.265078336153795
Ag 8.62585656375819 12.18581843616467 11.442951689476557
