36
Energy = -112.72068236 eV
Al 8.888171629139396 8.480487024801219 14.439091561178467
Al 10.40855328322065 10.815911171350564 14.156242207892516
Al 7.6659101849975775 10.319176351734544 12.99238714364182
Al 8.875707041591486 12.597570172750755 12.5405153080215
Al 11.476852026131743 7.94664245166132 13.974784821808106
Al 10.944951918591375 13.487973506023419 14.043335658028102
Al 9.776582171369787 6.533630362755884 12.265753982007473
Al 13.211079744550547 11.759473424542586 14.053206261108821
Al 7.731061387683118 8.044833475422742 11.538907585619604
Al 13.024749660918163 9.526293922276317 12.523733263511744
Al 6.465969229008363 12.113961666157369 11.306003990764554
Al 8.580942165328036 10.457454872737017 10.4107722616989
Al 5.658968858248785 9.590638012538523 10.766255885271818
Al 11.504185724870442 11.739423595929228 11.796116027307212
Al 12.106537782884372 7.351518810001279 11.162561292494475
Al 10.523524969496417 14.319983403396575 11.384153213052965
Al 10.240502731591882 9.24663506160564 11.940136695542826
Al 13.128784651999432 14.02612182845257 12.531264295704725
Al 12.79763804741669 13.674788920161498 9.946207381928998
Al 6.92364274999254 11.133790594582162 8.454770771843267
Al 14.1872453384653 11.649301753859467 11.406592808945549
Al 10.752504351157306 11.94787167291034 9.295120805919302
Al 13.5806082042302 11.381767102020293 8.774996756958435
Al 11.721459803096367 9.47491102233465 9.45383313770868
Al 14.29511802374881 9.066561426291994 10.165652476211523
Al 7.3188455136902615 8.460159548291347 8.846168485976218
Al 10.264802741446752 14.620971003414027 8.695608177596913
Al 9.79728749294733 7.584282001340751 9.569589656957183
Al 9.332991776090518 9.779042775406088 7.818089610339853
Al 8.36825305110008 13.200157934218405 9.900522484488963
Al 13.101497013484074 6.856513836329605 8.741357439273456
Al 11.613887513934179 10.70093911249201 6.872737099041033
Al 12.221096235720964 13.306450026014488 7.359083959878283
Al 13.809376460008448 9.081987208393684 7.3386701193020105
Al 9.202715015091176 12.45745367446923 7.115568074237297
Al 11.196723573731926 7.9737727075026825 7.129877271075925
