36
Energy = -112.35336155 eV
Al 6.48931902519739 11.001893482556907 9.783882227483462
Al 7.311726431596269 11.70749581212498 12.883157867086737
Al 6.167998263581267 9.386195044878367 12.440408567556727
Al 8.912784097854551 13.845527785740178 13.226085483741532
Al 8.397778969080822 12.914294498224448 10.678514082163518
Al 6.4898403628272625 7.975453869229497 10.201199787414613
Al 9.071046821807174 11.78279615818586 15.051457065881042
Al 8.500353865349075 9.408392354921423 13.862792151408048
Al 8.521881341029538 9.77960317493016 11.01937894764101
Al 9.077937613003586 11.378317216796408 8.596841101820052
Al 9.15328649005457 7.061331931757064 10.380611351926346
Al 10.082282552138894 11.343729265107381 12.402012035224983
Al 10.871494698769835 13.836180808746683 11.455452130471915
Al 11.403417387035002 12.913221681358658 14.156499918020257
Al 10.20457380589965 13.928296273724612 8.743543512116725
Al 8.230820654118578 8.88785490174316 8.360960172782919
Al 11.64392264937438 11.755952136980804 9.488709923986772
Al 11.16027572762474 10.041553587544415 14.56701870702349
Al 10.848096586356762 12.172199583161644 6.674035603642831
Al 13.229411774048558 14.333675230282223 12.790445815901574
Al 10.280471500718319 7.103369127648439 7.931867796022497
Al 10.474834555395308 8.469705523633849 12.350648097037084
Al 13.116734525541194 14.130573120902229 10.035358646147328
Al 12.74917784531055 11.748676155415993 11.926339815358588
Al 13.663769794889944 11.172459625633525 14.546083832616983
Al 13.025746822080757 13.307714217491295 7.510198733352046
Al 10.567340627232383 9.557824586690158 6.948387906125452
Al 10.77114924530696 9.27907594802564 9.65923892541682
Al 12.262195135287493 7.233546498332941 10.742200982510028
Al 13.044339743627036 9.017142413614474 12.808065061899923
Al 15.26045680137409 13.169800786932628 11.605474476961222
Al 12.723340522123783 8.02343021079439 8.122675268735351
Al 14.727162101330185 11.884099480909892 9.337514970629043
Al 15.168490807622234 10.512909537501567 12.263404863360321
Al 13.195507002252434 10.557481861011512 7.543620100108046
Al 13.463009030290973 9.679031939359483 10.197103978670535
