36
Energy = -113.6350231 eV
Al 8.502720109780775 12.446818022683448 14.781064466495684
Al 10.187590681255239 13.6419790014063 16.436126778860352
Al 8.532710174820796 10.105077556029775 13.628900912935928
Al 7.880494631983183 12.888809173735458 12.287951245075064
Al 10.699880718589142 11.008871091365302 15.205194428437112
Al 9.938113186532487 14.347803749387223 13.56329797595053
Al 8.19530070744646 10.508362427074367 11.040727934974756
Al 8.878088335908627 7.930647842001034 12.089640942137041
Al 7.731958088452903 13.067234311757469 9.631845172599977
Al 11.118204871163321 8.954921515648275 13.584994997240665
Al 9.885228990522066 14.409039501043022 10.950682588287833
Al 10.375977765953326 11.744764935292244 12.427101774092243
Al 12.260165144930022 13.313153208575155 14.797248003623936
Al 9.942476320073782 6.214508194208979 10.131234690044872
Al 8.347093994655015 8.423764993092366 9.448978337594877
Al 13.42211700734176 8.882695822802571 12.041767410260055
Al 7.561776919198117 10.773568564412882 8.41090029907306
Al 10.751528339290228 9.285087000542322 10.69069480302269
Al 11.622913015959037 6.835858472598894 12.112865262976644
Al 12.223702029254804 13.771157052360994 12.123114272444885
Al 12.811888818744478 11.070628171533588 13.401664859927164
Al 12.632571705890426 11.461745895181151 10.752511904348129
Al 14.578899145248336 13.224457901857335 13.473506528613225
Al 10.124738841600315 11.751944331414858 9.51418731808482
Al 9.76784141264993 14.302887306305665 8.272455325828082
Al 10.616974784381856 7.890807095463544 8.065136346714999
Al 12.746188140244366 7.647258615654593 9.675606702292157
Al 12.189815075351584 14.11073637118476 9.464873421315382
Al 12.143726758266332 10.090486473850639 8.44935994046448
Al 15.136867748270957 11.003352378081546 12.009674815213716
Al 14.515332203337634 13.639652187983707 10.706672820384238
Al 14.537743291060142 9.738176303275143 9.610207087339651
Al 9.791713116694849 10.2274543466647 7.147115905517539
Al 11.433933327618872 12.473456463972433 7.20706353230387
Al 13.884960740646001 12.185512816330148 8.387741372588973
Al 16.272292287371346 11.870849335716942 9.721418253424021
