36
Energy = -111.70185314 eV
Al 11.962910174914068 13.40661896361083 8.685327498241701
Al 8.398752830678516 10.310892718404872 7.8925208799576225
Al 6.925690082692892 10.096397843145962 12.789793086650361
Al 12.29632990753838 14.297745026526139 11.167518462411163
Al 12.205861954338276 9.583095396032855 12.858502051837357
Al 10.080764014303913 12.344365070554876 10.793401739892278
Al 12.072946852278811 15.02369093755164 13.78297044873707
Al 10.894245574121646 11.011858654579889 8.412797467617175
Al 9.652281568995093 10.18256148125818 12.698368966169369
Al 14.53521825380742 13.694719152744568 15.247994670659974
Al 13.618226331741786 11.692728686566085 7.6505583509095585
Al 8.164498467386837 10.416716667025007 10.483687614200695
Al 14.647937348684543 8.388194910064568 13.462951031779635
Al 11.912396371895627 13.06982584908301 15.795524586014905
Al 11.151153121209537 16.71156827059528 11.733867395008712
Al 8.054659943561768 12.488298452068872 12.60387591754308
Al 8.992764744579732 12.939727094374962 8.419721477402001
Al 10.247900814109535 8.335545744247407 7.942333901815379
Al 9.657510170944464 14.5636713715894 12.523975150599258
Al 14.194971266713091 13.268856103903975 12.54043620436299
Al 12.604375993430097 11.214331640231691 10.508346029609353
Al 10.821591946404947 9.041497382069291 10.517028948654813
Al 16.199677950525874 8.545941300980333 11.184394121097275
Al 16.134164444678298 11.971365399017191 13.939951674743767
Al 14.822142003716317 10.734919996668847 11.991991968025548
Al 10.921901834958673 10.627392772645589 15.093123104697934
Al 13.47881482520519 8.39578292026413 10.876257056363109
Al 12.781202118675681 9.039816295748652 8.377312259568996
Al 11.45098739212521 12.37306670863064 13.064825298746303
Al 9.469206520780105 13.240408000996432 14.886563587622128
Al 15.062505220284676 10.241282090906386 9.377599344278716
Al 8.211014360229616 10.851182032361146 14.91963743825011
Al 12.955384635281385 15.50410627467657 16.34128576590728
Al 14.575500434452543 12.979740413030502 9.865744634214801
Al 10.062788324051752 15.047532378324462 9.844962209836572
Al 13.554774268350034 11.137608067166424 14.497901724219508
