36
Energy = -114.13226036 eV
Al 11.022021154851888 8.240959934843055 14.289812100414755
Al 13.323104427152067 8.492956908851447 12.764834792235732
Al 12.522747569206519 10.66482416095984 14.320596761679964
Al 14.368185398645648 8.830265158532828 10.205370384015309
Al 11.9888288482545 6.119835973425028 12.895983237607526
Al 13.770120005882843 10.959011400160431 11.952687822270855
Al 13.640630058308812 13.080207011953219 13.869682660323027
Al 11.961270728096268 7.544855456368406 10.559739885447566
Al 15.011365327487889 9.60725071680826 7.630443701285813
Al 9.806864866234772 10.431725781272613 15.132754820570044
Al 14.736865738703013 11.560530609037771 9.461054147191044
Al 14.455554336631527 13.53190421343467 11.316646581062168
Al 12.462876029150705 8.477068897061258 8.047732752024709
Al 10.846679366177503 12.883449591919568 14.83310791951028
Al 10.832900099384693 10.025696330386534 12.24071867640413
Al 12.081396511521174 10.377969801049044 9.889346323372212
Al 9.63479568579677 7.3566596733486165 12.00928583545265
Al 12.020083923687912 15.211238611117238 14.103100954869136
Al 8.31161641253862 9.419427713166499 13.099067128253312
Al 12.814986380536556 11.271753976903062 7.365563706308096
Al 12.441059020670316 13.053762291097739 9.524880355725507
Al 12.297419475570026 15.177010785598256 11.430817807591108
Al 9.723541709185511 14.639944592320939 12.783462809665558
Al 11.57602293264971 12.666810851810624 12.158543466209878
Al 9.75484139019855 8.893200356155827 9.890787269185742
Al 9.771899280435695 11.677783594618699 10.335146828189291
Al 9.003849468278549 12.017348648539112 13.016839143831355
Al 7.243884579000772 8.339849445146038 10.805709875332704
Al 10.322727263067454 10.105033592424041 7.585489249547534
Al 10.550817038204482 12.846699847368223 7.705104821826941
Al 10.15372295069985 14.386498026951443 10.004182303048736
Al 7.82022726166882 10.223055389811663 8.726204765213659
Al 7.255280215222401 11.054731435309472 11.211852333671496
Al 7.689872446299433 13.73512810932584 11.29202194434511
Al 8.425630427989226 11.708452724855226 6.432302526433528
Al 8.008815368243846 13.039602083700542 8.761628005518165
