28
Energy = -57.96903774 eV
Ag 7.894960796470345 12.301766301415212 14.356124720498244
Ag 9.954488556096118 10.423126446255086 14.63049523861337
Ag 11.957745608780769 8.444184876608869 14.836665714142505
Ag 10.406907254963393 8.5172192700454 12.53892370583164
Ag 8.251637610079666 10.404532818166073 12.340401896420216
Ag 6.259575233162112 12.340016168790564 12.003338977644905
Ag 8.776234316142336 8.499931302875298 10.250164051098846
Ag 6.697462180107739 10.477813323568105 9.96539717446171
Ag 7.260795341009491 8.64258253345379 7.927934607595922
Ag 8.132904808651018 14.44563926092245 12.44016481380912
Ag 13.22955254820771 7.99939274968973 12.36269547491355
Ag 10.207046621925564 12.58383684559401 12.787808426325954
Ag 12.303676253329657 10.637436587992118 13.024512883331079
Ag 11.615423207398285 7.988982168511986 10.000390142445452
Ag 14.383115010242987 7.580295251355927 9.846564588955129
Ag 10.438059015287708 14.672183545152413 10.863527213014958
Ag 8.499518871665927 12.633649722003826 10.358882269909687
Ag 9.021946327185473 10.733776289783844 8.26776739614981
Ag 10.002323739168988 8.07115268017018 7.660537674163854
Ag 10.661735109972456 10.666507324437879 10.667779641677594
Ag 13.530605240179582 10.174406831979178 10.473608635960511
Ag 12.761916415309248 7.618249495642989 7.475107703801766
Ag 11.854753774594819 10.196198067844653 8.039066445770091
Ag 12.54825869622009 12.793204021344678 11.122382717496533
Ag 12.659080176570619 14.85301280537773 9.116827269535376
Ag 14.620233974857188 9.732677948328174 7.934983155792811
Ag 10.871319756894664 12.793181686102704 8.745886689602116
Ag 13.698970364425643 12.313627901413088 8.53320596136312
