10
Energy = -8.74945336 eV
Sr 15.859104542600626 12.697318385364012 15.423336796681019
Sr 12.343871242546276 10.28480981062625 15.845373654850263
Sr 12.51954231294717 13.307954819025078 13.134722579785135
Sr 16.105149485850735 13.847600962918214 11.300472434825899
Sr 9.226332717608896 13.827728219040013 10.819868293392616
Sr 8.902791257801296 12.672601664601215 14.93396552704777
Sr 12.712202405134446 16.287711497089923 10.348433134349053
Sr 10.547899113499957 10.030402609838966 12.055117553977018
Sr 12.787295866374143 12.17030732649075 9.3397616131994
Sr 14.647037887857243 10.040832312770162 12.337437282966837
