15
Energy = -14.32184074 eV
Sr 16.15090916586154 15.459975687569408 10.51263465367107
Sr 17.475128796452758 13.512771428176851 13.727495293676663
Sr 15.32950962232483 11.10025872723495 10.703327135827974
Sr 15.168303869330773 16.96575639014824 14.289570479150422
Sr 12.884112124283181 14.19328356670007 8.631979713817657
Sr 12.498686362759019 17.34119720033266 11.355865641880518
Sr 15.548511752345162 10.298427700728904 15.067688083188191
Sr 9.494508933213714 14.744745332649101 11.011418450588405
Sr 14.800709065472825 13.98503578081254 16.90354391432645
Sr 13.186856592447153 13.303591715248471 12.900966405172877
Sr 10.968445265254424 10.95874389692011 9.946644363182608
Sr 12.284433711422583 9.025753361491478 13.167415928770598
Sr 11.039675813621885 15.507886746158974 15.107938763232807
Sr 11.797887832166825 11.389319885885849 16.58790270385303
Sr 9.159149279636079 11.76351892567183 13.630158683259493
