11
Energy = -9.39213804 eV
Sr 15.490563947310285 12.903633765210065 13.69692960027156
Sr 14.049711863933641 14.069567553678354 9.960624893075053
Sr 16.285985242142186 16.790595947262286 13.310813322230441
Sr 13.434763895679513 10.286989931542623 11.598877909251772
Sr 14.717127407152587 9.20932421223458 15.365776904348214
Sr 14.40289248017681 14.902051012094658 16.910139523155436
Sr 11.688872258467633 11.908201215571506 14.973304206780682
Sr 11.300522362624445 10.431985452184595 8.234642677495614
Sr 9.767986412569677 8.983016492058548 12.183556668977053
Sr 10.283900150929448 12.9334472911984 11.220074536309511
Sr 12.423716194635642 15.66210241944961 13.400314926980744
