11
Energy = -10.0953713 eV
Sr 12.712104825454116 7.979068991614587 9.788427566824668
Sr 9.25628182269221 9.325884439667846 9.518119624185598
Sr 9.263950540755207 5.888371266645754 8.191491801599314
Sr 9.120076123130787 12.850046859694313 8.327387966502705
Sr 6.5148853808010685 9.597244764293563 7.077593687699908
Sr 5.940050234352591 7.149117359945388 10.452746775393745
Sr 13.195700568024174 11.91082577775864 8.409451942366772
Sr 10.752423807508597 9.396202410726099 6.109990717220639
Sr 6.768449640055924 11.13506494565708 11.553136031791366
Sr 11.073178207714856 11.433067237133132 12.000174725564934
Sr 9.503609416268583 7.4358160803800795 12.67219037747129
