14
Energy = -13.41465374 eV
Sr 12.250151799900282 9.961289936810658 15.536603221904606
Sr 12.827213715876255 8.591168232047123 11.523983575214688
Sr 9.432935840036823 10.891500529472246 12.711687763815515
Sr 16.058122514830668 10.24934200690879 13.799663411174338
Sr 15.567404838564952 11.176116011536813 9.637788300824873
Sr 9.924850266771676 13.28557096920603 15.983442625082535
Sr 13.133150853855453 12.399898715079736 12.482231374458918
Sr 11.361929394858933 11.805654676570963 9.097160485773763
Sr 13.910392535909676 13.98781080989558 15.80384846030537
Sr 16.7138955460177 14.169611188440237 12.451468845310991
Sr 11.108823854973124 17.175273923970764 16.088476512376374
Sr 13.892584993480884 15.110028191758495 9.636615539168773
Sr 10.523277137630336 15.113133514938513 12.414425034537642
Sr 13.969339296054544 17.088251067449583 13.195005502611542
