13
Energy = -12.32707965 eV
Sr 10.765735475061081 13.53201115969844 9.000182616134136
Sr 11.750814422140913 10.001891623115553 6.9040192896950785
Sr 10.373992985802733 9.834502829118938 10.647798113966692
Sr 14.10481032881403 11.128892230303078 10.205420046369966
Sr 11.523043204928607 12.742174345777489 13.105199807769932
Sr 6.986278176268892 15.109965242642883 8.117151908604288
Sr 8.90908499965031 9.747256094891108 14.376656789596307
Sr 7.75098592120227 11.05215492971339 7.699584705192894
Sr 7.617131337664751 12.809381387724052 11.533952811123829
Sr 12.950497408526438 8.799260299502093 13.4976528488659
Sr 13.102543804100394 7.096563665975192 9.656448353155273
Sr 9.155819968541461 6.952054167899365 8.11504666658153
Sr 9.983329959868152 6.124332003418563 12.277130037160502
