13
Energy = -12.79020802 eV
Sr 9.30671047654767 9.305901068613036 9.30572797332906
Sr 9.306930334612952 11.417739263411399 12.721721761016514
Sr 9.30733482933588 7.195311871881313 12.72129933287376
Sr 9.306003879347765 11.41751377665045 5.892158839270741
Sr 9.306329995897334 7.195958094506104 5.8922315487863655
Sr 11.417695413623207 12.721106118413276 9.306411115301003
Sr 11.4173256243224 5.893401287050866 9.30672606888859
Sr 7.195619881077757 12.720114971461722 9.306201260772072
Sr 7.195837245472886 5.892562870316866 9.30645953588459
Sr 12.720684054811912 9.306168459781683 11.41699894115202
Sr 12.720289700523464 9.306122674556603 7.197070078752803
Sr 5.892053730064765 9.30697054562274 11.416492015259584
Sr 5.89290055098282 9.306844714355288 7.1962168120920795
