14
Energy = -13.24867931 eV
Sr 8.919522166796536 17.32538365563493 14.370491065509132
Sr 12.709893076949758 13.049362249212608 10.016571951157255
Sr 10.44959326311828 14.016915207102159 16.316961090735234
Sr 15.558363769729652 10.136179173842743 11.110544251425187
Sr 12.532028412078557 15.769735795181061 13.299477513653496
Sr 9.242793030017198 13.524286731420979 12.368781678879119
Sr 15.986513229698533 13.915986544006351 12.612679189561304
Sr 16.532256089620443 10.752456189859233 15.106381843348597
Sr 18.67911361880037 14.266745950227243 15.674481044780048
Sr 19.39806710666456 11.706562007309739 12.2878399626471
Sr 12.697635347574968 11.63559148902271 13.754058137751752
Sr 16.077671849382313 17.4983269994335 14.923832929738692
Sr 12.373717851770243 17.651948279095688 16.93078383026265
Sr 14.599502119527132 14.148565866216954 16.530252666629305
