15
Energy = -14.65580368 eV
Sr 12.778189183339652 10.601608028703831 13.00849630950227
Sr 15.306925179900334 14.855505774103403 8.176464059578846
Sr 9.606140542312664 13.098745970480072 12.085914607041131
Sr 13.459861507246346 10.42593691813552 17.12806687589134
Sr 17.30288285492448 15.513557958346318 11.758544969142699
Sr 14.266479740473795 18.20503794489089 10.716795392389352
Sr 14.593963752701203 14.26152229437467 18.418752743032094
Sr 10.719928549423626 12.653611066390116 19.239732709126912
Sr 9.487884058963767 10.604226148321285 15.689708594407296
Sr 12.353255360670115 11.763160498610173 8.96785750574612
Sr 15.852531505421762 12.818060944728586 14.709360017953426
Sr 11.917142119156825 13.781268146644482 15.466766467645652
Sr 16.194848960793177 11.588348408061583 10.69423484779291
Sr 13.518144275352812 14.367429790049215 11.749077985165613
Sr 14.669409292650458 16.85362379037127 14.788968040568705
