18
Energy = -18.01057548 eV
Sr 11.101725771875824 9.37236468263491 13.302546946344775
Sr 9.106578270078877 11.639125394373776 16.082451075715813
Sr 15.168353555579662 8.957194320198006 13.113756434115123
Sr 13.25823441466942 10.688170079791476 16.77553861353405
Sr 13.202611475101465 11.105231379626792 10.246628130461783
Sr 10.370241441205952 13.321156366875092 12.516734463331998
Sr 7.82322978233341 15.48449642185416 15.012117415911371
Sr 17.210843231934327 12.446405264309893 11.390938760040722
Sr 17.48539127368711 11.123234357716706 15.683398030325991
Sr 14.332292088713293 12.90864696375612 13.856046332681151
Sr 13.776775084365942 15.226273963498715 10.668527770731622
Sr 18.43527902125027 14.95853414506885 14.624476321469375
Sr 15.610972751751751 14.309656821882104 17.518733741272285
Sr 11.692820807702503 14.819192837924216 16.187937373924505
Sr 11.031160930448829 17.36827218398846 12.954207198196507
Sr 14.913398592890012 17.00090919103997 14.293211578666318
Sr 17.522595437250537 16.749848186856518 11.080079471658493
Sr 14.19071540124564 19.30251538104731 10.896222972744141
