19
Energy = -20.61584209 eV
Sr 13.693915737546924 11.525920887013141 18.087906672135006
Sr 16.033972632473063 9.565612375619107 15.13293427386957
Sr 17.80364529659665 12.593396709834881 17.58694747935722
Sr 15.092155905415124 11.246430237681981 11.340444002567297
Sr 14.828367209913573 15.613941814456558 18.162145030861936
Sr 12.02275223802522 10.675696238966932 14.264618934068872
Sr 18.619905130615614 12.446893257467316 13.391294098539907
Sr 11.269264504067545 14.436430008407239 16.151246349349787
Sr 15.070513389470735 13.403777650653957 14.876145529823908
Sr 8.66172541574531 13.01854253707394 13.107990576460761
Sr 17.866830606449597 16.187005953220428 15.254288239650924
Sr 13.870989931727285 17.339490632568157 14.386042787056647
Sr 12.324944674201706 14.219216276445747 12.151253886949215
Sr 11.008850784237755 11.059991095223882 10.154635399023148
Sr 16.233533401765605 15.368882801909821 11.414206716806929
Sr 9.801692137312768 17.1072049123203 13.174394352586656
Sr 12.844929720567082 17.670996016967745 10.265956283185634
Sr 13.592024848230805 13.931985985443736 8.399544771743036
Sr 9.588230743066877 15.024796589179129 9.441510233617606
