10
Energy = -8.26307177 eV
Sr 12.672699233292548 10.895509006921237 11.923535410544671
Sr 11.530492239166326 13.308872259742381 8.886910721383003
Sr 10.900891689962238 9.319623903972568 8.175080646964552
Sr 9.062738537994527 12.816763273575802 12.43691735591045
Sr 9.361035483209857 8.777033188129469 11.801675910988838
Sr 5.617563455858151 10.157960363887165 11.844811720486089
Sr 7.774385917922529 11.613609256153858 8.79667074170521
Sr 7.071448585152807 7.572866107940112 8.696132251070255
Sr 14.747083379170125 10.336082400880377 8.535676577841107
Sr 13.054401478270888 6.99442023879703 10.695328663105377
