12
Energy = -11.14117419 eV
Sr 9.692117036675732 9.553227352824772 9.249932470453746
Sr 10.988850433781364 7.6927640195929285 12.437565766062802
Sr 13.076457686204192 10.796883696843947 10.938650269059499
Sr 12.789983994991394 7.085730398310206 8.882432963657623
Sr 9.059316672264893 5.676431731098004 9.351416491703109
Sr 9.493460031310198 11.560045049056493 12.608084965803549
Sr 6.608601317795913 11.977552119194026 9.621601689817533
Sr 10.30037309952535 13.479427488123655 9.155464290233242
Sr 6.939716810567716 8.380727929102088 11.731515703077646
Sr 9.849796083428009 7.504785065089277 5.853330075793071
Sr 8.32751499577793 11.42747306046681 6.028888844190607
Sr 6.326564800573057 8.317704411262993 7.593868791112905
