16
Energy = -15.79385327 eV
Sr 17.524636483498455 16.44152396615521 12.919121453991753
Sr 14.534628765888423 16.177229868827993 9.56464227015272
Sr 16.717352078621595 12.824914731235921 10.915225276465232
Sr 14.14365974215879 14.715429063771175 13.05966343248365
Sr 13.630114506914783 18.480181989694668 13.199707606303866
Sr 15.2191126188878 16.293548370751854 16.49749306648155
Sr 14.948219696603214 9.602766869136802 12.758668582041507
Sr 16.454308408293272 12.527775597577005 15.319977732486832
Sr 12.360859861630182 12.150050321719972 10.722561908740065
Sr 11.237546836688438 15.54053787465732 15.576249574935083
Sr 14.07651534360475 9.009260121876375 16.768391169129252
Sr 13.551695890837717 13.035262962224484 18.379236635492045
Sr 10.937884049088682 8.702095186151064 13.226393896493773
Sr 10.732748355873685 15.88040068126017 11.469561034040982
Sr 12.458990083133182 11.91522669291729 14.783161498994621
Sr 8.94827747540343 12.58816632756008 13.195437968362226
