10
Energy = -6.77579289 eV
Sr 20.992317282575446 16.48426834948702 18.926298821429743
Sr 16.77539062042706 15.623128348437826 19.513004081491495
Sr 18.927687757015267 14.142266795072327 16.428102739132715
Sr 22.169659929307883 19.62767588434219 16.56437565158908
Sr 3.4672122965664864 16.96313679255916 17.870717205796925
Sr 22.92154238768551 15.460281860049127 15.5057520302274
Sr 18.059183171310565 18.932791562095307 17.60315641854423
Sr 19.618944242506547 17.45503947541533 14.278558924795691
Sr 15.678934377512846 16.431319888072665 15.441711522903589
Sr 26.555087691608584 14.324400165550198 17.515381272214114
