16
Energy = -16.05670865 eV
Sr 17.945013265141576 15.575292368739353 11.549307361808866
Sr 17.436347421301107 13.2041173886918 15.011849596725977
Sr 15.590662999097304 16.95443398661562 14.871763479809317
Sr 17.293186052309306 11.43945051952287 11.127501664433709
Sr 14.292423187195602 17.573707804485668 10.796436370595108
Sr 15.422820503900423 14.164430322774747 8.473631232936812
Sr 16.317784356987403 15.184838443193875 18.743739559441426
Sr 14.460715156016898 13.912086915200511 12.343902918985595
Sr 13.516960136885853 13.732802063638117 16.279457862853903
Sr 12.71243780859517 17.229329542282585 17.927868722233658
Sr 14.510853929266428 10.296523439524696 14.052197839167262
Sr 13.16269458680468 10.884020365625254 10.12065403751503
Sr 11.570955212328256 16.471718091385405 13.986333496628832
Sr 12.617348502506362 13.76900566632184 20.267559704945697
Sr 9.686264073824233 14.444960801840493 17.15420803834171
Sr 10.827785737114322 12.331929000028783 13.48483126905624
