17
Energy = -16.55263794 eV
Sr 9.435595089864412 12.971495834697672 12.155229165954438
Sr 12.636746056254676 10.701284463017828 12.805822240277752
Sr 13.440078091436732 13.916857687086056 10.427603334371138
Sr 9.563334569668719 10.517665325884693 15.598064801614676
Sr 8.264856246275258 15.439699391400454 15.37098046269651
Sr 11.1486811976533 16.544668901347528 12.558514415234223
Sr 14.76041118631265 11.023226504189795 16.218579200104298
Sr 16.665458887342123 11.380894663190409 12.083714072093121
Sr 11.782636201952876 13.72979669884776 15.542357082732963
Sr 15.046225270985632 17.802756363790596 11.814896221846544
Sr 15.160026460982097 14.502310923352299 14.000529601360373
Sr 13.131275148088482 17.553489205339147 15.927964208616428
Sr 18.579483629309298 12.506983407140002 15.547165233984321
Sr 18.64367193098921 15.315546057990653 12.511424690221677
Sr 16.091324057886666 14.901426692092885 17.79209267645346
Sr 17.211705673467865 17.990737703716714 15.3076174584675
Sr 0.2785872816458102 15.929289223288844 16.5241278024846
