10
Energy = -9.09099772 eV
Sr 13.616871733828923 9.486456581009092 10.238856033014608
Sr 9.955940721186273 9.890999775050268 9.942538758745426
Sr 10.798863535997585 6.234383995581682 9.846272742744866
Sr 11.055805135798408 12.910372086695117 11.685335230023192
Sr 9.730582760796924 8.703666244206422 6.45255863182739
Sr 6.832112553927798 7.952852466436513 9.584915880312616
Sr 7.621455640412246 12.196083455523 8.334948226883194
Sr 7.284480310079192 11.071454260257916 12.430338343858581
Sr 11.806702526088747 12.244088535975571 7.54287761316693
Sr 10.723189760918823 8.735647599264263 13.36736418135364
