18
Energy = -18.68031061 eV
Sr 15.442325738667757 15.562632880896848 10.927736226668289
Sr 17.96568443485128 16.335679834495696 14.369296444156578
Sr 18.130959850927542 12.76849295494862 12.483219158663834
Sr 15.182948578772342 19.278388351253316 13.77515377917608
Sr 16.561506209136542 9.20398793315003 13.733520966056712
Sr 11.710262390968614 17.798574654478852 11.86430069584007
Sr 15.232797612392153 11.358005583650927 9.987560023949905
Sr 11.562207374514802 13.512967722414064 11.206479014415137
Sr 13.889975856697067 15.758561213189086 14.423010648208704
Sr 15.635551985169686 16.981333733509437 17.695380120491414
Sr 12.509461660791743 9.063134707986466 12.25634827146446
Sr 14.164299200367683 12.183252275235102 13.668915510396335
Sr 9.750286910219192 15.353291597265516 14.501382692891635
Sr 11.843948257923357 18.334929438531777 16.37034009633057
Sr 16.629186610882954 12.955076659989878 16.49511654054447
Sr 13.550612325162419 9.730519235809243 16.651594869649475
Sr 10.27921491693824 11.375559574248989 14.7988447956642
Sr 12.474930175980738 13.85212647079138 17.433295873348513
