14
Energy = -12.69679084 eV
Sr 17.23142286198694 13.516013510799462 11.18596808763585
Sr 13.213660110226318 12.864651404939712 12.63783222514415
Sr 16.87088861687091 10.12272939386616 13.646350625318949
Sr 13.920025812621382 15.621573661631231 9.278572278588648
Sr 16.791243384100554 13.787928498528787 15.34160453347926
Sr 10.013582343285293 14.261635175339364 9.599423754394781
Sr 15.20920861225561 16.61239215240455 13.006955097474963
Sr 9.71785405986724 10.553335717170583 11.573071564340038
Sr 14.383171399662325 10.924733673384075 16.79152810489604
Sr 13.03673468916688 8.568601085809968 13.611524912952671
Sr 8.966247521117069 14.191324292730593 13.506664091642852
Sr 10.60170642527297 11.18195202633244 15.547567247295893
Sr 12.571464578187266 14.949625575693636 15.925752287112308
Sr 11.343694982099668 17.134085571840078 12.191661459189822
