19
Energy = -20.23796 eV
Sr 13.615308059014007 10.922474992223727 12.16751199683957
Sr 13.964265748046667 13.73558885071639 8.99395003552135
Sr 10.170589073527665 12.772371795938046 10.835669385748039
Sr 10.05721011305756 8.926539102851942 12.886998249371228
Sr 16.920567534093994 13.661469272318381 12.107107340312307
Sr 11.254917280767117 16.895020425557103 9.752602124722419
Sr 13.2577998354765 9.185786834343752 15.888106094337815
Sr 14.827904957639916 12.918976284195635 15.559281064462782
Sr 16.569532245726858 10.757884814103301 18.380132709339613
Sr -0.6763276508420409 13.593608467534983 15.95766836236029
Sr 15.830969870769431 15.024166099821532 18.77201403888385
Sr 12.259965143815588 15.993988757204583 16.56553233789951
Sr 17.18620645337023 10.02080930741639 14.280912769182965
Sr 9.311927355957653 16.07015628420356 13.429538051050606
Sr 10.752101330465168 12.384642450322925 14.91049971537528
Sr 12.504796600682162 18.808210842823122 13.37081398509352
Sr 13.033392947010249 14.973997194937207 12.663260415431091
Sr 16.019456224884237 16.748605419852264 14.860544893025306
Sr 15.4171022187193 17.384535496577353 10.611567848778163
