16
Energy = -15.85705283 eV
Sr 12.010086780047478 16.386326418530057 19.32270492902068
Sr 16.133509030810075 15.60003671386049 -0.05421305512794966
Sr 10.871147006080847 15.545936459629958 15.329713437326138
Sr 12.83910115733315 17.695647563718097 12.32446013930007
Sr 14.432132189714421 11.391863205650381 10.298894845645288
Sr 13.710550225604424 13.258996750524235 17.347844206860223
Sr 14.99717092250728 15.411680925748957 9.598607006375277
Sr 11.171836534932487 13.67647224630337 11.188353098099387
Sr 14.316872532144618 14.234353898174737 13.365450004061847
Sr 11.59332800987578 9.026664150178577 11.64697815148684
Sr 17.869493733098263 13.136724963892556 11.824844859709868
Sr 11.164291463046146 11.519688277428083 14.64502582169925
Sr 15.111438959264147 10.501715128316029 14.168943467708166
Sr 14.585399387918761 17.17112323503017 16.212399806512533
Sr 17.06376706410767 17.141281327166666 12.838113563003384
Sr 17.447543354959812 14.157747880078245 15.914402617929255
