15
Energy = -14.96137986 eV
Sr 17.565365000825793 12.621342015123373 13.215766357478575
Sr 14.833972519835125 11.93382905807689 9.978137868753615
Sr 16.019513674336554 15.854079968585632 10.976174180590414
Sr 16.38923660666649 16.14660480952705 15.210829906859763
Sr 15.408123559892472 12.402338619945864 16.945376128072574
Sr 14.496020823971413 9.794552446310979 13.668445327233142
Sr 12.624846975490682 12.6002511040942 0.9467565000487608
Sr 13.748488114393869 13.702730964882246 13.471478986095937
Sr 12.931404657904576 17.59258134364768 13.273775767762636
Sr 12.602855182047545 15.41497148593321 16.97742691132699
Sr 11.66887723538018 11.83910634412419 7.244145040828176
Sr 11.473697731599426 11.557177289016812 16.103323555757587
Sr 12.01258648490224 14.956599372804526 10.014779651015917
Sr 9.898654417175935 14.725129580135567 13.727540906059597
Sr 11.09621832284884 11.257167946758669 11.528924025611364
