11
Energy = -9.97303641 eV
Sr 14.988742048399049 9.542169069969724 11.21661601053766
Sr 13.401008777275925 9.424831335582617 15.200534263694564
Sr 13.242754777360428 12.78500134904336 12.927336787770207
Sr 16.51116929388857 13.483971082719792 10.773585339602215
Sr 10.814830372870102 9.891909738176496 11.876001380175191
Sr 12.769534765336903 12.368585086641511 9.080251170834835
Sr 14.141700553623524 13.307687085919463 16.75420203102446
Sr 10.272412693864165 12.180872776257155 15.373825742194342
Sr 13.233782894617724 16.185914105715693 10.718157035276398
Sr 11.647489617359504 16.063914487162275 14.701168163096227
Sr 9.750244265125495 13.924342643739076 11.573111394932308
