18
Energy = -17.61161235 eV
Sr 18.343082910532743 12.876785776263944 15.45433099496626
Sr -1.099019936181422 14.942842940064754 12.070269540620261
Sr 15.476630556219298 13.964786766270109 9.006205584658051
Sr 16.43211735651988 11.047165115408575 12.028559101111085
Sr 13.159533500567377 10.821819210720404 9.436189028148005
Sr 14.860701140455925 17.42394729371431 11.175340817655053
Sr 15.509176898002755 16.14651851909054 15.247019048318013
Sr 15.361845826988954 13.163370070555217 18.200161279156497
Sr 16.0038546508053 9.584392643205483 15.950271541387336
Sr 13.249497474009436 13.653260501205805 12.76185619270344
Sr 12.657806488252966 9.576336643257147 13.41541014594716
Sr 12.378086527024728 10.441249720238833 17.611455211873267
Sr 9.67991214221064 11.597517039307842 11.126736936580224
Sr 11.91749071617956 17.688887254050414 13.768292330881758
Sr 11.4402380464171 15.249159034464496 9.731326387807215
Sr 11.759612092040182 14.553283937215324 16.554160119078926
Sr 9.386336287485024 11.455164492379344 15.141593016977762
Sr 9.063740448682957 15.027014072655756 13.297341637824934
