19
Energy = -19.50967819 eV
Sr 17.262168930540906 13.598413137285782 12.253502122225198
Sr 16.158955289845128 13.713900326831432 16.326648994133357
Sr 18.519759381958423 16.7931485457026 14.669884440829076
Sr 16.099985966866612 9.96521343389171 14.35378591075989
Sr 15.031594501712155 10.514714510782705 10.422667782743009
Sr 15.476832875091398 17.418231798819903 17.752052512200667
Sr 17.11245512395679 17.358848766086748 10.522542511628941
Sr 13.002788906256862 10.992069910761082 16.99028052399979
Sr 14.030360704434027 13.861899315390316 0.3221715832473355
Sr 15.412510360822102 14.096843759257403 8.531670586144319
Sr 13.475078481580475 12.842982481848058 13.415649038439248
Sr 12.110191393651986 9.202323973450836 13.087662983054946
Sr 14.608146063551189 16.68774581061102 13.662423403734852
Sr 9.936926610937027 12.829187863087174 19.10502562422468
Sr 12.962191775446804 17.005943635427922 9.744311486343001
Sr 12.20719513503929 15.07014351007723 16.61349944001788
Sr 11.52471938673417 12.863223850397121 10.07107782500733
Sr 9.725749296417346 12.261374982094175 14.758132590240802
Sr 10.630860882548793 15.824931097193327 12.861243988848697
