13
Energy = -11.99065677 eV
Sr 14.398690006128815 11.012611915802552 8.609675777442424
Sr 10.715072682180642 8.2507705693393 8.305203838467769
Sr 10.743529484408537 12.088387435554012 6.5125948997338385
Sr 11.980742599536041 15.034774196297281 9.367093710783259
Sr 13.139349051529107 8.406858265260173 12.061465733033742
Sr 7.675891894024597 12.917955119681462 9.39065660220042
Sr 11.023894622541295 11.423926183960715 10.543154407746982
Sr 13.991401516009187 12.77505849499004 12.804028846735736
Sr 8.14884268593041 9.091611463636209 11.742480720370093
Sr 9.793264805461938 14.306118914311988 13.106230602784432
Sr 10.766919458049973 10.608787342100163 14.72018479091528
Sr 14.742467114060634 10.078648139088656 16.047659752886375
Sr 12.637093543066893 13.850717357539233 16.708299157338793
