12
Energy = -10.51284282 eV
Sr 16.317623321391423 17.937759097486335 12.148744034098824
Sr 12.748181550124604 18.35181184459418 13.978281262132477
Sr 15.077284099644086 15.044307781366467 15.027247089060625
Sr 17.223029059330855 14.025492943621341 11.32282738341553
Sr 13.346192420959536 15.012413025019127 11.585682983580202
Sr 10.784861226501054 14.792347748190005 14.94352335384086
Sr 12.789408911070383 11.741024867063933 16.535900645030893
Sr 15.209958832194777 11.172156417324203 13.42611411774169
Sr 8.988471786007523 10.724623968628705 15.73369461627947
Sr 11.397277132169277 11.58851967716666 12.587484564121064
Sr 14.214969380663684 11.559209316673426 9.463175889349468
Sr 12.184873647342844 8.209360270944927 14.54418407676111
