12
Energy = -10.99666246 eV
Sr 12.31065467810465 9.730556458414123 12.393099047667208
Sr 9.521809139813666 10.076917489561605 9.805399173263957
Sr 9.223149079192535 12.630163537068663 12.665572776033068
Sr 10.832964612184458 6.380003941197265 10.68932688660504
Sr 12.672071896048989 11.652888770349046 8.608371327549978
Sr 11.078543279956667 8.001139670145054 7.002211060994805
Sr 7.7771483570234015 10.616528023226829 6.411585058320035
Sr 7.134596886071433 7.272764628093981 8.881821665811586
Sr 8.071993593493827 8.588490742007416 12.980076052385895
Sr 5.867069228902868 11.218304077067552 10.271970110726143
Sr 8.880846489718778 13.846650002778723 8.741959606395417
Sr 14.473436542868036 7.829876010227299 9.392891667488634
