14
Energy = -13.39604828 eV
Sr 7.552904082466674 8.352798090713879 7.474988009293338
Sr 6.732305207130678 9.415702490162243 11.408896512133534
Sr 9.5823400992869 8.482264272798977 14.573556291271823
Sr 11.568214088185215 9.104719699691211 7.950588530056889
Sr 10.580431997449237 10.31486895268068 11.408335578694585
Sr 13.23876564825073 7.7397127488500415 12.240256185520408
Sr 9.472805339763157 10.967914578221984 4.826882365380071
Sr 8.565637477015512 12.128988513142291 8.755992048337504
Sr 8.415734051617951 12.596333470039678 13.526703464025593
Sr 12.233638807395984 13.084621900656694 7.15795993534937
Sr 11.424614700306638 14.159357055936063 11.09123178611338
Sr 12.603557394895759 11.537666474127793 14.368876525112269
Sr 14.246331026229674 11.315675130142976 10.336336020361259
Sr 9.556627213522288 6.573284622835329 10.65330431510824
