19
Energy = -20.61500055 eV
Sr 18.640909523348196 16.165336010494876 13.492364390040223
Sr 15.529785562956658 17.161875344400958 10.719134065123368
Sr 17.408465947632646 13.363439368475813 10.498296613064298
Sr 16.72146561585267 14.994587396448713 17.135292521133408
Sr 18.14782020775945 12.031565204132034 14.458748786695212
Sr 13.203489314850225 13.681376799460068 9.955817956810861
Sr 15.101664825380402 18.177532107761152 14.833036599497163
Sr 11.76699390558221 16.6786141130981 12.646559205721731
Sr 15.109471136509951 14.417019228081735 13.556467576481927
Sr 8.616066538457636 14.971768588900897 14.947894190939222
Sr 12.5092435672689 15.329383788322033 16.642860084040663
Sr 9.04749796772039 13.958964166055164 10.845952416855278
Sr 11.56434529330868 12.662430596414646 13.623076724238574
Sr 14.40225299208501 11.502981632188382 16.41138342783965
Sr 10.920822178176472 10.156216837541038 10.61667032069086
Sr 14.827572951640816 10.4885834344634 12.27999877036282
Sr 10.233809899371733 11.793545722552446 17.25528752831543
Sr 8.035912397149717 10.934318508058132 13.688912005694476
Sr 11.651399996926076 8.819610396053323 14.582504630304634
