12
Energy = -11.09688174 eV
Sr 13.227924919926597 15.33366625664632 16.371285427120373
Sr 16.661135477328113 13.831877338967836 14.56491790566348
Sr 14.918798580054446 11.764526655764593 17.76231591981358
Sr 13.599551054385103 15.447699252779348 12.195925595288776
Sr 10.645475528499718 12.29397107845139 17.430543107577538
Sr 9.924464244481472 14.570257771429919 13.83035223640493
Sr 13.131642732139612 11.961697559070135 14.202285219334417
Sr 10.291882739902833 16.433574545703948 9.995165193683057
Sr 16.548274889833856 9.714878210379636 14.330114017868146
Sr 15.578177173103388 12.093697926948115 10.856828062538677
Sr 11.413800095303444 12.535499391659922 10.466506012787391
Sr 13.810324878644021 14.893841654043275 8.147512255356489
