26
Energy = -29.58376533 eV
Sr 18.145736945098687 17.912771276411718 13.228824947706434
Sr 19.960907060748887 14.537430027893812 11.2898133166581
Sr 18.725299865724857 14.239520490129463 15.366359374651307
Sr 16.934018853088006 17.034453871742542 9.190226843507036
Sr 18.273747449108082 17.93324266455956 17.608356074044792
Sr 15.370803117886068 -0.06184115631988004 15.604578322404477
Sr 15.242025835377888 16.458971698940356 15.678640466353649
Sr 16.317662043444134 14.220374709892253 18.904693578095266
Sr 16.108206002576622 14.562097179683654 12.142046095386506
Sr 17.73537121995364 10.895128842791785 13.024882430186874
Sr 14.292667364052082 18.11771165339651 19.06124057875117
Sr 14.015337311475886 18.16288303313091 12.10485685380655
Sr 17.69004799519154 10.39252144774032 17.251055423513353
Sr 14.96383406813688 12.492057833202677 15.486817671244788
Sr 13.563234939630217 11.255778337453668 11.828469619077964
Sr 11.554847815930477 18.197042281070278 15.615963920762448
Sr 13.717671564135033 10.648639721827491 18.745432475092795
Sr 12.285706900428963 14.71685241176623 13.643806267880288
Sr 12.198553990024603 14.558254398718338 17.783614030853492
Sr 14.342903605828322 8.62674586268343 14.941980450924936
Sr 9.780592436491707 16.994124845971694 11.78419285053585
Sr 10.730664745684967 8.393785567589768 12.477989440468932
Sr 12.855976236683276 14.955021866983472 9.651566434484613
Sr 8.702512377999055 14.837557819965992 15.28192156177572
Sr 11.037028655999377 11.2128274251588 15.416838745466453
Sr 9.624597507532346 12.566141495191358 11.689826435359846
