24
Energy = -25.3093343 eV
Sr 15.437983051642002 16.88333606732513 9.65395930674704
Sr 16.472534239978636 13.050855824581822 10.949540724270463
Sr 13.107642913262403 10.849199961198266 11.29030684164763
Sr 11.006857795705347 17.309175545854252 10.287171186742729
Sr 16.67328538654663 9.255403392232234 12.48812312610216
Sr 14.360599564843673 19.282641479452106 12.694451875755663
Sr 17.085961622284803 16.18368745040272 13.399233958206155
Sr 12.901621062991707 15.047123392494065 12.671246133747546
Sr 18.779830677292605 12.31653414528781 14.729893433186392
Sr 9.722940020753478 12.973818128958875 10.469647701211628
Sr 13.0986579084984 13.870792610650593 8.501489077177292
Sr 17.60527739911359 19.6685307094996 15.47922407362419
Sr 10.85964620284683 18.45295548615761 14.546764317084438
Sr 13.14485402017702 8.415133245117975 14.573709396546754
Sr 8.723518955729936 15.262869416241223 13.55691624571257
Sr 14.933675675665743 12.804571837528702 15.245518498583944
Sr 17.94739840709159 15.779733480675088 17.336440949996838
Sr 10.669220792417827 11.671523187951331 14.405704825792053
Sr 16.611372046404938 9.009039100085724 16.479090931763142
Sr 14.370275849953904 17.312328030591306 16.22619970312863
Sr 11.251137085122606 14.849120836218201 16.833502845647406
Sr 17.285641717429975 12.093653786115992 18.868420483476008
Sr 13.070447759523843 10.952093912074607 18.116710301699335
Sr 14.425498376849587 14.822577081549767 19.454659224511527
