23
Energy = -24.25383438 eV
Sr 15.176226276053635 9.755798204237756 12.25584488762984
Sr 11.20310570590831 8.75291258479748 13.15502144798726
Sr 13.954451901698539 8.59581957430462 16.10465389932344
Sr 12.160666205995593 11.708987500063078 10.400005520675887
Sr 15.983602035102455 12.012757292332152 8.809656150583722
Sr 18.76392550728339 11.885770094012296 11.733449201216088
Sr 12.83272398975031 12.45177657253566 14.884678680628618
Sr 17.083777751753072 11.341506369325431 15.54220158651348
Sr 8.873623334407084 11.963820567845799 13.004583826472043
Sr 10.274593464365887 10.826410317672853 17.149109725832492
Sr 13.663993754978174 15.227292838994206 8.659079767475351
Sr 15.35915062948257 14.17781958930042 12.581292676736647
Sr 17.79881277280474 15.9625551989335 10.306651296402903
Sr 11.103396787858598 15.274456529992424 11.907801176903126
Sr 14.502766199330015 11.496304777213288 18.848399713678884
Sr 19.291549437904802 14.75922396855422 14.506148276932484
Sr 9.37435562899713 15.0857367248933 15.602506691081887
Sr 13.920596591475785 18.195935961733795 11.46606889131036
Sr 16.021226547311258 14.9316880894609 17.064987455098528
Sr 12.128319456564878 14.662064149354316 18.608052018633725
Sr 16.911102262724302 17.92773578244043 14.25818975749921
Sr 10.035188150057182 18.834964614456336 13.408683041856316
Sr 13.026131540329516 16.88375988902032 15.231334002258407
