29
Energy = -32.68937618 eV
Sr 15.675193837515517 11.004737909327512 18.738499504082068
Sr 17.660431911938737 13.62427386218881 0.4958623428569612
Sr 13.47064410162411 13.412168752397909 0.13641152902335177
Sr 19.532803496927606 13.36403636011061 18.04540720906861
Sr 11.760805050435339 12.756272994797435 17.79246492847197
Sr 13.506370478882493 10.279162776989788 15.16178107098772
Sr 17.038108682187016 12.369485314397748 14.937526694267925
Sr 15.26328145992948 17.209584832602363 0.5030645698269586
Sr 15.78835222485008 14.893212986181393 18.73332395486386
Sr 18.302734942258716 11.865883839840702 10.793831839255786
Sr 12.038487183303122 16.654479900261542 19.113119066103845
Sr 18.879333350064414 17.17464021986511 19.860091729796178
Sr 14.267946240217148 12.288066049640092 11.777265130770298
Sr 10.696654170790035 13.26404891202476 13.606516620996747
Sr 16.899613562022935 15.354738079760526 12.097772030474921
Sr 15.684636363395057 14.365872482935274 8.443952885390331
Sr 9.042016999047208 15.741513904693115 16.421453252829746
Sr 20.547516127357746 14.306229610717565 13.470708000042736
Sr 9.067772361759355 17.116226321862303 12.485735173143645
Sr 12.9419872172514 16.187836467682327 11.422795288579115
Sr 13.940582958325535 15.126559147857424 15.261506436233889
Sr 18.02297157309688 16.473850074928055 15.820173742870978
Sr 19.6261875078836 15.640903231193576 9.302094988727674
Sr 15.281929844736718 18.791983440685122 17.84562532887012
Sr 19.430116101650743 18.41036681741321 12.378414088166943
Sr 11.725572268477308 18.60036306200131 15.281540529281274
Sr 16.09243912313545 18.43279691412921 9.623467467832569
Sr 12.149913035972892 20.129362869815026 11.36023416553711
Sr 15.427424411646703 18.89606841215352 13.619222837961049
