21
Energy = -22.12994423 eV
Sr 15.860071681318884 16.291301625367982 13.931357997603023
Sr 15.883401074005464 12.186714776932305 13.38558600087868
Sr 18.84548524324534 13.7609955232844 15.67147995312169
Sr 14.981801067585662 0.17790834941974193 14.818220637750581
Sr 13.96883453096017 18.657493161991663 10.950502696617074
Sr 14.586681290190075 14.64094597613877 10.378582992645027
Sr 16.945851033588735 17.309539543637815 17.665911583264172
Sr 19.307244537326692 10.25784649884018 12.930745578212418
Sr 16.99506673428192 9.902745277535336 16.387622272272036
Sr 16.54015758037082 10.900143164560344 9.657571754647211
Sr 11.077910493376677 19.25722702025647 13.596732912562128
Sr 12.473998315520163 14.182503452464328 14.060916007686515
Sr 10.588458842639124 15.800200478408694 11.105247623973842
Sr 12.816148372594562 17.134335611744245 16.746614041415558
Sr 15.020237104815635 13.60151959859026 17.174054240265864
Sr 12.528929293333096 11.215279117609642 11.290577159245839
Sr 15.484008026014012 8.340392553673263 12.783743709255088
Sr 12.825353985424712 10.362149476821342 15.410319280228816
Sr 9.01805008573418 16.07081939479491 15.063830979022377
Sr 9.182077000733678 12.109332697497528 13.801666784535293
Sr 10.807645395560874 13.319595541050685 17.573446376586492
