27
Energy = -31.0538052 eV
Sr 9.34795399811889 14.956017306926663 11.05344004403836
Sr 13.500826919816022 13.949404712705253 10.546486286908769
Sr 10.923821805629737 11.421851526345542 13.037860909539473
Sr 8.169102674591647 14.043172906850291 15.077834919681308
Sr 9.092059712961683 18.096518636070044 14.010327709499737
Sr 12.527449704685024 18.037290963565866 11.200830432656167
Sr 14.6552422004017 12.491458929053477 14.241661707871081
Sr 11.751795235156422 15.23819770054795 14.11093500170465
Sr 11.693724754605842 12.380986189824059 17.121031116703204
Sr 16.513163698071015 16.978610798716126 9.624903580146498
Sr 10.50137990652035 16.43364651998301 17.776474150962557
Sr 13.80350710896784 8.889249796450532 15.444191464810125
Sr 13.072975323989407 19.00130933161627 15.307584043994574
Sr 15.480799960160626 16.31554577714075 13.294426265777776
Sr 17.762659636996545 13.29969774339753 11.635070957475515
Sr 18.04419677016705 10.32401908265133 14.843496003595517
Sr 13.316190002300878 14.3945749910507 20.667401970047646
Sr 15.759610099544513 11.758141750680732 18.15232314204158
Sr 16.236542814573998 20.023469496418212 12.481598202617707
Sr 17.925863804083274 14.297601409793124 15.677571362629802
Sr 14.389454465469 15.508085547282938 17.089817487138138
Sr 0.4203564941042571 13.132486519889648 14.084227137089075
Sr 19.418365454734186 16.989507783216233 12.95797163972273
Sr 20.125854261441813 12.20950341215524 18.11395202348826
Sr 17.5924226894965 15.355810183626993 19.57673036236397
Sr 17.309376141296845 18.362416064468693 16.387926286204184
Sr 0.13277156833339201 16.276716780909627 17.042562631994898
