24
Energy = -25.07983827 eV
Sr 12.46825341187275 14.530194194717561 17.85276912026302
Sr 10.965471234150305 11.142291975089131 16.043224202480815
Sr 11.64895380846268 11.5717881467813 11.9287168158462
Sr 18.326950667823684 18.368599657013167 18.077111373527618
Sr 10.445706858427865 17.93250438231612 16.649221579669085
Sr 16.43613401782086 14.731935294776916 18.568128534481584
Sr 13.509871882336995 8.783396571744914 14.086514700795
Sr 16.481218908851858 0.11405856592596174 15.924395077141469
Sr 14.88116223193008 17.079568883380244 15.194218358900821
Sr 11.156691336152702 18.36420832095977 12.541957480897539
Sr 14.745701405084574 10.568462769961025 17.91781444361367
Sr 15.857839113718462 11.28877663480171 11.277773980742921
Sr 13.559812253303507 15.20521465634334 11.42104927158949
Sr 19.541426819190114 12.051040322659397 13.28115493253834
Sr 15.260574612804996 19.393839450193347 12.054780425726648
Sr 10.626520559204552 14.727649265596861 14.215708324880925
Sr 17.530841448142137 15.457248799331309 12.102289252730305
Sr 12.60351218217367 -0.10315118316280292 15.201888699070661
Sr 17.401511621727995 9.017276912913871 14.728312625628643
Sr 19.33839716354922 15.233143678015159 15.750236997097192
Sr 15.183427501113735 12.886531687586128 14.790790688923757
Sr 14.121138228452983 18.673815971811887 18.690674814615342
Sr 18.861820131150736 11.590602189101265 17.396925450249835
Sr 19.04092477348709 18.828985582169267 13.964506954223856
