24
Energy = -26.62677469 eV
Sr 16.649160849215733 11.976419350579718 11.24637256265553
Sr 15.963785316862207 15.393033672269935 8.414865404720114
Sr 19.752738720145246 12.649390840697752 13.985034059696446
Sr 13.071941372545968 12.45054544960975 8.801238894239145
Sr 17.96227241239742 16.011766629061082 12.061269835923001
Sr 16.186767589309536 10.338288192860613 15.165737084967176
Sr 12.897032609638694 10.342153723480491 12.420853433460415
Sr 18.643186008966882 12.711675557783874 17.989577354421844
Sr 19.501092730179103 16.38629573994936 15.936214988628807
Sr 14.884551491960117 18.672506997633217 10.84902674552719
Sr 14.093317947994253 14.857103715697798 11.865728019353721
Sr 11.865272925759148 16.487616129580783 9.029731834276912
Sr 16.22423678235812 14.23296561673071 15.24514017520319
Sr 12.385876179908085 9.418715806004306 16.62977070099346
Sr 15.502567772264841 18.065825293279982 14.945909784174326
Sr 10.225628657308501 13.665753997889855 11.688808419709336
Sr 14.482846405037176 12.539674513490837 18.51313335921276
Sr 16.485432259776186 16.22770360344612 18.747711164013843
Sr 9.098046937324412 10.914876824594563 14.63787324240848
Sr 10.294007447136316 12.57823622542065 18.419456859780034
Sr 11.58174395717747 17.39773120254068 13.411245175455214
Sr 12.351126198685453 13.145078933646767 15.088545639378143
Sr 12.52328602844293 16.263438383895107 17.4193104964528
Sr 8.77030154671204 15.046856399221525 15.442601071654698
