27
Energy = -30.62637376 eV
Sr 9.137906248023127 15.196173991756805 17.613788941951505
Sr 12.980655834406907 13.898682571227996 19.22415575345888
Sr 12.172804986011558 18.077202013297075 18.5159515055569
Sr 11.057250923157223 11.686287630487358 16.101291696731096
Sr 14.081168765192455 9.77381006631911 18.591918117264772
Sr 16.001052767036843 16.315351968428487 17.400883177775558
Sr 9.872692389592046 18.406427669049936 14.934539832035878
Sr 9.379779332271122 14.29524858419424 13.23389451335346
Sr 12.426504245437792 15.523154985066665 15.540181395836095
Sr 15.067786974150286 12.560813891720647 16.00682487631293
Sr 14.213986548266323 19.096791129059167 14.848062715176244
Sr 17.155587561132933 12.665827107376973 19.30854264229241
Sr 10.153970484503974 10.192075933834367 12.152710247894634
Sr 18.46510828437731 18.093918351873608 14.338491992608839
Sr 13.808940287404077 9.080264704517742 14.344319381320048
Sr 12.235141727136696 16.94533749400524 11.63350839511426
Sr 17.68701121601558 9.690169333001213 16.31662998637286
Sr 16.06268394924161 19.033213365310957 11.095636018815393
Sr 13.118182893826209 12.726098612251857 12.512085024875297
Sr 11.682678676129981 13.261073663251079 9.002597605832214
Sr 18.78164696362236 13.912148658388562 15.317464015865054
Sr 13.719324707174785 9.470783503182743 10.179209010641397
Sr 15.673572531468302 15.595533768720243 13.206094603988893
Sr 16.92010857490882 11.446937985986827 12.450888836784063
Sr 14.763706129152315 16.193925013237177 8.484555010126805
Sr 18.45693801122552 15.318259386752493 10.590540774454189
Sr 15.928751628828328 12.490847185132875 8.59496381597118
