26
Energy = -29.15313241 eV
Sr 10.724439126524421 13.809392192537578 17.992689649392574
Sr 11.870466765127821 12.796459142154008 14.077703061646607
Sr 14.67403612164749 13.988867962201468 16.914842321118204
Sr 8.42095704266475 15.358896321574612 14.717543398137341
Sr 9.321520766964625 17.90233827287978 17.96750717497294
Sr 12.084258897096923 16.70123351723504 15.4558408777122
Sr 13.373483837444098 10.182845924320304 16.934548427065828
Sr 13.799040263171715 12.479132239240469 10.430530297118022
Sr 9.630497882653478 19.33085625514429 13.907361783787092
Sr 13.370597887372051 16.99251107837567 19.337481509688118
Sr 12.558359384058159 20.405141949393336 16.79848082930462
Sr 11.203924452854121 16.085329092715423 11.529233155110113
Sr 12.715628235780779 8.936844188568799 12.791266864844403
Sr 13.850259380273354 19.298455176054393 12.824335895624184
Sr 17.779362038595544 15.485018504748961 19.10541756422403
Sr 17.745311067804366 11.39863775603157 17.624809739207794
Sr 15.990636850112317 17.894569988030707 16.162244930869388
Sr 15.855919755122736 11.4370007419637 13.865910396092618
Sr 18.242125455489475 14.591488728447477 15.14301190807013
Sr 14.949456225069666 15.385007858114443 12.975683347305125
Sr 0.5866377089814458 13.743304305781036 17.355813407210025
Sr 20.317449854318756 17.74366340838506 16.410425468418914
Sr 18.231429520770455 17.79869395711258 12.604742512877392
Sr 20.182762960322076 11.305810408477749 14.099545582138289
Sr 18.180905643978555 13.693581038750871 11.162598258808664
Sr 0.8656597316393515 15.192039356793266 13.291997940421659
