22
Energy = -22.87081535 eV
Sr 16.071528476326403 10.469404124986042 11.645829205131605
Sr 15.652643547686885 8.546711428268665 15.107815074060857
Sr 18.111509390818593 12.044376565784065 14.910810269589836
Sr 17.414322447979007 14.242009446716466 11.09987811603643
Sr 13.314072587609074 12.784574984420598 9.76107444782473
Sr 12.174657192040776 10.019601120795183 13.014134445565562
Sr 16.20478718582384 10.66389355619379 18.56067119007801
Sr 12.296062124163917 9.279215921750861 17.273286999838632
Sr 18.042644013855693 16.09345259443831 14.723185644904701
Sr 14.775177993169336 16.730678803868823 8.758710647254913
Sr 14.168385835282008 12.512215578335558 15.466571511957847
Sr 16.85726502978945 18.470424324564746 11.770713643827092
Sr 13.907774971441784 15.53793812813065 12.635227341255582
Sr 12.751385666709846 12.648517921496493 19.47724223091271
Sr 16.052803806819032 14.96676105722846 18.04330244282039
Sr 10.177003972332889 12.82252281081981 16.020120606444166
Sr 9.853689809593064 13.202393840297031 12.013400846025196
Sr 10.866923127832594 16.34982383465686 9.793689260466648
Sr 12.879807269280537 19.41136555612011 11.610183986879711
Sr 14.637898374218311 18.33486915253474 15.430936503193474
Sr 12.09623700560588 16.097002750212855 17.61340274842255
Sr 10.368555241313803 16.808121384996344 14.020468220425386
