20
Energy = -21.59871981 eV
Sr 18.600151148049985 18.037828145601217 13.995301128254365
Sr 16.43962155495684 17.641345977186504 10.245457026904429
Sr 14.668149611174044 19.604065154566033 13.61724744773073
Sr 18.729292157091024 14.387925016049435 11.831097281867802
Sr 15.822922985110441 17.604067952017296 17.19761957236654
Sr 18.364527996948965 14.344989942589564 16.087036379390096
Sr 15.420504381138866 15.712505346829174 13.577032707482456
Sr 12.672817299208107 16.033286594044135 19.641680057189703
Sr 12.432858454542414 16.920025455910253 11.174427118567866
Sr 14.892815631744556 13.767966588567745 10.086948757629424
Sr 13.752406050002307 16.62131748587645 7.190924316600204
Sr 14.320090353216063 13.763648448550079 16.82034628536209
Sr 16.609734942471956 14.473470571709132 19.98873521176672
Sr 11.970570543763074 16.8977628589206 15.489431007471275
Sr 12.122401625713476 13.216706145857911 13.343109728889896
Sr 10.407550385819764 13.338846526552073 17.253241152624053
Sr 16.759038236371808 10.806679572503665 17.833378478360533
Sr 16.063745084436352 11.650549380678639 13.694111481831396
Sr 13.260676283858839 11.827523888301998 20.0605519840388
Sr 12.924368947501502 10.123934007686207 16.14726140928991
