23
Energy = -24.51490638 eV
Sr 17.587557558700208 10.97370462637799 9.139084512799938
Sr 15.42727443131519 14.333764882894261 8.447718839690705
Sr 18.416741748592905 14.688303368243545 11.39178234463068
Sr 15.269949515177123 12.162146000188212 12.168476903744116
Sr 15.932426614394144 8.220659950870434 11.686753450823575
Sr 18.89780726248204 10.871225995769702 13.173327835604782
Sr 13.120280429857722 10.881998117753414 9.289634703392696
Sr 17.003922103507772 14.099658915043646 15.259178188553948
Sr 17.7043686931531 17.91623796722433 14.16732159226764
Sr 14.587050614704768 16.199740370058432 11.995618088428857
Sr 15.60662051962858 10.001964081836128 15.630868372236993
Sr 15.243159998092477 12.857410027411216 18.71334951967082
Sr 12.33249904434322 9.124135042498379 13.239048002017356
Sr 15.392680923069845 17.19373672784707 18.005100245262973
Sr 11.882843735514921 11.427560144232016 16.741376989275572
Sr 11.569351173449377 15.154394559244041 9.312194960199728
Sr 13.932953058816297 19.287116524797337 14.60997005660924
Sr 13.133500307560995 15.184430034102085 15.686372027034581
Sr 11.807956382348445 14.806689648315897 19.4674779832451
Sr 11.099503223935091 18.21769736677824 17.306346981201717
Sr 11.368174088254488 13.051692197074797 12.745535669566975
Sr 10.674623714339997 17.142540134374155 13.037400578520762
Sr 9.217796509421003 14.608802062917203 16.108951585864027
