28
Energy = -30.86101596 eV
Sr 14.164307983041434 14.358658339577222 8.568498321975946
Sr 17.4284266974182 14.361179289797684 11.051365608173867
Sr 15.477246789273988 18.08390333165951 10.395237963910903
Sr 19.2709372095657 17.516488225565993 13.159708549233667
Sr 0.01687584863821492 13.579588944860301 13.214077612288722
Sr 14.366779085767972 11.635400729137954 11.798081398195281
Sr 11.236752814295244 17.098056438280036 9.233849236732622
Sr 18.12806184900865 10.718138619186465 13.108865699973267
Sr 10.681115787337808 13.119276443199661 10.423135407317275
Sr 0.1474551736030008 15.524351797404515 16.719661361943686
Sr 13.273272572032099 15.49239745056163 12.473614443587568
Sr 12.032062026631777 19.41950017622044 12.468369367386066
Sr 15.361635676617585 18.134943206630236 14.748826285070642
Sr 17.462622373595774 14.481011969076267 15.050147062107586
Sr 18.5213400529993 18.609810697202004 17.165405241239338
Sr 19.33574513013973 11.612179263596326 17.043801696720553
Sr 9.28330057354839 16.11809684208505 13.018743801228863
Sr 11.431802846602375 17.728858153766534 16.162790787358652
Sr 17.71661768464543 15.060392100434585 19.080079299387023
Sr 15.109884526340366 11.053741716199283 15.89116430865626
Sr 13.98725244108358 14.739548213317583 17.211021049325307
Sr 14.761451776236681 18.20083191832342 18.990807307559905
Sr 11.39656111269669 12.61103283368623 14.599085909416699
Sr 16.04403146460579 11.324008937533613 19.756597643188798
Sr 8.878116295659893 14.60204804482828 16.96399739893824
Sr 14.398542651464174 14.607274543004829 0.44771221685617457
Sr 11.066498844647338 16.158005284216728 19.915752490309554
Sr 11.858708319745261 11.979571946244585 18.86596052195805
