28
Energy = -31.07559433 eV
Sr 18.423225651786336 15.509772796434316 11.613460136702628
Sr 20.735115249212928 13.803109202300382 15.05999749812106
Sr 17.619265365075464 11.730415718001016 13.651956958086668
Sr 14.456255702762224 17.560417113365236 11.16509621647364
Sr 14.444882775721144 13.53809556258174 11.974689690308793
Sr 17.500840548729165 19.700021279947403 12.70922394874394
Sr 20.395537993571843 17.903364103780753 14.835919211714716
Sr 17.938567699212825 11.934471501650311 17.732343846852515
Sr 0.9227333509339364 16.35068250088295 17.48884208545224
Sr 21.791054290452035 12.841078700702885 19.10238633997182
Sr 16.46471422269449 16.043955289940623 14.992800786260684
Sr 19.222862584458106 15.849086406700271 18.19686390789186
Sr 10.81197554475135 15.252382369860344 10.72487254096968
Sr 17.27864566627275 19.707259404621613 16.942295327090516
Sr 13.903476450861978 19.92949245688087 14.586371110143427
Sr 12.328384768746973 16.1353171609336 14.321503942921476
Sr 18.60801148504296 13.718483504071996 21.601503065729887
Sr 21.621628734507876 16.43232854515436 21.398861609986945
Sr 14.215543043962475 12.620894939952434 16.038292141895592
Sr 20.90383312557207 19.510110947305474 18.80172907566772
Sr 15.065952397470092 14.298695964897592 19.63176370516223
Sr 13.902475196883143 17.67348004334225 18.0130564313593
Sr 10.525760239367138 19.07508677101518 12.238570115367047
Sr 10.681160319982709 12.502945600637364 13.857738353916771
Sr 17.330877773061605 17.844264869940737 20.90606720514608
Sr 8.346346005319523 15.926901165081338 14.121793919122275
Sr 10.196235200320734 18.79448177910499 16.406689393170932
Sr 10.932609317018134 14.660452102786811 17.687593830934418
