23
Energy = -24.49027738 eV
Sr 13.223387371039578 14.88360002985725 5.881361505178264
Sr 16.17644821794891 14.139232361066165 8.90039156310829
Sr 12.25035428092605 13.166865614570902 9.737559788788905
Sr 12.963069525702295 11.688987610996007 18.217139886397188
Sr 10.814367269633097 15.833983223436261 12.726599880620219
Sr 18.58805443122904 13.396731130118726 12.432001604735728
Sr 13.390031022133822 17.15479691601777 9.62692824047459
Sr 17.207327923953958 17.508826414732397 11.383293975618292
Sr 12.057795668913291 12.096440510032936 14.131852807835664
Sr 11.241648620415114 15.177033481007182 16.884100090444846
Sr 12.742952159027318 18.500079521118984 19.107367290030975
Sr 13.92204847041812 17.88924906771853 14.808810448665735
Sr 12.71941138002929 14.659463343830106 0.061214141926208575
Sr 15.305998025256208 10.898026938423845 11.571275710714273
Sr 14.715835427247303 14.69136249714568 12.551730210814515
Sr 15.996491240999264 12.326499112796276 15.600395608375395
Sr 15.068270628830607 15.52569448331976 18.03715150376089
Sr 16.01767628054756 17.015098563242447 0.5123737357567004
Sr 16.693461535726478 19.20668474071843 17.87922423756947
Sr 17.76850952661558 16.135112607440924 15.227886022850146
Sr 19.861095479908396 12.830786593009769 16.601451908795884
Sr 16.731276122076096 12.770450713451128 20.087420506185754
Sr 19.120484815457587 16.03557741467568 19.067393887083252
