27
Energy = -30.15518823 eV
Sr 20.916210280831432 15.927889918904587 10.147691526588526
Sr 20.232004923885427 17.419950737618628 14.40853556083137
Sr 20.84161710287905 13.196744830599908 13.298738546093475
Sr 18.251863848196766 19.031057764367592 10.867325272793884
Sr 16.996255289183658 15.913035046144365 8.358694135563294
Sr 18.56622724768531 12.303994909445267 9.875089809018071
Sr 16.24281486481905 18.997191043845767 14.483012109269056
Sr 17.66734452023987 15.362098085665446 12.276617259640226
Sr 18.46070341470318 14.161932119214395 16.567213121443192
Sr 17.930703528305916 17.953334614381443 17.976633348815476
Sr 16.91471158893019 11.549768410410373 13.667420808990975
Sr 14.265131182515272 17.506098545950273 11.184014870938835
Sr 14.825016669500222 15.110010541714384 14.970700023765062
Sr 14.432826684062809 13.387248037357658 10.888685512553952
Sr 15.54071466822085 14.96239438176278 19.5139502552398
Sr 13.663951179360698 18.099323634867122 17.649764693312758
Sr 15.227694764350368 11.384255482132327 17.458240945033655
Sr 11.973894689736555 19.15814648952342 14.15961303817385
Sr 12.694206018670545 11.472511186620025 14.15771443829442
Sr 12.08070914690385 13.886213996219654 17.45896204184298
Sr 12.746130130865016 12.148258810991877 20.997791597459727
Sr 11.604275067941062 16.166920524769573 20.66768252766915
Sr 11.196574070956572 15.279429799256958 13.133906502448971
Sr 9.620440103590225 16.850723025587108 16.837638115406648
Sr 11.064708235882154 10.038283643751809 17.75727400551632
Sr 8.82450868797261 12.754552423370589 15.441526590487399
Sr 8.837694215882559 13.2752591106875 19.575104027123874
