22
Energy = -22.91831798 eV
Sr 14.220093866320276 14.781543224003572 8.583999426584077
Sr 10.434566696498312 14.668885669656644 9.814138256293356
Sr 12.948119686293989 11.441994112517792 10.758669294226205
Sr 16.748608785596414 12.77109033504691 11.236552999558182
Sr 12.685531785019707 18.4136765312423 10.727141931213044
Sr 16.873308377087806 16.90593505925827 10.638763717181787
Sr 10.067702058622428 12.550099173649985 13.389152904893646
Sr 13.461362751957301 15.397098143020525 12.82704235932587
Sr 9.32459430696821 16.6618681126387 13.069691484946603
Sr 15.743424635001332 8.959025282515352 12.660410759266112
Sr 11.95919954766936 8.825925251741673 13.86249951744377
Sr 15.063633793109314 9.321607156799011 17.025454678917384
Sr 10.85297526881801 10.83109009017994 17.11261756115043
Sr 18.43597349728693 11.087259648727477 14.675316319226242
Sr 15.781928928974786 18.90958346635793 13.895865981630841
Sr 17.671028092280586 15.19602756306453 14.359075241922318
Sr 12.002371338709224 18.779747743064256 15.115251834621343
Sr 10.99148598847558 14.96485458245662 16.519634139729973
Sr 14.279842713466195 12.337781528292043 14.92900391925163
Sr 14.79503188861221 16.281362934374794 17.004883396297338
Sr 13.52798814279235 12.934983548306821 19.162031035949465
Sr 17.312778379202527 13.066045001011439 17.93676675175003
