25
Energy = -27.51418609 eV
Sr 15.7194295643989 15.03862367495929 0.06728533970623327
Sr 17.615310166109346 13.26069672473131 16.37188685403099
Sr 15.729533627079904 17.38430179118699 16.09338104488348
Sr 15.343950409704608 19.058681425216097 12.232124231833948
Sr 11.827552683631025 18.852916844705472 14.804643243586222
Sr 18.9927498219694 11.400916306015754 12.956082671542568
Sr 12.405450336642284 17.226057988964055 18.66072728327005
Sr 15.150836255674603 10.97352519562017 18.932412125854807
Sr 11.755051900456312 13.210764325478848 19.709554874738036
Sr 16.03436157483602 9.180832594401283 15.213440799437205
Sr 17.27270951238206 15.35633295020891 12.664739209868527
Sr 14.975761078436797 12.11916357852727 12.898558919887307
Sr 12.043449340611911 10.68422036505266 16.108146701458185
Sr 17.462328481758895 12.76732274952083 9.384791920688727
Sr 13.072438385041812 15.79788835269599 12.750259724250952
Sr 14.874784557828136 15.98111622302887 9.162175707599495
Sr 16.451862504844502 8.991902417051069 10.767554244599438
Sr 11.78413250112703 18.8012097895353 10.336266210553664
Sr 13.871463725088978 14.037457638177482 16.53384707719137
Sr 10.164844646501829 14.813700408933682 16.025030172154537
Sr 12.747378005851164 8.827800729134118 12.376808755738514
Sr 13.467071432563639 11.73685225281812 9.193142754556233
Sr 9.063323496443637 16.503373620135456 12.426068221913955
Sr 10.878996792300763 14.96212920413178 9.062366151762
Sr 10.80189144976444 12.54063633414586 12.466527747673002
