22
Energy = -23.1051043 eV
Sr 14.479950771938062 14.430580714414976 18.711492328575805
Sr 12.653042711996557 18.681338290031217 17.31062194936539
Sr 17.04466620890974 15.459788100052744 15.855437094907156
Sr 10.527711525756006 14.990659043394537 18.227841978954636
Sr 15.707319274142446 18.64013360450459 13.989745999183217
Sr 12.229306068570581 11.110446552460155 18.390560631193768
Sr 11.916847745295039 19.07563288187907 12.901386339492978
Sr 16.42213056223593 10.158200443372952 17.660864866079823
Sr 9.152656346077803 16.667229164884432 14.735868242712534
Sr 12.933496430542643 15.738538063515826 15.050937922445462
Sr 14.494863817650863 12.17563274580534 15.199244020868376
Sr 14.829352410100126 17.843337115977832 10.11255528998697
Sr 18.543423674301724 12.215017839207695 14.242847198751894
Sr 15.284021714321497 14.521502972991552 12.263671711916713
Sr 10.567451358614836 12.551548739509801 14.638611869104256
Sr 12.638979200867581 8.74301423027771 15.053726946657777
Sr 16.33414066617077 9.052424034840596 13.309418843219056
Sr 18.709532301015848 16.032233790545458 11.896315954050344
Sr 11.462557101129468 15.231062436508845 11.310071746316382
Sr 17.48187959177733 11.820911408901878 10.34432582909832
Sr 13.239561249718395 11.179470140234251 11.46974661854162
Sr 14.439855736484924 14.00724223830302 8.444234067358455
