28
Energy = -30.6176861 eV
Sr 14.885098903428426 17.92277320772598 11.11763551396689
Sr 16.32321923815467 14.389763014524297 9.577315621629843
Sr 11.112038492531596 18.28722397770433 12.742267408047514
Sr 19.226844163017105 12.678304940808378 11.818618176602458
Sr 13.634003653954663 -0.050487193294566045 12.918741128194734
Sr 18.89337437366213 16.948379948548595 12.179368659872809
Sr 17.788583497332183 20.88470353110139 12.591344693927844
Sr 15.58779596489779 18.4843206246592 14.921346880654133
Sr 12.537837967772013 14.457777100223696 11.468748490208144
Sr 16.126265709115135 14.515889215781323 13.607145831605173
Sr 12.382135923553369 19.83715790651201 16.641939509285052
Sr 16.47295375950573 15.627893336055472 17.666907593151752
Sr 16.144883108545617 0.689977028510791 16.161824993725592
Sr 15.993657615394936 19.394834684639296 19.0368250020363
Sr 19.82943370769926 14.626366096393683 15.535633255272227
Sr 19.23648430414354 18.8650398003939 16.16158981468286
Sr 18.55280909179449 12.483353224649923 18.98660896303517
Sr 12.967673904023272 16.706792843718915 19.404171080695956
Sr 17.835533386793216 10.892930710203343 15.259362265199274
Sr 12.624426243411971 15.74014181336746 15.426138546257103
Sr 14.459102716986136 12.254262860894364 16.670407534340377
Sr 14.470986461113876 12.879449462782187 20.473361377986436
Sr 15.044282881551093 11.077754516653712 12.001377740556283
Sr 16.141726112332236 9.234669652436843 18.783615622834485
Sr 10.742604634813686 13.533924331004936 18.24578914850304
Sr 14.225001753335487 8.51146140070487 15.112138154896982
Sr 11.376608303746833 11.604861338295791 14.395844410414714
Sr 12.013343823193944 9.698946937571595 18.43844384898235
