23
Energy = -24.30472803 eV
Sr 17.99054775284015 16.92594245488806 18.181244434121115
Sr 14.627817181385748 14.294117708606045 18.92960067542895
Sr 18.002801235521165 12.865523463233092 16.775963755840777
Sr 14.316362463179257 18.71240333641953 18.035549507404035
Sr 17.042320084001307 19.166716660414956 14.299112490689886
Sr 19.369330167491352 15.821629106364888 14.556319880498743
Sr 15.186783427004933 15.898353530892715 15.434732388939763
Sr 11.293721928892639 16.07467706810434 16.763725208169877
Sr 14.604739426950198 10.60272976827915 16.426640276992618
Sr 18.71963395449787 16.599600541001532 10.864132399245385
Sr 12.759257393460997 19.07533620161804 14.197823697111758
Sr 11.165972941235033 12.135638511559339 18.244539455147702
Sr 16.236852350422794 13.070319447036354 13.013479171282286
Sr 16.91660694996956 13.424818689534698 9.137150685513857
Sr 12.32510501196743 12.998205048913684 14.35365621297383
Sr 14.700460268698476 16.70462360513134 11.458423896247496
Sr 20.143540307354776 12.742426477578848 12.049860016458736
Sr 10.547357240714849 15.939659121653143 12.50009559294191
Sr 8.455361147755161 13.225027417194974 15.297327492933467
Sr 13.5998736065288 9.86945097513621 12.214881544815805
Sr 10.574233291307815 9.471922675722064 15.141657114693988
Sr 12.928034165810296 13.360860683744951 10.203944173748983
Sr 9.596777735335957 11.556020972623633 11.695366167381037
