24
Energy = -25.91146653 eV
Sr 14.55384919276577 16.78115408966662 16.060921512048587
Sr 16.459926826572474 14.269932774992744 18.85556201360501
Sr 13.068055427958338 12.952338224255062 16.878486656427008
Sr 16.33731243931956 19.738815834452236 13.940340833654224
Sr 10.567873457461253 16.334478036640736 17.116313892808268
Sr 18.616156112409282 16.4769714380322 15.896117900991674
Sr 16.1725648925551 10.08333127988033 17.706205101858405
Sr 11.660078787587514 19.347213621119632 14.171020560351243
Sr 11.867337535799221 15.519017545453679 13.397075004047155
Sr 19.928883892677227 12.64191517527431 17.308191761615024
Sr 9.376161869568188 12.717468503826046 15.166338526149895
Sr 13.964625343007867 18.608508397570642 10.834288985859434
Sr 16.633707791560177 12.925349280944156 15.065925055914162
Sr 10.112647100720105 17.5695908570912 10.397793390159705
Sr 20.044321813286654 13.678010828633623 13.146114310342332
Sr 11.853011359664844 9.160534942907457 16.086297510698223
Sr 16.3584944079937 15.840567699600772 12.414183102452174
Sr 19.115379168309058 9.815616515403349 14.382892797844052
Sr 8.032331018049303 16.561138433443297 13.848565679950745
Sr 13.283188947112015 14.537449798045838 9.796208366337446
Sr 12.780091054184382 11.705393825312804 12.907250456266139
Sr 15.272739200523803 8.748559349421765 13.907820336709893
Sr 9.320481586840614 13.5447002911078 11.074356825924898
Sr 16.695038292149803 11.773899086874545 11.248973475274346
