20
Energy = -20.65059458 eV
Sr 13.479767899374425 13.51310139730534 8.907276575031727
Sr 16.723843972664557 11.579468365682677 10.194595479293689
Sr 16.17501327215018 15.226344776717422 11.834652837209967
Sr 13.157416314301095 9.411551736636081 11.09362506157982
Sr 12.163006115905008 16.459908892977822 11.4803510103215
Sr 17.860439237690947 16.520306169647252 15.399389637793428
Sr 13.307881417547021 12.632950960070858 13.076439635669365
Sr 10.008423051321973 12.800289533569744 10.766139274928845
Sr 19.34135031397661 12.979769794499846 13.128435521597178
Sr 15.137218681146152 19.034003762367146 13.269398370973233
Sr 16.271623512790445 12.617727406479018 15.837078820404633
Sr 17.062593193675415 9.423150049847708 13.392186243137834
Sr 10.10983082154361 10.434806104047151 14.23834089094213
Sr 11.329623442463001 18.875363279826143 14.915093653227952
Sr 14.772901947068537 19.030321263797614 17.45342096874077
Sr 9.979738891639444 14.760679049616883 14.574390348051496
Sr 13.842870899820888 15.88906084972333 15.244674878640954
Sr 13.716439281347604 9.146185034058872 15.501827092515116
Sr 11.345998407849223 16.53813689357705 18.324185522059427
Sr 12.249129149611042 12.531422739374252 17.187352559123248
