25
Energy = -26.92788819 eV
Sr 10.82154208728722 11.732621287271078 16.801790825699147
Sr 10.511902892625036 12.534179887742065 12.786604620564765
Sr 11.665298165733843 15.489378063550108 15.499919752825456
Sr 12.694251171596914 9.41841588405556 13.988240218659142
Sr 14.816737798235884 11.134718588330546 17.121136615785048
Sr 12.999135662012383 14.339780945658749 19.46149854161699
Sr 12.299097576326597 15.8211776356505 11.249828843038335
Sr 14.814007683784867 13.468101082062322 13.722253135250359
Sr 13.462841788916075 18.49893358137173 17.87818924206185
Sr 14.12935032476402 11.73528892166538 10.444949341650252
Sr 16.676236540328564 9.564170207593646 13.635094735303285
Sr 14.766722247497508 -0.06309432257425307 15.41496796090292
Sr 18.68688424981025 1.022418809284351 16.175527457148487
Sr 16.021794595597402 21.577640243573555 19.40284324872904
Sr 15.872234847553297 15.267425548193524 17.0143525271951
Sr 14.664715368514873 17.78964040900801 13.947959275482681
Sr 17.756231126332413 20.10261313623485 12.78076417635731
Sr 16.424582406690917 17.279073140914125 20.446374683380363
Sr 16.30434119645398 16.227099667130826 10.579309498049588
Sr 17.163565500837898 13.063557860979255 19.991829480904755
Sr 18.577597626817106 12.381704639289623 15.921808071468043
Sr 17.400007492448694 18.994143719746642 16.74695719904094
Sr 18.273223906457766 12.686080146905432 11.66544839392484
Sr 19.71456350903765 15.834329141323822 18.171043744965186
Sr 18.544144488941054 16.098619889975602 14.025482898751052
