25
Energy = -26.69151998 eV
Sr 18.458718808432682 16.55781361920855 0.19437439298452483
Sr 14.831747621476236 14.67407999538716 19.217354690424795
Sr 19.62617705331203 18.78201555693647 16.75059824241229
Sr 15.581480794078074 18.442449534680133 17.647959884541816
Sr 11.665521447185087 17.389001077296292 18.437503387683705
Sr 11.22632462848155 13.149042118580198 17.61845266289208
Sr 15.113178568874103 11.894250938743824 15.945197136636653
Sr 17.709420780188367 15.147499576627984 16.22223163798295
Sr 11.887051480051149 9.425069004458711 15.805009374338217
Sr 13.611673043431129 15.568338880255613 15.376526579945804
Sr 16.691614060025874 18.40747239302191 13.764639983961883
Sr 9.404753880000195 16.15767458612322 15.31781900060714
Sr 18.628626501618456 11.506504451798568 13.965062040607084
Sr 12.50403965462287 19.023702875453267 14.209630551784208
Sr 16.168338189642963 14.588856737830517 12.36503737222655
Sr 15.241337695052026 8.654729522189731 13.100987720791608
Sr 14.400358101242471 17.837531892835422 10.399423605512347
Sr 13.19807256304185 11.803316104269733 12.317022882951722
Sr 9.543634239141747 12.245637826823984 13.90377285480098
Sr 16.924358090881068 11.225017546866473 10.269603231976346
Sr 10.779031652479894 8.583758864231356 12.016018156264897
Sr 11.523844060818586 15.472851300663116 11.87637719798708
Sr 13.927920166780565 13.847874628654056 8.856569629191053
Sr 13.459879573427171 9.515920678317618 9.019415993160308
Sr 10.167914043689988 12.071104073048115 9.715108423630845
