25
Energy = -28.03425112 eV
Sr 13.229078573397011 12.792909857767178 18.75828825180922
Sr 15.756757800683108 16.51647476006197 18.19792200971941
Sr 12.909865249281093 15.303381468988896 15.598940502941932
Sr 9.53068245736328 13.295164580089207 16.594444279243216
Sr 10.822023527447014 9.320665925840135 17.662916817211745
Sr 15.044905031404419 9.148669809796285 17.242324658772155
Sr 13.60564956545976 19.309297079273 15.705741376890325
Sr 16.39635358667146 12.98508192078677 16.010661706193243
Sr 19.564390873609494 15.789042908623324 16.231855775205325
Sr 17.889297482088807 19.701221371844706 16.102086145546497
Sr 12.732530805339342 11.374313918743386 14.932205946594674
Sr 9.674614917043549 17.418626779014254 15.058555576182076
Sr 19.702604757867018 17.925709123896116 12.558541177686749
Sr 16.338609336842683 16.689605741397784 14.131953459338344
Sr 9.219009885676824 10.037511405640998 13.785986514443195
Sr 18.66163391556022 13.68542748542946 12.544557082128362
Sr 12.65368797671528 7.5341625923233915 14.12347232863199
Sr 16.083034382153976 20.153354845701134 12.278023275569428
Sr 16.13660019165252 9.962467012126924 13.112430007381501
Sr 12.816826826168175 17.347278702390142 12.011980465762225
Sr 16.500039608436513 16.47613749530576 10.049835708460224
Sr 10.512447430963668 13.950546788677206 12.511321329227407
Sr 12.4299968494142 10.477970563921188 10.95000178993858
Sr 12.84101658731479 14.330502583386675 8.840223704500541
Sr 14.628288009679778 13.626117935613372 12.245247935691454
