26
Energy = -29.05006624 eV
Sr 11.19492503665676 15.858247204484146 18.60887646016346
Sr 12.58221781267088 12.092034400923357 0.42088176904856917
Sr 8.847147032512689 14.794270232680626 15.214995318519374
Sr 9.315165212826772 12.031957289433812 18.125532389881254
Sr 15.648959649348669 14.829288468451116 19.375938961016498
Sr 14.356554150410192 16.79744070265467 16.00348679304811
Sr 10.661926933345923 18.307071582087687 15.081121650077716
Sr 10.687208278876337 11.26936915995931 14.06795310432643
Sr 13.09824144938439 12.832931907388737 16.94454120516463
Sr 12.142361412622186 9.048513722218033 17.608606243533714
Sr 10.510155889036815 14.816086616872518 11.414914490050839
Sr 15.927526614261053 10.552576987916295 18.634461039752274
Sr 13.753165415763227 13.916244959024219 13.260435815498733
Sr 13.324927805058907 17.89264710689884 12.051667091260052
Sr 13.09249103189468 11.22797715710536 10.51946832740643
Sr 14.750283994851896 10.074174734058033 14.390880851016147
Sr 16.33243900730743 19.993525742760657 14.073716813276151
Sr 17.003981107228597 13.3473126672417 15.724202841918503
Sr 16.982531284175124 16.237691719854645 12.828450163149398
Sr 18.53156090049174 17.1253658111649 16.4642702349271
Sr 16.80697501079794 18.918618590628498 9.957086416830109
Sr 14.831604462880787 15.017574956917384 9.496073008759357
Sr 17.164835940316205 12.26582780853614 11.64050550741498
Sr 20.12631689840951 18.54858873747075 12.5953337099595
Sr 0.15894344232331845 14.464357905125105 13.576256534266212
Sr 19.209866873409883 15.48497561624031 9.66444265991098
