26
Energy = -28.40192116 eV
Sr 19.202268934872766 13.881221027619027 13.214169718938752
Sr 18.731429315412672 9.963365360263888 14.782069234152756
Sr 19.408057730626524 12.918028749810764 17.499831970809375
Sr 17.426906533629808 10.261627450772561 10.829906839223916
Sr 19.145241555888965 17.10339533316322 18.372242697007845
Sr 17.353471240152746 19.0793405692647 15.126529415628877
Sr 16.032872545626482 16.443026105872455 12.200150837352815
Sr 15.531445560221593 12.345855609034544 13.553909013583937
Sr 15.170395773211402 13.63778555470348 9.565791743683592
Sr 15.036464663955423 8.325144989883933 13.879027477046545
Sr 15.623668724017124 11.05329186227261 17.290215425572846
Sr 16.57536088988928 15.291748339203389 16.0273713443059
Sr 16.267634371414612 14.366884586067611 19.866132158677175
Sr 13.030361746573375 10.40573831085533 10.890679896562316
Sr 14.864274585265566 18.008018810675143 18.399902472375693
Sr 13.203280137735643 17.619037196202484 14.658552458715786
Sr 11.079895587086348 13.546246754641327 8.662788554386685
Sr 12.229563701031037 17.445229188668428 10.38127690291779
Sr 11.926986452263042 10.940707882899124 14.920199693244681
Sr 12.185093681362694 14.219280861669663 12.470925610672309
Sr 12.90639535297425 14.362274730234581 17.127743185003105
Sr 9.133086985456616 11.589955710868995 11.89955611883261
Sr 10.533394539957566 17.78072410589437 17.686844378503036
Sr 9.375774428512953 18.461190909031583 13.690334841507267
Sr 8.420212569235558 15.572613376892969 11.098597111294792
Sr 9.247318949736236 14.562784684191522 15.116718091665621
