20
Energy = -21.2515468 eV
Sr 16.583694778138543 15.865850388637808 10.923555757386866
Sr 14.78625398527226 7.745064448291958 13.033654731114957
Sr 12.895973906363201 14.225646153133246 9.832477518998454
Sr 17.48116016739293 10.09615702987723 15.120546728358022
Sr 11.98005817211742 19.27639712770032 14.644282079529756
Sr 13.888537532758225 11.481532753332754 14.30711449634963
Sr 13.245007020724987 15.624881486151429 13.456272195382706
Sr 13.997604174209586 8.54444520696567 17.084928123624945
Sr 10.903895384403691 8.915013421576681 14.384781295716238
Sr 11.392270199076481 12.299275357636557 17.183594808769723
Sr 13.772492324493824 16.00955619104671 17.2916612953203
Sr 15.467361540566806 12.290337869133566 18.101421638800893
Sr 9.839293390617048 15.917046972921518 15.835969318222071
Sr 10.303566506073459 12.868561732177263 13.03315351860102
Sr 9.921404294069855 16.871916648333443 11.739701918589033
Sr 12.388962309486663 10.170330801889717 10.651515076889252
Sr 15.977722689675206 18.34444861916746 14.275979602874576
Sr 16.820990261141308 14.226761945632964 14.724013843109153
Sr 16.252649514763203 11.718242617344197 11.21669767311404
Sr 13.523287428761536 18.653657676505954 10.787592628064115
