20
Energy = -20.60553376 eV
Sr 17.81470807912677 10.111602285494381 14.773327772800133
Sr 15.6340069561846 11.224361281025672 -0.8332721502287075
Sr 14.353143047860774 12.107726046907773 14.645836267615957
Sr 17.76679861889165 14.053770155223441 16.157915176887553
Sr 15.152369341665974 9.663474273038753 11.552044206704622
Sr 17.225464338306658 13.38699975404841 12.118759587334347
Sr 13.452793000801698 14.928584675676971 12.285294577563295
Sr 13.847163425046302 15.026908609167922 17.183612002921805
Sr 11.525695275435169 11.587438029133539 17.555465523150716
Sr 12.060360396305773 8.87688565193224 14.383922501627428
Sr 14.786673263991382 12.644422866329144 8.848987008763716
Sr 11.477244708643367 11.68714267206144 11.21818276496131
Sr 16.054655519498606 17.17632033825882 13.998953721147096
Sr 9.557183096092235 15.039699784633672 16.684703551078705
Sr 11.950441274456644 17.859459239206867 15.01484980535759
Sr 8.879923093754673 11.689675069914964 14.392838660479242
Sr 15.878237257293785 16.546236106632225 9.612409660450977
Sr 11.69259957447036 15.292493900227642 8.743982629092327
Sr 9.56449046490053 15.407653562797684 12.485359505660192
Sr 12.621922017148666 18.589301153031254 11.129747142641609
