21
Energy = -22.88359313 eV
Sr 11.675749012389746 14.365818626959035 11.701413947786772
Sr 14.404193874848364 11.563633639019194 9.927595273776447
Sr 9.899841759097646 16.973237542173973 14.338300458535228
Sr 7.863557300893734 13.290773720587278 13.12544083742148
Sr 11.15113652568492 10.380783093987377 12.582898260995444
Sr 13.107241291594503 18.42292368569135 11.762742525240919
Sr 10.937429037698148 13.151676403766979 15.688134205102877
Sr 13.080108998729987 19.767755371760554 15.698536085058267
Sr 11.746489755171774 16.53228017890711 18.12365400803948
Sr 15.997468947076491 15.259455476100047 11.426846692637389
Sr 14.533355406966777 12.22756041409035 13.789941744529198
Sr 13.796773192530885 16.05399911932334 14.819344649093994
Sr 16.923488502412464 18.441534641897075 13.896397357194015
Sr 18.179725998430953 11.815764851695084 12.114473762460317
Sr 15.217552746383017 8.55791088720157 12.702758070847244
Sr 15.864591525627887 17.40213108820378 17.87896406283485
Sr 13.100169110091306 9.52297432836127 16.254888723499487
Sr 0.13260402329035262 15.767405774711623 12.342858523753943
Sr 14.548903573809143 13.26752657476626 17.820665188865075
Sr 17.650741653474302 14.54149103484601 15.282118262279727
Sr 17.22285182909309 10.376308598974576 15.986539156657514
