20
Energy = -20.85484181 eV
Sr 17.52505307493962 9.217850526841215 16.124987217329906
Sr 17.776072186222382 12.6869285150466 10.102647231830158
Sr 15.099398880584156 14.542303560136425 12.504420835968984
Sr 16.177859361450082 12.751175019780296 17.649417040677918
Sr 11.743980577461441 15.957136102022279 11.161225392339022
Sr 13.654353512210951 12.407831066365954 9.462905953949267
Sr 18.53527986072936 16.438952326885737 11.897743418979612
Sr 15.547746513577126 16.02943308926855 8.806884701513532
Sr 11.396595785042944 12.014599148152548 13.025682082377035
Sr 15.004708923539194 18.54407068783347 12.04669129255805
Sr 13.271180496977102 10.146469247382024 16.503697098885958
Sr 9.199312119433484 15.307394150618924 14.44902699275343
Sr 12.573770903833207 12.7953653675202 0.1094247995469271
Sr 18.447546627147794 12.975220025620272 14.261773715178881
Sr 12.23805324045257 17.954671752587682 14.998922130916464
Sr 9.597483756327604 12.124430205481696 17.001658238085746
Sr 16.30268263476857 16.572999498773047 15.704434191569032
Sr 10.346511975033081 16.13027514240601 18.40179014554453
Sr 15.378389784345499 10.611769412765764 12.964997512704686
Sr 12.84003477158159 14.175688226718142 15.996106016729879
