22
Energy = -24.1298887 eV
Sr 9.471922868583189 8.550907997049809 12.01364936267801
Sr 8.549005721392119 15.491195730238111 14.565987219595296
Sr 10.426240515444098 12.562447636378314 12.065268664562256
Sr 8.583765653003233 11.124889148979067 15.313090048684344
Sr 12.1117341058656 16.35224245764931 12.574364182219128
Sr 11.942343924593722 17.712197396222173 16.52584906666501
Sr 11.853592175058594 13.633549290873958 15.851469988227523
Sr 13.169608087169287 13.982059830560635 9.139085312162726
Sr 14.434663260495231 12.868425097128563 12.701358740240433
Sr 13.208096791408938 9.836877247561285 10.396745196869958
Sr 14.800971106925624 19.444950634825613 13.777152895561239
Sr 16.163442748570013 16.238591327198613 11.183646708601795
Sr 15.321447875329051 15.83022396397938 15.21206454316745
Sr 12.507584765683442 9.744322967524573 14.475568218615688
Sr 16.098448314224868 18.73386263093972 17.69646461553656
Sr 16.89954821708256 12.211818710745257 9.742947611429893
Sr 14.334008520862897 15.122177772857572 18.99230527544485
Sr 18.659559372394902 17.75403009382967 14.351552493501115
Sr 16.59459146422858 9.576673574895274 13.035399975042866
Sr 15.727419876060425 11.94019606140117 16.438197623688076
Sr 18.369028912448517 13.529709272610878 13.572975698798018
Sr 18.403764395028617 15.093552126802022 17.592593165047905
