32
Energy = -37.37398568 eV
Sr 18.533103971957093 20.60961445314007 15.221170462283698
Sr 16.697642200177327 17.722136021884644 17.46811557771504
Sr 14.461663274913045 -0.04902157058339955 16.648222160540385
Sr 20.525849869937765 17.840484511065274 18.19394158646187
Sr 15.457489357531953 1.0393147359918702 12.497616532947262
Sr 17.59293573951048 15.916157542900295 -0.09687026213558263
Sr 13.847804609427229 17.993347698781328 20.433052306686786
Sr 12.612981891613003 17.29434850766767 16.48197338175757
Sr 18.244832500741804 19.340167854103782 11.055913536960945
Sr 19.200665907436157 16.60248626610188 14.235489795336207
Sr 15.450977125830775 18.481439873938868 13.669119836868806
Sr 11.846354812417463 20.07648165799771 13.300203347563277
Sr 18.67622761830346 13.985028666610852 17.479546875619857
Sr 15.622979316777677 14.81549894626822 14.947236794576192
Sr 13.864751140332041 14.089681539999164 1.3478395587138587
Sr 14.130071963426401 18.633097140115332 9.874751830298901
Sr 16.717491002390876 11.676380669195586 20.541203061121625
Sr 14.632382988086801 14.41377073483329 18.695167806008534
Sr 16.53031685415412 15.404266637290272 11.028579685897773
Sr 10.821613710689165 14.940168241010596 19.631699750993327
Sr 18.426667131246568 12.375212874301937 13.386561703896993
Sr 12.452681324395227 15.85143076729421 12.49760575533456
Sr 15.645006941119059 11.036833729919051 16.429689244016014
Sr 14.338646679736776 12.117786961316154 12.55071604483894
Sr 12.59334811423159 10.977108504558151 19.301907856975014
Sr 16.783845942606956 11.357111703470766 9.538933416102152
Sr 13.250215717918621 13.767242368912028 9.009231907790339
Sr 11.904257728966192 13.157985831951292 15.81481485867297
Sr 16.244042588588922 8.668572806242455 12.849282654595083
Sr 10.442138994477911 12.120963320844064 11.93567576025132
Sr 12.328415733285194 9.236608953989627 14.620972612102038
Sr 13.054182593042567 9.390505452773208 10.14577920624899
