31
Energy = -34.75940094 eV
Sr 19.078380939395274 13.206016095613238 9.682529783262193
Sr 15.015516878184556 14.387585474881183 9.25011977364029
Sr 18.324233149775377 17.28611377683774 8.612208351593113
Sr 16.162160225489664 11.755630054673631 12.602862405042002
Sr 21.24910116228295 16.397261603174478 11.504321073326494
Sr 15.02658906970438 18.910650963733662 10.57505460940042
Sr 20.0065080291684 13.137195802456272 13.885230338688052
Sr 17.301538799368853 15.730851441461935 12.116007710329258
Sr 12.807052807152541 16.08631992936621 12.198795564989299
Sr 12.062590624392731 12.29962961344841 13.23282979441602
Sr 18.61634825734583 19.638943269613797 12.500446817254794
Sr 16.5967002848485 14.04544350316108 15.87530873868046
Sr 15.460144249889579 18.03362739884781 14.758907826528903
Sr 19.468422681855195 16.98541779449776 15.377982360109689
Sr 20.295781841242714 14.134432232508857 18.065195062681315
Sr 9.222849039109382 15.444706953564145 14.3360485636664
Sr 12.788793621893733 15.271651684623615 16.007003973909082
Sr 20.596808930484563 18.216063250003728 19.18348651448844
Sr 17.80248341588006 20.320572424328457 17.06983827101663
Sr 11.413981552450712 18.968524689880546 14.882686432236696
Sr 14.114200685242231 11.098308066066036 16.652317109807086
Sr 16.814022635934485 16.440634453002858 18.861167153954582
Sr 10.179252711447173 12.546948830753307 17.15718115997816
Sr 13.861607126960429 19.183408972217624 18.319769541615184
Sr 10.186653674987413 16.854195757810555 18.46938602329889
Sr 19.44894871624736 15.464438123194457 21.931658320051604
Sr 17.05409632200046 12.402511149877215 19.859693922794722
Sr 16.962554817657626 19.1583138000966 21.52811734463947
Sr 13.279725868858716 14.062282368517184 19.66355662321228
Sr 12.765535922634463 17.623077829052683 21.83598846997172
Sr 15.627622047491757 15.0249135217157 0.7105863014524487
