34
Energy = -38.64771983 eV
Sr 0.23913263908056892 14.296638784351257 13.262038843797393
Sr 19.192771757072222 18.633369170745713 15.14843250667369
Sr 20.13787416817328 14.994324823042145 16.92585746485423
Sr 20.189952480269877 17.937062837441374 11.302852250977645
Sr 20.100446946563387 10.94720153353606 16.414403871192498
Sr 15.324279919232465 16.455443399638703 0.7559619160193434
Sr 17.28239287530792 20.875804925125443 12.029670390184478
Sr 18.158781483146804 11.625881581542256 12.707236392811232
Sr 18.253341570824883 13.478109801048223 20.224170426908888
Sr 19.16563719491233 14.354826276719196 9.68815181863543
Sr 17.294813017535 15.409026255061132 13.491498746981653
Sr 15.056280168327502 18.68516094795217 14.696342621098323
Sr 16.57407559263643 12.622313648416982 16.52967739990055
Sr 16.296164148301173 17.449808220503094 10.065311431002119
Sr 16.457433289065325 8.7981609439517 15.11936522569171
Sr 16.550940314170003 16.521231886318375 17.91611756852876
Sr 16.89685005268024 9.673014438156441 19.19337701277937
Sr 13.187703557718402 10.147554091241467 17.169803055867455
Sr 14.208769307445742 13.03358280742551 19.863206498285667
Sr 13.045443274130328 19.727537753452417 11.096139371748729
Sr 12.970136729042972 15.162894518892939 16.519211088835515
Sr 15.216709529147355 13.379122426009461 10.01694446170989
Sr 13.091587221333123 15.916148237874344 12.345127803019517
Sr 12.967638337144342 18.592882061549222 18.6564584152195
Sr 10.980099321410226 18.5153698229477 14.692723280368778
Sr 10.112674643784123 10.39182284917142 14.342878492454291
Sr 11.31867896554462 15.604432421805987 -0.03637626355323176
Sr 12.638397334443928 16.31899256285493 8.389474129936856
Sr 13.786733586552586 12.06544424822271 13.642703745207992
Sr 10.136409436391917 12.69333906068622 18.072531674719205
Sr 9.48992414076847 17.09500008176699 11.020918857653198
Sr 9.16862500227641 16.772751087950127 17.860488196788488
Sr 10.907685273763887 12.978835285659779 10.666502590294352
Sr 9.668607391492209 14.482493817651392 14.310927553605966
