32
Energy = -36.36051855 eV
Sr 20.7019165712895 17.495108831155832 13.592780923574885
Sr 18.852286867330772 12.526451992664674 19.100955427350613
Sr 0.23717861013136218 13.364820357423513 14.539008651452143
Sr 18.706061766769988 16.076456181337566 16.94980964942908
Sr 17.19309975582597 19.54691903025407 14.644416734064407
Sr 17.609246750537924 18.235787403304553 10.733843124057833
Sr 20.358692357053823 15.0189223356788 10.351246545058412
Sr 15.824917141995337 9.568987919761488 18.694967505363017
Sr 16.601936381884673 15.990045049799647 20.463682359117122
Sr 17.52033267268773 14.954847129198317 13.335317122940127
Sr 16.087121875908654 14.554927903309787 9.557162108849608
Sr 18.69338718276789 11.494660607480016 11.333787715741783
Sr 14.753834631250115 12.120896801352513 12.450765647580015
Sr 17.60657743261387 11.054512041385129 15.259770365031631
Sr 14.962957959717935 12.464829325370212 0.6827991419240718
Sr 15.309661180543934 13.402653159282764 17.452014440206607
Sr 13.696658763475373 17.962616683530783 9.04262599123691
Sr 14.239891949527633 17.296664038310173 13.014965530931045
Sr 13.41544613796056 9.590456041108322 15.258701539110238
Sr 14.575562005833568 0.3380710645560153 11.51774247243875
Sr 14.783251001985779 17.424939071920072 17.03517839035381
Sr 11.983176857454115 13.386587617709068 15.13077707208175
Sr 10.80484073985887 10.952475237816229 11.987692805900878
Sr 11.911677870505649 14.786260794974192 11.040919652414898
Sr 12.363094457598645 15.34424253459281 19.47324510526368
Sr 12.958567840014735 20.622118652573466 15.16057952731752
Sr 11.915398946401188 11.283342840686311 18.736383773453337
Sr 10.685090705446598 18.816595664481046 11.918082076931158
Sr 10.857227430700842 17.13167361028206 15.709565660544975
Sr 9.138089517847265 10.469384608432476 15.615579857276861
Sr 8.497856010954706 14.38009191329665 13.402387930023382
Sr 8.833430380303023 14.035872309285702 17.612120350329093
