39
Energy = -46.10525611 eV
Sr 1.3413338372036854 17.731120611962314 18.935508643013033
Sr 1.3779439919714742 15.187298727083249 15.592265502169171
Sr 20.613846477800873 13.876715890135712 18.48050746071221
Sr 1.1711709339703382 19.288220171515967 14.801164106163391
Sr 19.149166079388845 9.88162695943236 17.16508177698681
Sr 19.666714535679482 18.368419100732837 20.622148159690834
Sr 20.615371890717086 12.613462375975159 14.255932138262148
Sr 21.277011740885353 21.17715286624933 17.815813513528933
Sr 16.75877724350463 12.027970222247799 20.035914448155015
Sr 20.423052196088136 17.448933413718326 16.669718816853926
Sr 20.678458755048226 16.60329423134476 12.68259624149592
Sr 16.99196312879179 10.262961700554296 13.28501670575404
Sr 14.872072294050271 9.868506847591506 16.97904478112476
Sr 12.656302610325884 10.787504026756306 20.45968461129569
Sr 17.194496109327428 13.107096618319016 16.12106337374881
Sr 15.057880276778251 18.979217638674506 20.779304306483308
Sr 16.984338519135733 15.960483504185483 18.85304445947535
Sr 13.688767366632941 15.015830514156526 21.540733304187462
Sr 17.27384686234182 19.962062308770683 17.503339780792775
Sr 13.585573456827852 13.67100809074606 17.963214109120187
Sr 17.32748144362905 14.076434251995137 11.989380660811467
Sr 13.96235924696704 17.5877638441413 16.81606160507762
Sr 13.82289474467341 12.808946108974624 14.113421639768225
Sr 9.938746270120674 13.813817604933654 19.688430864160768
Sr 17.059751920001634 16.943108626569284 14.64841708945224
Sr 10.774535624188314 11.194802198647935 16.406615981713525
Sr 11.08783753877338 17.90185466516723 19.30450966220371
Sr 19.281672500158987 20.30912206107574 13.924761777344179
Sr 13.270656938172637 21.41160538172197 17.864922864440288
Sr 14.923911731840183 20.47519419162524 14.012081067761892
Sr 13.189348897337018 16.528009522954974 12.756461989863764
Sr 16.455515067598995 18.066696182873322 10.791829631891083
Sr 14.014399833713002 12.693191254151857 10.1247184429867
Sr 10.517990134697026 15.337397380157329 15.712729194702506
Sr 10.936887692210846 19.476072758370165 14.996321846522164
Sr 10.360054936944103 13.267055003915939 12.069011500688418
Sr 12.175278931227286 19.909602971879778 10.900312199015957
Sr 11.757120854976893 16.102524597474005 9.009753853576663
Sr 9.130244827258526 17.18202928889799 12.024933618359317
