30
Energy = -34.22212362 eV
Sr 20.414928132994298 13.017686355996572 12.817080143745407
Sr 17.714195064041984 15.355880816418082 10.428891575406748
Sr 14.331362560565115 17.55977072437942 9.065490361778862
Sr 19.383107257588293 17.265708248886916 13.75692640724177
Sr 16.814554319141173 11.044696713972268 11.539394135374753
Sr 17.507654730685 19.674593557456724 10.816527942877983
Sr 19.98798033193352 14.118092016358455 16.746456252030132
Sr 13.858768342298063 13.968468513103042 11.157557241537416
Sr 12.731384417224785 9.933028030491249 11.047148675106863
Sr 17.9446044399937 10.432005612924874 15.525507357559311
Sr 13.499948540777059 20.715465153873723 11.70607677957187
Sr 16.962356969596613 14.125906361705251 14.247829903958984
Sr 11.185783638167978 16.9935472338618 11.996491163030683
Sr 15.019692090380968 7.841032686033549 13.876462771845677
Sr 15.151135425108098 17.380486502607653 13.034281555374287
Sr 13.962177658123876 9.571766014227663 17.8578548491307
Sr 16.276352556454974 20.561661800247922 15.025548149462665
Sr 10.339237972749327 12.941821060452375 13.050633010614689
Sr 13.927869815007803 11.592840773433688 14.524874623780798
Sr 11.034542193968333 8.962538197172444 14.743953035483882
Sr 17.083977113545156 17.104942505269232 17.157385815642435
Sr 13.381944064482761 15.423260305362977 16.384663037085954
Sr 16.211834953928072 13.022881528130862 18.210662725618022
Sr 12.146801025368974 19.184529598154413 15.391262585683016
Sr 9.30135798319275 16.075641036650246 15.632648070520192
Sr 12.878189895585061 12.857325767251218 20.495683583129555
Sr 10.739137891825376 12.409956383931776 17.14871615947655
Sr 14.271039278403398 19.54480001475663 18.751672119616433
Sr 15.21230592907665 16.137470970449783 20.69934848809018
Sr 11.177832579950842 16.65032189633284 19.435638861863662
