35
Energy = -40.83987518 eV
Sr 10.468608439566816 17.867007982753933 11.201310318196258
Sr 14.44830505593212 18.877985073806066 9.972154668527109
Sr 13.616763335194653 14.881371487449687 11.100733721045092
Sr 15.056201509927941 11.055888574954457 9.725803649116461
Sr 17.26605547314565 14.67247459556644 8.98341945693003
Sr 12.163942666740484 0.37617315328507184 12.602908569274557
Sr 9.964081317507418 18.904317867390734 15.330597250363391
Sr 13.301202114798057 11.545542368534027 13.61078945049184
Sr 10.909350811927887 14.898155758886706 14.337584318949672
Sr 16.392663360993843 20.903069268735926 13.405857409927389
Sr 19.23934175353876 10.952691609758494 10.192643960838412
Sr 13.494556636374334 17.953913251939806 13.73365122835642
Sr 17.160862467723067 16.976094747115887 12.40065141308852
Sr 16.947484447792846 13.033552431043919 12.623129163899275
Sr 16.665733955481006 9.063363848417051 13.178470092755305
Sr 20.54408903175704 14.727209569346678 11.837594044653288
Sr 9.784293741438423 11.093227513409781 16.027892194919538
Sr 20.17414938182815 11.25553085303522 14.426780030975678
Sr 20.106332995017887 18.82843803386875 14.681768264512835
Sr 13.693151232617536 20.918825519659293 16.62880735193528
Sr 13.45420718804156 9.085141142917724 17.01679967406311
Sr 9.468136126173572 14.730020450920943 18.30759300542963
Sr 12.980924118716196 13.056199956346267 17.364946789463154
Sr 16.512879263087367 18.038248826219082 16.26417468122473
Sr 16.573215870528937 11.691018702210332 16.351721662686455
Sr 17.992346258224707 0.2873230781600756 17.48832226751797
Sr 18.913888788455342 14.967023528870179 15.61686279602429
Sr 10.98006016620312 11.0117907869205 20.064860226195282
Sr 12.82529556303796 17.003472212905717 17.58313896151229
Sr 19.613013540431925 12.610280228364187 18.892300135511874
Sr 15.587564207726139 18.85289401905253 20.07709401488238
Sr 12.852853643210267 14.783101065149895 -0.07889837704034856
Sr 19.561649099382734 17.54898650222146 18.82381337244741
Sr 15.31305014301215 11.288427919731731 20.23829105676786
Sr 16.282377146486585 14.984123390815522 18.75981112066225
