34
Energy = -38.8091198 eV
Sr -0.08886520707482701 17.74577280030711 16.762652731745458
Sr 1.1342143361673749 13.738961632476396 16.220791236806626
Sr 20.309583435199816 14.978359234907312 19.7822092225504
Sr 20.3641846088867 15.986577211426981 13.021798632894454
Sr 17.224003920187624 18.112942591559626 14.654429548113795
Sr 19.20706811459499 11.814761127942875 13.727671184626526
Sr 18.97540421062804 11.13791698676055 17.8965417838886
Sr 17.00850027753167 17.74613632639434 18.751882493339078
Sr 17.259047359909207 18.69505008413139 10.647588918614836
Sr 18.139656801561003 14.651343661490094 16.338940633701874
Sr 16.308386444198856 8.79720599158288 14.501263108899877
Sr 13.894171459750064 17.29040668136229 12.574703725525374
Sr 13.621443661051275 19.017523439176795 16.378717084148967
Sr 16.347728251332324 13.969919176269357 20.173255091303464
Sr 16.70972934432642 14.663546133559603 11.979732352530078
Sr 14.904026173836458 0.33652676771116014 13.11284424809712
Sr 16.61477787243788 10.741291047212837 10.732174969182838
Sr 14.622436722777477 16.313692330624455 8.542403059710336
Sr 14.762850235421041 10.97095197537582 17.76205299570919
Sr 12.958657168846749 17.275182621554677 20.16780118117875
Sr 13.007880454943079 8.985506513425547 11.444981386962743
Sr 13.097028366817009 19.943529014541127 9.648790760588462
Sr 14.056946646307727 15.036481685343327 16.950235355849266
Sr 9.819729448413453 19.310540319840364 17.53797055494281
Sr 14.077053669485311 12.095326755462118 13.92254026994202
Sr 13.160197338491713 12.981836876912922 10.138546834281362
Sr 12.343021538498327 13.112724113518981 20.504379346223192
Sr 12.11693946092452 8.720906766205179 15.36821033418242
Sr 10.875850227464985 19.835927235363563 13.343766503604096
Sr 10.671225235571503 16.304326920705964 10.57442318836894
Sr 10.884485211294013 12.278482405568784 16.796788564856065
Sr 9.472972449159963 15.491224664669382 18.861417015803543
Sr 10.176147494047209 12.09527076620565 12.746241155703995
Sr 10.663991209024926 15.959256082798122 14.837440483192108
