33
Energy = -38.60505267 eV
Sr 18.931129085020988 16.272631588018356 13.208864077490551
Sr 16.292584571069092 13.830161717432262 11.066499068051863
Sr 15.041700399170068 17.731456624814427 12.227437675222749
Sr 20.457594469053557 13.050891474931833 10.923943087403478
Sr 12.902906686749109 15.796007029909083 9.01834004353338
Sr 14.002206617003788 0.12148752198210379 14.610637022860892
Sr 1.3047583501019577 14.463130850828177 14.753963297412145
Sr 18.09290028916874 -0.30979128612735196 13.202383747705246
Sr 12.834038133836218 11.617921202185931 10.10681734113455
Sr 17.352613923282103 9.840835322908234 11.22873005811227
Sr 20.552217932401053 18.69158361173574 16.221823238670577
Sr 10.819228750467301 18.13519533559632 12.087347391340035
Sr 16.592943492551306 18.26642026204476 16.071785372252986
Sr 12.514108625523505 14.566923118560801 12.737134221254053
Sr 17.46239227493562 0.9758421493874399 17.17689659679541
Sr 18.639824675245077 12.05264177471729 14.400922832585977
Sr 18.022695773934313 18.51250134773913 19.734048262436435
Sr 13.984022397533675 19.677126699117967 18.7857661550772
Sr 12.619033423683792 17.297247442655184 15.747682022846782
Sr 15.713505635416809 14.689230766641742 15.015605628225632
Sr 18.94627487330861 15.006819109829733 17.40811842108288
Sr 9.2747267434045 14.285270569014111 10.678016849484544
Sr 14.53093143605969 11.06908901981092 13.872811010199044
Sr 12.424416827692163 13.281227502322421 16.618778015142595
Sr 14.95535480248811 15.590615587157638 18.956033156672664
Sr 9.128095680332931 15.180823302074469 14.99650423902516
Sr 16.829541542674715 8.19094961910081 15.448277631300455
Sr 10.70741856993871 15.833997883418215 19.12163225824239
Sr 16.074028760684843 11.648767991765524 17.773086749224973
Sr 10.322565126823353 11.286653395686583 13.788229359493265
Sr 12.607487343585474 12.143152447463816 20.369229819231144
Sr 9.102113039254508 11.892504974974841 17.94586699654116
Sr 12.610084401204126 9.302368007715081 17.104818761720207
