33
Energy = -37.62314214 eV
Sr 20.252236272950277 14.412166959467134 16.429854577858436
Sr 17.593899320396776 17.081209984670615 18.295042134350105
Sr 18.062183596656723 16.869953294412863 13.930309683093054
Sr 20.028758800239714 13.620189214652925 12.046478431432744
Sr 20.042371566599197 15.177160596543176 20.886704476657425
Sr 17.466244966059985 16.772214977841436 9.799357446044665
Sr 16.24693217564309 20.260692963785356 12.136663242384747
Sr 18.79082755075719 11.770018011622755 19.040542691900562
Sr 13.775450328722407 19.07903600344705 9.02563184658925
Sr 17.644327350584355 12.86145561988258 8.201503297746912
Sr 18.46901496111166 10.980144514602788 15.046441009209193
Sr 16.935343760139663 17.642926305268247 1.3579471164556514
Sr 15.854498533235406 14.006508858331266 15.921393031520578
Sr 14.746913589016621 18.70059787618565 15.754055176202097
Sr 14.23029130285367 16.817691355195834 12.26343033734644
Sr 17.939763516102342 9.89038018214004 11.11285228714473
Sr 13.86662512269936 14.835021885689772 8.732597677541337
Sr 14.77048277582645 19.66091048571253 19.7959692326139
Sr 14.172049509731453 10.742019190780582 9.578250936963983
Sr 16.177198293600817 13.36946613359126 11.86212147462853
Sr 12.007543479419212 20.085068245403342 12.997195127277767
Sr 15.967457020201342 14.143600920005804 20.688700089779445
Sr 13.368318611347252 15.957250273245482 18.292218996917633
Sr 11.137848430128626 19.281946329303455 17.89079464968487
Sr 14.520940849890584 10.336345247316014 13.92067305356055
Sr 10.580483757843254 16.862078081662645 10.630488228325252
Sr 14.986656825877324 10.740289539991139 18.187573419790503
Sr 12.54526670092193 16.88937217518082 0.6946495331717734
Sr 12.09702716232138 13.273871332611375 12.27034678950844
Sr 11.149480437756754 16.411076679626927 14.880468009974539
Sr 12.123363602040806 12.785126809619353 20.55104156307657
Sr 11.742396833061896 12.619982753702054 16.398259078904537
Sr 9.520207446175256 15.509476790475148 18.823780923773878
