30
Energy = -34.27958367 eV
Sr 8.939310433207888 11.404663574303978 13.86653365456344
Sr 10.137473815059915 11.866859338847744 17.936913793765754
Sr 9.430819924295399 15.35699546229237 15.653368906912288
Sr 12.978328192836145 15.164305709014167 18.07491701592916
Sr 11.945805316592775 8.93514918784384 15.507667204509204
Sr 14.936250472009892 17.877690782051506 20.359066476780615
Sr 11.891379893543164 19.113114760512683 17.49984616659329
Sr 16.504550973273858 14.09637868508362 16.084710628970765
Sr 10.827039386924374 14.30278818689464 11.395877792718222
Sr 16.998502778214757 14.196406284302611 19.94939768508748
Sr 12.681200572773088 10.617140737814445 11.542186191440367
Sr 14.356734119211033 11.223922819037 18.177694656582187
Sr 12.465891794101886 12.836277502801277 14.89818595212532
Sr 15.653008508158294 0.373477658475695 18.211421059117665
Sr 12.572908056749867 17.140027360124986 13.79681454748243
Sr 14.007023983794602 0.17751466113153605 14.319337843115148
Sr 13.948913100272128 13.295467077802108 8.474066441878694
Sr 18.419714700762206 10.788572760769528 17.469228535179216
Sr 15.530952717823515 17.937662757345485 16.205622393602304
Sr 18.680485797777056 17.857309617259773 18.346133029183253
Sr 15.749574627574141 10.319918770491487 14.326579265785673
Sr 20.459535091603556 14.257390704025266 17.272217063029025
Sr 18.229646459196385 20.59174756286118 14.995744133479382
Sr 13.394403389596823 17.112863660101755 9.64848767194419
Sr 17.899137074641548 15.191219728973671 9.906458563637576
Sr 15.06398161307822 14.178012359121853 12.25009708772013
Sr 16.840120496230472 10.99367762183169 10.374779530806967
Sr 19.142279510450578 12.522618354971625 13.466880310325214
Sr 19.16767534773937 16.59948053006685 14.103358548023676
Sr 16.256500743528402 18.38041657727292 12.107832686567956
