37
Energy = -44.37272553 eV
Sr 16.07176194494616 12.023914455096907 14.844905594537323
Sr 13.703549547985372 14.489962657069421 12.388955809809426
Sr 17.494747471899316 0.23688856396114183 13.664976147283285
Sr 9.452730463263851 11.229841648781136 16.57558245826683
Sr 15.501616757939361 15.752999185012834 9.03714455527477
Sr 17.80382157940578 15.107273063292476 12.428978452221472
Sr 20.15220521783213 11.926243016751629 13.804365726064852
Sr 9.732387940885728 13.97609441468925 13.112996143691449
Sr 21.42379195272089 20.56356381150515 14.595952265217308
Sr 12.054588425717018 12.820696217972026 9.387703173864985
Sr 11.469974302829428 16.920112385533557 10.291250246580924
Sr 15.62363941977902 13.479780211038328 18.784147398912555
Sr 16.063503656218966 11.735135620962959 10.703834344129655
Sr 11.631777332488614 17.480504026899187 14.653764050866286
Sr 18.843792936264748 14.610983451710494 16.42312668827605
Sr 14.735481730446883 20.099128640973305 20.51013515654833
Sr 15.3792790231648 16.071723954822108 0.3474001037834482
Sr 18.847736325955413 18.846253801501803 0.0026066874194194986
Sr 9.210233904618933 15.567908832534723 17.438629748910028
Sr 14.638014361597914 19.959368058215833 16.32928351580751
Sr 21.0890404390031 17.71123141903349 17.97701428891171
Sr 0.646867494872318 13.467803298880392 17.327029424448515
Sr 18.313938929992418 18.377461922360503 14.968464460337604
Sr 18.882519705616016 10.917497515981223 17.872193001978744
Sr 12.990601574180221 16.76095246587712 18.700890604789745
Sr 18.44930043687693 21.11232430558913 17.95114612047375
Sr 10.72682183388364 19.91143518552596 18.124878124871632
Sr 12.406541721430767 13.570927181310266 16.133845574841093
Sr 19.381377122707182 14.611596751560613 20.456834220219662
Sr 17.03446670583254 17.41369743347707 18.705502353298236
Sr 19.167603589084212 18.792973244718695 11.103945475122877
Sr 15.105213086567048 18.479351121166264 12.279552061500983
Sr 12.42461178142024 10.686611367511889 13.233709122420258
Sr 13.519398012099161 10.020768405303993 17.52384251719775
Sr 15.303299775847133 16.03224379603903 15.518103618033301
Sr 11.634866433753997 13.074112692980313 20.039300593302396
Sr 21.577345594577935 16.21226524534953 13.90769663944475
