32
Energy = -35.97596395 eV
Sr 9.097348496526592 17.245794680352247 17.92492164998481
Sr 13.33925560376246 17.43597327256141 19.107752703471697
Sr 11.364351857924225 20.087730415177557 16.286848843199547
Sr 9.352433011404354 17.551298286385915 13.442898870338094
Sr 8.452364000106616 14.001388176689094 15.620926431594128
Sr 11.166141786862802 13.73699992379538 18.908084561370956
Sr 12.246325131928398 15.801030719232925 15.584510097348618
Sr 15.418221764778863 20.060238682447704 16.55620885949251
Sr 17.626912695847043 16.999126238757857 18.58123042492974
Sr 15.281324569412181 13.635622479615739 19.83941628802793
Sr 13.43130228915173 18.732566763521667 13.07564843087105
Sr 11.797540276900467 11.614306063024479 15.289725142248566
Sr 10.462516318862916 13.677048831341137 11.980682852463984
Sr 13.083425079565975 10.133941766337657 18.81199133417405
Sr 17.111287786929374 20.513286860803127 12.606323844727815
Sr 19.495632873667144 19.7780708215814 15.780137947935899
Sr 11.91314128400114 16.730870870359905 9.909613110509868
Sr 15.70414040990938 12.36747996238544 16.023079644978246
Sr 17.012607472818804 9.66490167872428 18.931284034603358
Sr 19.88652966596609 17.32689001770255 12.04126275010411
Sr 0.1512751305194315 16.15446496887607 16.067539223100802
Sr 19.153610622940956 13.11986641735105 17.998405924381732
Sr 14.525546943284743 14.201227984396196 12.477358323848074
Sr 12.723414923447105 10.20482450593563 11.622440754204744
Sr 16.022206169629783 17.307688828899906 10.18576539214116
Sr 18.90782070482476 9.74337231250088 15.344820012815376
Sr 16.86154959655018 16.8171961743023 14.608879158815263
Sr 14.802500974188693 8.55888443778661 15.179691135720578
Sr 14.012404907453947 13.174614507758365 8.82470140538509
Sr 19.023917027574154 13.532623008185837 13.76147828092756
Sr 16.64346890467431 10.692141575696198 11.97271189610492
Sr 18.09574571416672 13.94123639451644 9.849155677678715
