37
Energy = -43.90337603 eV
Sr 0.09085535945228958 17.30985197571955 16.324909574997253
Sr 19.561417670570865 13.917470534797555 18.44574894650065
Sr 21.151941086709417 12.853041101047054 14.77587062443316
Sr 18.25135627541946 17.754518846718483 19.4296201570476
Sr 17.090647630011787 14.462800402715391 0.2495134135144931
Sr 19.579553965314243 9.720027112747939 17.29464973663192
Sr -0.1200654162377885 15.918706348344188 12.062498174651472
Sr 16.29549474207449 11.209640288093798 19.278780483730383
Sr 19.994739325502845 19.55145782577945 12.897620927372813
Sr 18.353489149846745 20.508939090502526 16.49467672305355
Sr 18.738970995691844 9.310712504029329 13.320113026319136
Sr 18.307557803506345 16.36367186940665 14.947858219206697
Sr 15.75419124054044 21.24747247008419 19.82254417722588
Sr 15.569911071795365 14.961721902645023 18.17405230545346
Sr 14.219680173990255 17.52027083691985 21.02982004518453
Sr 15.310841308908362 8.800806223702548 15.906154966922463
Sr 17.228646033041922 12.2957879585917 15.456035942048683
Sr 13.160187711332107 13.275186136867543 -0.6565367794545147
Sr 15.206867838529567 14.89711706605585 13.127790429879843
Sr 18.503931128936507 13.064835926939594 11.553174928233869
Sr 17.61570464083421 16.926524519696258 10.55062658454685
Sr 14.52219135314739 0.7645682189939046 16.038136991953984
Sr 13.129733575833171 12.578328901262804 16.1584048345288
Sr 14.8708528065546 10.88119443672151 12.383119964718087
Sr 15.701194058065088 19.324006048632146 13.313647500951959
Sr 11.640942162618883 20.246195738352643 18.400649156370402
Sr 12.142155203332559 16.528295875743993 14.700697577374816
Sr 14.836195798425582 18.54544122618003 17.076078514636784
Sr 11.391803461921102 15.958646893620537 18.454119940216824
Sr 11.143846519988784 9.762652667079726 14.114148760468918
Sr 14.973784340346585 13.804051457971397 9.27515361563936
Sr 13.054830011721254 17.32114172114779 10.762965284383071
Sr 11.52762820080516 20.2741231809371 13.899128827717304
Sr 9.204274319136792 13.79644479823625 15.349890263857825
Sr 8.686395717552088 18.03991997449842 16.144391235156874
Sr 11.618838179977264 13.43398314018722 11.992012697314683
Sr 9.082697343722723 16.875349526677624 12.216583674485205
