39
Energy = -45.3682943 eV
Sr 13.235452651532219 20.703361104475217 20.495671122643675
Sr 12.24520345075889 16.61549062283303 21.01667737221515
Sr 12.620824676450871 21.767935915820885 16.557648960406212
Sr 10.2959167827704 18.667441640815767 17.982739375137054
Sr 16.78529710583057 21.408702066102162 17.191312432308585
Sr 16.214841097195052 17.864064655947143 21.401365300335943
Sr 8.489803445668214 15.197999081905172 19.191608021673307
Sr 14.672622306928071 21.54623804889105 12.909646690525483
Sr 12.109393620434437 14.902393523731844 17.183631753816865
Sr 18.471590534535636 17.444522082765793 17.931762472894583
Sr 12.23020580054546 18.258314542209163 14.35302858377491
Sr 11.026166439196098 12.685554313445548 21.06965909211484
Sr 14.454950331083795 18.18335866818995 17.733655077179773
Sr 8.699724301710807 15.897313179368378 15.103671308279894
Sr 18.81032130775564 22.55575192660994 13.423064416615667
Sr 20.952208506698003 20.01858626388454 15.976472398993964
Sr 19.329850962553046 15.053124312485593 21.36209751142381
Sr 16.128075733283545 14.372527093481759 18.671205713669146
Sr 15.062263636317116 13.774956075843855 22.346779830554926
Sr 17.91765653474975 11.212135374467005 20.47271506246973
Sr 15.714096826675103 15.392585088845363 14.690290114781396
Sr 9.879822906261051 11.887755035950885 16.769421298442158
Sr 11.951977119414394 14.476165515339797 12.774291204395228
Sr 13.998529847203153 11.05508839576538 18.949086835314763
Sr 17.458057100484332 18.897906348883584 13.938310024483362
Sr 22.577691213630267 16.731011428559484 18.309268651859334
Sr 17.3828751736039 11.011343797791827 16.272477871435875
Sr 17.579309881495984 20.132326516972757 10.132816807654086
Sr 21.11478187427084 19.11488959948721 11.913782384060553
Sr 20.194558290754564 13.394577163491848 17.768740572029543
Sr 14.494684743057952 17.49405041538546 11.146760938289255
Sr 20.588235484860327 15.999326758840992 14.691378010104952
Sr 13.658079780045387 11.68498794598794 14.957514817767418
Sr 1.367245975171412 17.777752327806354 14.405815250311969
Sr 16.676311956089997 12.381748767210468 12.256463621976291
Sr 18.482754467764355 16.030859300873896 11.151762548178917
Sr 1.1216471100732448 13.805558149843078 15.550081239464554
Sr 20.58711109695116 11.910764504701145 13.801960848960446
Sr 22.597983587877387 14.984321221222965 11.575392479485895
