33
Energy = -38.80129015 eV
Sr 16.185683047945304 0.68200124369147 16.02505274269656
Sr 17.48328673466235 17.682090134454985 17.690064660036803
Sr 16.121849125948568 18.33151684854309 13.704075407688135
Sr 13.300981877159634 18.44452871052294 16.875127142493028
Sr 19.89453287644448 19.310345890208623 14.81698173299743
Sr 12.559519427957074 20.46311507800286 13.276960584485847
Sr 15.214259190581787 14.991814868534297 15.755200052707712
Sr 9.95318328125013 17.84796431843294 10.793097599101742
Sr 9.36897886817641 17.853562580212195 15.185115690635845
Sr 14.257164843933927 18.148218211135685 9.98118911149434
Sr 14.20181778275322 15.226076608022934 19.617701717518173
Sr 18.957039396836432 15.363984685614907 14.436541117954189
Sr 10.104615584530881 16.91409497617577 19.41305537155428
Sr 18.05864933977181 13.414626130220796 18.138086881760884
Sr 12.562197731564492 16.44396407686746 13.19374084943492
Sr 0.6809354917333333 15.927497887706252 17.399534450091956
Sr 18.890157200572418 17.343410188883023 10.832454020128084
Sr 10.649114182626306 12.685499431050673 19.889315434330214
Sr 7.643319270992926 14.255025112201126 17.177471190043878
Sr 11.44738525897521 14.585244861914877 16.57232737712373
Sr 0.04561497837283552 11.809042431053255 15.384751434693749
Sr 12.192467292414952 14.279332114233073 9.847632026075203
Sr 16.95640895624638 11.779606878006836 14.409016431680708
Sr 9.23095387764338 14.1019577666325 13.127969854242213
Sr 19.49573847645424 12.648235542792365 11.34702896255123
Sr 17.862814296493134 9.15977713499762 17.175958810206616
Sr 14.161681103889208 11.47393979626374 17.533870666262292
Sr 15.915791453389243 14.70122722747655 11.64665603905063
Sr 10.235792651400233 10.807223225261437 16.048929300450563
Sr 12.997963001054133 12.329958041280765 13.477390960597127
Sr 18.74914418856158 8.678651974506042 13.056263713660055
Sr 15.646030443614404 10.663387837658444 10.744219816008963
Sr 14.515617788713856 8.595569296109291 14.450002566903455
