38
Energy = -44.37939954 eV
Sr 0.8005147875606469 16.044232639630586 13.181035903030319
Sr 23.175236550997685 20.050965523402628 12.93168921137661
Sr 1.6675343039269384 18.73416502825412 16.34383396172606
Sr 0.24280782056478772 14.607847406962845 17.216858575038614
Sr 20.542650916550908 16.946084726874265 11.626119771258034
Sr 21.158121171698742 13.55881215303983 14.117098748519073
Sr 21.765149764305228 21.355868553215686 16.719490803580598
Sr 21.696856172598682 17.4472493367341 15.553402377646442
Sr 18.950468213305435 20.063939980470447 13.884487278341362
Sr 17.766537271686488 13.91754490669093 11.408948550738495
Sr 20.97878716943466 11.203757915694062 17.48142266981204
Sr 20.04924089837248 14.928692968132609 18.799395098070185
Sr 17.956119774653867 15.845491641846685 14.975197945194928
Sr 16.286737267504847 17.9439917783305 11.60722218547667
Sr 22.512819680474095 18.158340770826943 19.47940827870765
Sr 17.398859417933096 11.876385909989065 15.032118457035745
Sr 17.044074839852406 22.341625259843596 16.76199027439665
Sr 17.19888338520908 11.874901931453726 19.177871403004474
Sr 15.153877188211023 21.78192000755097 13.051922113814838
Sr 16.18782014331322 15.874557668939717 19.101627114404366
Sr 18.75817033194651 18.80470239247552 17.814339690765298
Sr 18.474706211565696 18.14566657448346 21.705534393061715
Sr 12.169269599190416 18.724169264104184 13.243332557341626
Sr 15.299394721420017 18.64797744864 15.66275287925006
Sr 17.546063608273236 14.214737355829019 22.57034569778857
Sr 14.188040234157008 14.936702623307777 13.423189921088628
Sr 12.752733698692523 21.606015020271485 16.591442249185082
Sr 13.835549677285545 13.124198597567041 16.993613731132328
Sr 15.070412783584864 19.897186613870595 19.603779498574337
Sr 13.673732215864545 13.302252647480124 21.180854413560304
Sr 12.246530301269573 16.580777385707403 18.66674417531589
Sr 14.258709601232223 17.13823195299197 22.506759414081415
Sr 9.485427472129482 19.282083307722903 16.31341946975111
Sr 10.378259843227614 15.317372753200019 15.375031102195477
Sr 10.781877170928931 19.713384996109923 20.42615396732249
Sr 10.352484869292335 15.667550542130202 22.24194053889555
Sr 10.152949169212555 12.997988416056126 19.005201842128653
Sr 8.106553224934816 16.55753605680751 18.920458686549342
