31
Energy = -35.21195447 eV
Sr 16.76383591205013 11.012900986770324 19.506617921208708
Sr 14.008307678206437 13.836191591101372 0.5118812835922225
Sr 19.18337112926318 9.102839137532683 16.28482717964606
Sr 12.596665289370227 10.130190775984632 20.020043284368626
Sr 17.100137128675676 15.194600730897417 18.741223687829613
Sr 14.869272675705242 9.140792259649993 16.33256333280052
Sr 17.126138642870885 9.889239836566569 12.573685833569364
Sr 17.179266436602823 12.436761830306716 15.744390814866662
Sr 13.77082972417034 12.919772247532347 17.506773072251807
Sr 20.44414956891105 12.238636761826069 13.36800274883446
Sr 13.21029841883212 16.825426338500186 18.36314707828037
Sr 10.301371017631844 13.875120554131026 19.127848946332563
Sr 10.715672880157681 10.640607576195523 16.306728832368034
Sr 16.939432936632002 13.982062596021745 12.193664793503794
Sr 19.228716716977754 15.911164943321182 15.15476282522476
Sr 13.625195745163529 11.859263597159966 13.492901994392897
Sr 19.007839907177228 12.253562090112212 9.330708158224937
Sr 16.53920904355256 18.76158553796901 16.61345544726653
Sr 20.187255327277477 15.89248023341261 11.007326130004937
Sr 14.825072385054407 11.995919921405909 9.43632072373115
Sr 11.072468618714648 14.713760211236059 15.082143896287896
Sr 13.104630994763351 18.200996521690442 14.455370919214486
Sr 12.925020086491422 0.07179203187485955 17.38425757558959
Sr 16.731116723790173 18.016922870852216 12.443453399423863
Sr 16.489142078266582 15.911651434635482 8.78410115238675
Sr 9.670083969085589 18.28792734404664 16.61584180495355
Sr 13.234412061079608 15.448292318667107 11.410603250736704
Sr 15.026889512750957 0.7988260201136281 13.840318299089494
Sr 9.729783942951611 17.65530134911598 12.351104589568086
Sr 13.21247076408507 19.51970798452139 10.631058168015073
Sr 10.833506266222846 0.5690066717270067 13.783168612257972
