30
Energy = -33.94233803 eV
Sr 19.666198567565488 17.006049317819322 9.952817578732436
Sr 16.65560231924033 19.767741079826788 11.082332301622811
Sr 19.45801196020751 18.400206949851867 14.059284156118848
Sr 15.293521573842103 16.400794969708276 8.651212480392696
Sr 20.19840849782114 14.191309795740676 13.32587731503554
Sr 15.47132161789085 18.78222795931268 15.029873168954232
Sr 18.063279186396993 13.173121892879584 9.759096082391574
Sr 16.648736239377083 15.925266537364152 12.267776568434568
Sr 12.842799123432304 17.99124711015879 11.880480837466495
Sr 17.930231782645528 18.768906834690682 18.31376531675106
Sr 10.989040457066599 15.464043018529036 9.3531585792862
Sr 17.490368372325705 15.402893419780995 16.109786779861626
Sr 9.54493520625441 15.589557988029451 13.581563853574774
Sr 14.166396682406724 0.17481871458725617 18.308736430428493
Sr 13.9633167196849 13.002431981575807 10.717863102757264
Sr 16.723990496836645 12.061836878295695 13.757467220608063
Sr 10.13153753746641 12.173672699529561 11.626937193518867
Sr 11.508129580010477 18.37929683299003 15.960354819416237
Sr 18.888821240881242 11.754776012352304 17.223478346491095
Sr 13.393086364647838 14.945576582980204 14.485149885953334
Sr 17.43149272951864 14.599823799017416 20.14883013221035
Sr 14.923515178752577 12.712897102418044 17.43330563784992
Sr 14.36615483661479 16.731108180099397 18.384706684367917
Sr 12.780577360493227 10.771100229845693 14.31949009793717
Sr 15.793193634223508 8.88849500905217 16.62696522565848
Sr 8.957053925074323 11.64689246132482 15.524180672759904
Sr 16.160463707669255 10.464016138740416 20.44204614040159
Sr 10.90229535256589 14.428081924309636 17.615731315559145
Sr 13.329064268076891 13.553070349263653 0.34298344882478987
Sr 12.02981894494938 10.301269427218356 18.437143448734073
