36
Energy = -42.3179419 eV
Sr 10.024721248145635 14.119828183300415 18.588208791070134
Sr 9.49060541034477 12.617253853738957 14.581031861080714
Sr 13.560545230303845 12.233183991943656 20.285341641008113
Sr 11.091053674933123 10.033952794916026 17.426827356547907
Sr 10.921618316828079 18.975488516408753 18.844665124734988
Sr 13.679434688877047 16.065972752959027 18.707863921426927
Sr 10.877100678447698 16.50236647974518 15.27838066869062
Sr 15.385319515348156 19.495219326406733 19.746914937911075
Sr 13.175207872056422 13.13925470759299 16.288389665923837
Sr 15.308810795647736 9.817415873448047 17.154205559615978
Sr 16.873026846757327 13.520576962050704 18.27286468686301
Sr 13.117827204444737 10.716899943994386 13.302289905092042
Sr 13.697824119024506 19.25827212603519 15.924769820996223
Sr 12.396475253756194 18.821254513413514 12.076951350331374
Sr 19.676846291067044 10.870394493322744 17.046780913075914
Sr 16.859084303201673 12.484343674647475 14.481592820322202
Sr 11.721223223524325 14.402147056478784 11.361314787240573
Sr 10.236660564412594 20.932462397662203 15.155024227075728
Sr 20.060726949614118 14.783430822150438 15.9914443403621
Sr 20.682382299288278 14.14684276796466 19.841309403890016
Sr 15.743054955220996 12.839583603670325 10.649390132983509
Sr 13.89418483545236 0.45816876758146 13.700147876435636
Sr 16.84524256139331 15.836104000081404 21.439271259508413
Sr 13.104462537170981 0.5358814024304032 17.866329817505036
Sr 20.676206640064414 12.06206505754369 13.038764835983256
Sr 15.131944791204436 16.803827426352214 9.684261640837473
Sr 1.3093147913436622 12.757786236231778 16.411607039228976
Sr 14.616464079948912 15.714492508089105 13.54175602398199
Sr 16.88733519102153 17.08429957953459 16.39322500490687
Sr 18.52540888085654 15.719678455671822 12.344218050778451
Sr 16.527569662207295 19.358346517440797 12.812893924184106
Sr 1.0959547789044217 16.841678634142532 17.442212329928644
Sr 0.7903761214457471 15.693238981392383 13.353739607948782
Sr 17.1834102368929 21.251649647585236 16.504428884045666
Sr 20.288315661725466 18.737664074125657 14.888810178492568
Sr 19.479764159944384 18.169880333805846 19.068040656106444
