35
Energy = -40.88629948 eV
Sr 10.286693533825453 17.672123470900058 16.65068637223179
Sr 17.42486629907624 -0.10884222798899505 16.9010160496769
Sr 15.792600771591284 19.7708033753348 20.44845494705179
Sr 19.936823867551954 14.889771516818744 11.384872490448233
Sr 12.508301387794443 8.296394283339234 13.59356575374884
Sr 8.74165882881176 13.769975343479013 16.49972764688028
Sr 10.977171937989961 10.320371766844833 17.178475137798376
Sr 15.179863241993338 16.36422792598256 12.469515829941766
Sr 12.372354458258911 14.289005554502463 18.347045848891387
Sr 18.35056030003692 17.412451375734364 14.552980356952801
Sr 13.025981632953956 0.18173653468404435 17.100368357217093
Sr 14.654020455205563 17.689114538050628 16.831772269644237
Sr 17.306793714922065 13.013383164968372 13.390284090658675
Sr 12.211583538530675 14.879557101277898 14.446855944872933
Sr 11.825267986343283 15.249795284919555 10.398721600586986
Sr 20.611134804533275 10.872624979444105 13.14099663990125
Sr 16.716783643108833 8.998509429123725 13.040327109679028
Sr 11.770094222270991 18.71425225949184 13.036758088865735
Sr 14.973910683753767 11.282439704689542 19.399626856135363
Sr 18.175638452983353 10.582464159386953 16.64061842898013
Sr 14.18387253238308 11.458978757261933 15.338339978207168
Sr 10.241031395836481 11.81656565272502 13.097208372314572
Sr 18.664861000220878 17.208524378496545 18.690382274871162
Sr 17.988716420070254 18.51410897888597 10.47832942672041
Sr 15.485167157823092 15.556336152332555 -0.21742772546266922
Sr 18.108409707818318 11.317710352349987 9.82639890962557
Sr 16.438195722715104 14.268485502137485 17.031898684878115
Sr 14.07097828105059 11.859520292798592 11.332178747526097
Sr 12.126560086373392 18.095261055002258 20.283108329848915
Sr 20.383129482203003 14.076069159514237 15.945383270000832
Sr 16.1055534845703 14.960402577287985 8.974998636469891
Sr 14.018917370186033 18.782062684947164 9.496304954666567
Sr 8.604096517237213 15.922531069038326 13.023846793923896
Sr 18.913224205292064 13.11646541025461 19.956013315710706
Sr 15.434342916634375 20.325712206083235 13.337715344906377
