39
Energy = -45.3975783 eV
Sr 14.667091746314364 18.940319590031823 8.999493243898959
Sr 18.115501133669444 16.228648173762036 9.197105105529387
Sr 14.108011521181194 14.868345644352647 8.601351523930909
Sr 21.695557152482102 17.797512087447497 10.570869177734158
Sr 17.939896617135766 19.77740481921652 11.417888202068083
Sr 11.439775099836991 17.057014209632626 11.150764228422517
Sr 16.895042579700714 12.707957873312862 11.148617172387183
Sr 21.047863410178504 13.760352071547473 11.25485644447319
Sr 21.346770645586204 19.91128276073862 13.996939507115211
Sr 13.943140478270829 19.878617389757874 13.199903496364456
Sr 1.0622797614032418 16.052163123034966 14.170129239384135
Sr 15.27574769069993 16.3823923895108 12.054806103838532
Sr 12.791273578264114 13.191822435969097 12.215657181668352
Sr 17.417198843615196 19.97979142980685 15.507198963086898
Sr 18.92967052997313 16.4896963408852 13.512025599542824
Sr 8.940208837957758 14.431019371545004 13.472614412188818
Sr 15.948568558165217 12.919447499845793 15.121904767491332
Sr 10.976554744341861 17.73183971210021 15.264032400850791
Sr 14.480324114988134 9.542659278311126 13.096655931383202
Sr 14.912783351664478 16.76207413311919 16.113923476958668
Sr 20.15282317286838 13.207797769073283 15.47486543397013
Sr 10.35379310800084 10.591074278682395 14.78047106393571
Sr 13.389286179300907 20.36253058586739 17.44141586388677
Sr 20.574346182588794 17.477115162026575 17.368342575292495
Sr 12.077372256890717 13.894204847380424 16.10930423807211
Sr 9.474869192033916 19.42034673168648 18.861499163015694
Sr 8.533015919905713 15.344570030807466 17.563290851525004
Sr 13.722463079437857 9.988251208068545 17.114198080318538
Sr 17.899301929149306 10.889064214068988 18.18310138118296
Sr 17.798198009681684 15.006421451074079 18.434668868747167
Sr 13.042367698243686 19.80833542234238 21.55241759440856
Sr 21.32065998157144 13.596432757101686 19.469822069614295
Sr 16.688805608293602 18.80513162956588 19.372219446853826
Sr 10.504619730254342 11.922666994194802 19.0661412552361
Sr 12.204626043992734 16.517319778203458 19.199645456873238
Sr 19.51792208456966 16.72216042612761 21.62560363044062
Sr 14.511184488186204 13.185024433058182 19.241242231194725
Sr 17.898949536316728 12.875917623298218 21.880690959616903
Sr 15.317528635744592 16.17045496816563 0.08749609987122006
