35
Energy = -40.38859041 eV
Sr 12.10844308727876 20.367733884797833 17.96200220380736
Sr 16.067103436167624 20.121837077204976 16.87592590363348
Sr 12.82889355510919 19.423195124944076 14.125147375864639
Sr 8.909863860024439 18.543551510210214 15.650108748382493
Sr 10.13660546281154 17.51027542861592 19.940953181240722
Sr 16.439327731593018 -0.06817971101038092 12.71356040637963
Sr 14.51221804132153 17.149209566739067 19.44493508017991
Sr 19.596094315268648 19.21750494511842 14.83834397619114
Sr 10.18577065093808 18.045737763752115 11.385075644048934
Sr 18.26419832960461 16.569463310920614 17.923365120117843
Sr 11.943198035320327 16.222027555582866 16.49429233976516
Sr 14.25256082125904 17.66948049565683 10.71068626004632
Sr 8.265953953789216 14.758169093835823 17.66940256793286
Sr 12.118136415264681 13.806021426973425 19.86568173808443
Sr 16.172622284890988 16.94547287352296 14.334970707647582
Sr 18.557870639727312 17.521824465736092 11.10401907654595
Sr 9.356290429853011 14.770877416139042 13.564120379865471
Sr 19.929126746157575 15.153002072766961 14.44982202698451
Sr 11.040851613929004 12.096497903226998 16.316882101632597
Sr 20.395033542619423 13.028630997425406 17.869345748866476
Sr 15.07885801434807 13.619562831347688 16.812576812478735
Sr 16.723861737146166 13.22338732697428 20.276566058239414
Sr 10.59712214232922 10.998678630595705 12.305328608621386
Sr 11.672036952699868 14.288179307522501 9.694191496191728
Sr 20.42270181414823 13.863185699432991 10.68600703079201
Sr 16.256010272860333 14.227564913023183 9.803659251977878
Sr 17.13312038071725 12.405708640299988 13.273613943558164
Sr 13.351809288359348 13.976584937727285 13.14802799994108
Sr 13.919073708494366 10.227646770953648 18.88163549128532
Sr 17.56326789506873 10.354929814222055 16.863257664844493
Sr 20.706159650574378 10.957002759978598 13.91629962835403
Sr 14.382978314301706 10.651934414322684 10.69797018200318
Sr 13.99083294048759 9.974098721291032 14.707066732648176
Sr 18.511500077965373 10.433461096374412 9.951473572942298
Sr 17.35936946051889 8.280523929761804 13.158991481708014
