31
Energy = -35.07092536 eV
Sr 15.651583110978148 20.30229486109547 11.419215548256
Sr 17.273392184401132 19.60166991777376 15.310502332343535
Sr 13.323486075930726 20.663530780624573 15.035027171794818
Sr 11.742029455378145 18.901531448775824 11.40110342115897
Sr 18.191390335039532 16.980962340923597 11.763504138406006
Sr 14.789019612234547 16.375163217543864 9.611210452113417
Sr 15.29782872678461 0.1894896099825603 18.742539753787252
Sr 11.713852274010296 14.708019460963126 12.073397861327864
Sr 11.47762103956748 19.768540174097357 18.696185765787096
Sr 14.557408541914349 17.060508305172263 13.529187910552864
Sr 17.948606554399728 13.134364660241387 9.224844944961141
Sr 17.83628435358777 15.583850753699604 15.678580946975448
Sr 10.681705581869247 17.437774858025847 15.212342585496513
Sr 14.211246853839034 16.94825856412233 17.410423318798994
Sr 13.624274392945004 12.500584143845563 9.160050041748915
Sr 17.927624003970212 17.960526258022302 19.190650143006728
Sr 15.635864272437418 9.307533570677103 10.459195530928955
Sr 12.568493952096551 10.798582697762603 12.92564849720805
Sr 14.63954957825112 12.720728698695654 16.11097106607648
Sr 20.42622127904028 13.820123893538204 12.919284589086695
Sr 16.13263235649113 13.113640507235301 12.545057893420992
Sr 10.263563263474902 15.940427659139585 19.13251551209409
Sr 13.98545716659325 17.144684018707554 0.4091714364935902
Sr 10.708362774450775 13.344095488841845 15.966244124216148
Sr 16.716773101963575 14.011441171360897 19.37145204656513
Sr 19.109828031263845 10.091346116016888 12.237204091240763
Sr 18.643666456963256 11.660586143623945 16.109827896485218
Sr 12.269599465307879 9.539998527697445 16.927887687607726
Sr 15.843784857026616 9.01507857958568 14.645296566021367
Sr 12.80561190131328 12.882332227620244 19.673059584713926
Sr 15.887694038194443 9.950396328022963 18.815675594853612
