39
Energy = -46.49278085 eV
Sr 19.515136154897927 10.239699851356283 13.3582254934213
Sr 20.99339894440048 13.067289973795011 16.33851540661401
Sr 20.105072911162218 14.205279012338211 11.753476925623614
Sr 16.521922211302332 12.28617169716952 10.755313278655136
Sr 21.60097683898482 16.586167466837768 18.535545687773432
Sr 20.028308863562543 13.046342577819305 20.768950008356505
Sr 17.971141523367812 10.351380995628015 17.418543822895966
Sr 19.46365106432948 18.39293955527019 10.881315000282328
Sr 19.459804245321198 16.79372427034549 14.959644952316816
Sr 17.47408480559158 15.697953700728736 8.406691373424291
Sr 15.248114429749826 9.86685516434523 13.897109242027197
Sr 17.42992537318063 13.278934810311334 14.69996884092357
Sr 17.66748358971957 15.154945869446921 18.704482964447283
Sr 19.291590427013897 17.721075793042246 21.602045894575898
Sr 16.540343453855858 16.15596104633772 12.20116140714964
Sr 18.369178818574984 19.452638759336445 17.83762956747174
Sr 13.722456525466185 13.70851441081038 13.401054063809358
Sr 15.142307217542214 19.10298897622642 9.9789024557886
Sr 16.862123087009216 19.84128083675894 13.798293032322412
Sr 12.363111309239986 11.174827987609616 10.748308809253407
Sr 13.37582629509727 15.331985725117024 9.726686525043837
Sr 13.577337541517227 0.39257486414670595 12.509230990250135
Sr 16.479651275133293 15.0690346203674 1.0467440051522992
Sr 14.025877521510562 8.587620069983295 17.75993006551278
Sr 15.17347845770487 16.859028336703428 16.40777085710604
Sr 14.422168428756262 12.424829152093642 17.02645594294149
Sr 12.795824096808516 18.04829247926389 13.711386421773835
Sr 14.373557320962325 21.051459498276532 16.707928491388504
Sr 15.632426516472494 11.514828364588702 20.659404303317693
Sr 11.306615139841591 10.801108293103118 14.945542745771277
Sr 15.294023992865421 18.584885469709224 20.288960435148873
Sr 10.090937026810398 14.635954431346203 12.202944082835
Sr 10.58622996445755 19.090549132499167 10.813962489143004
Sr 10.48207198968947 21.34968007993114 14.944967273493784
Sr 13.371819141401424 15.062198863145856 19.85954047428223
Sr 11.371153551811052 11.436691345325988 19.234871666917115
Sr 11.13443484232082 14.747177565882286 16.332120689185174
Sr 11.502075730991148 18.497521543015704 17.91742914156477
Sr 8.73136112318481 17.76211631193828 14.627574355965105
