34
Energy = -39.73195334 eV
Sr 9.737453020112877 17.09717459329754 15.17231095506846
Sr 9.867473172210255 18.511277204825895 19.37497200216477
Sr 12.444984202229003 19.987859643465153 16.31913987168888
Sr 9.038770768949693 14.514898213746033 18.682278252190102
Sr 13.82376732073805 16.019863890539618 14.011037635418743
Sr 12.266339462383042 19.030592141531248 12.026106230861522
Sr 11.121279942850578 13.052365878196147 15.277226635299515
Sr 14.211119774217897 18.91061382033613 20.10884841438846
Sr 14.427286932180992 15.886140665137217 9.992096209148409
Sr 12.049702336634494 15.487742403539487 0.2360998354700089
Sr 12.5270222608858 16.076202852231255 17.77249963926753
Sr 16.267738505979267 0.5477012718170969 17.82680386358808
Sr 10.68404665411133 15.058134682052552 11.64952562528039
Sr 13.724261506125993 12.21258698426017 12.320761456373523
Sr 15.931599825828336 18.236176391046527 16.50529491209664
Sr 15.42448849473426 21.31524234424357 13.786206242544116
Sr 12.634862376378983 12.309589537289307 18.903502902879566
Sr 16.34853852532125 12.189362612750969 9.033627641291936
Sr 18.56328565236812 18.566123741435796 19.387771683331753
Sr 14.022523689761764 9.570602711539259 15.87650289463476
Sr 16.073462389913054 12.833029767523902 16.066699581349962
Sr 17.261564368194794 10.116725518253546 12.753700329330236
Sr 17.412142982342296 14.08443959507629 12.352812154284564
Sr 19.30012662879181 20.063661668778973 15.394812642342737
Sr 16.014401764833607 15.092281670889728 19.56669712580281
Sr 16.188488763782072 10.690992010871076 19.745909996473873
Sr 18.582252560232103 15.760343982782313 8.925828743646642
Sr 20.319451267149496 12.166024401972004 10.349612453019509
Sr 18.95166876428898 15.880242078491536 15.965970073053782
Sr 17.194440058991553 17.969206977335382 12.455214474640542
Sr 20.312988943307403 12.251587515492686 14.596001944006987
Sr 18.39301045319229 9.249545042232091 16.641197827800394
Sr 19.552300720725654 12.783871477757677 18.61664725723643
Sr 20.987842392209412 15.941966204393994 12.38233542441199
