34
Energy = -39.47674922 eV
Sr 16.765720729740984 12.648035655007961 9.423652193495048
Sr 14.333163040552748 15.22679533638218 11.415510845916762
Sr 18.488190765919327 14.692043078458651 12.6488462121131
Sr 17.28562006437751 17.631399265106886 9.858986731094875
Sr 15.678110921979714 8.68972823183334 10.82233942396175
Sr 19.135898577766316 10.513554910947827 12.321184745450934
Sr 12.628160753429613 11.716379209111599 10.276016322157766
Sr 10.308272333451407 16.041458254797377 11.277734120963013
Sr 20.073211276201206 18.71219003360698 12.985990254070707
Sr 13.372014366788113 19.19403348263664 11.113524329095476
Sr 15.453064913823468 11.872602527855074 13.20046246153685
Sr 16.27983700002656 17.920606247063006 13.716699139085275
Sr 18.277721889415893 12.257138873457546 16.115187566581216
Sr 16.964088388429836 0.17236214730661234 12.065654695658589
Sr 16.593362530879684 8.55088878832646 15.138577723900115
Sr 12.618652402260134 9.048437902340282 13.650783818617798
Sr 12.449599049287299 17.055344091824015 14.492254521444787
Sr 17.909577836920228 20.549482560160047 16.25941879978884
Sr 11.57104168578339 13.131264200499938 14.061399783522106
Sr 13.362480577205442 12.439963960869328 21.034352148009038
Sr 17.06513806366034 10.700205186581394 19.80290643186372
Sr 18.858465486941515 16.437446018593505 16.461493409931524
Sr 19.877349846709787 13.91259734550023 19.70805371165997
Sr 8.699429203176658 16.13228674701252 15.291885799905168
Sr 13.741882631066918 20.932380535550614 14.917792490875064
Sr 16.00766158688381 14.41020146580886 18.733690674913344
Sr 9.811370517583454 19.792501760510028 13.508824794049135
Sr 14.938949011693126 18.014540275946963 17.52556795979296
Sr 10.94423180028817 18.96441103058087 17.66934183500079
Sr 11.949187927056549 14.87343730905469 17.868190998829895
Sr 17.851403215671855 17.66114798879615 20.328890695832243
Sr 14.037454294859488 11.300653928048302 16.98057815749983
Sr 16.85612447097222 14.11579803638509 1.3616943148382221
Sr 13.715166603935067 16.726199558443312 21.172310611037403
