35
Energy = -39.92583456 eV
Sr 16.61856740563157 11.829739810395074 8.888013101152753
Sr 18.577611317324656 15.372384945013135 8.760782928073809
Sr 20.048462899350422 12.337835895043716 11.553517666180065
Sr 14.49354351163685 15.29017738603893 8.82886712324654
Sr 20.22510643560306 16.99409625879062 12.11061014977745
Sr 16.482844326054018 18.22162867018276 11.18675110838202
Sr 16.514185672035634 9.959298400322083 12.447542819701876
Sr 13.15307345631111 12.242852815421077 11.38988893145488
Sr 16.788669987272637 14.23454798034042 12.594680991968366
Sr 18.41076060946714 10.997681518108248 15.892041591751788
Sr 13.099137294143466 16.112516988540726 12.63274520580073
Sr 17.787206145189117 17.649386491085718 15.489615512201706
Sr 21.830317520531256 18.56748898289321 15.52689528140736
Sr 18.63435397396171 21.001486206118344 13.853793619313516
Sr 14.374516299524915 12.123322562115062 15.39102072837982
Sr 20.567824857693527 14.449474620411378 15.22228779873789
Sr 14.251054138995281 19.61051165412219 14.388426942524607
Sr 17.056036122499084 14.339890069002088 17.54209420365882
Sr 16.01172795856978 21.774317309189062 17.21323388765411
Sr 10.497577322173234 13.848315798824355 14.866573806419293
Sr 20.340520440981997 16.51084202495917 18.79268188846769
Sr 19.537423729243635 20.49176429015619 18.366963517487044
Sr 16.404215573041558 17.86556908982106 19.459021418977223
Sr 10.41039285874146 18.07287061011742 15.197071138546848
Sr 13.496552385025717 15.991505265687731 16.678439946961092
Sr 11.691686386312625 12.354441205414533 18.546555427100213
Sr 15.664903607705346 11.22179753233756 19.449473403391373
Sr 12.740940475298162 19.623248675416807 18.3565803222401
Sr 17.88043432478676 14.504797028910566 21.53079650280111
Sr 15.618457180831692 21.0931118118641 21.412280618403255
Sr 10.207044464761754 16.260800064110963 18.98658535599681
Sr 19.246034780786545 18.716429300978696 22.19666382109351
Sr 12.087409489623303 18.501514701662202 22.153275530844308
Sr 13.867333003800647 14.946972876946615 20.732240356269795
Sr 15.660089164031213 17.399327329505752 1.1405208365533759
