36
Energy = -41.93580786 eV
Sr 12.776594555689766 11.601622668377063 20.855355436615906
Sr 15.38844281174429 15.432507698096439 20.75945284215244
Sr 10.674745286736766 14.674016563385726 19.0643272456982
Sr 13.21727777084928 17.599678338932485 17.756787613093465
Sr 16.878459537010684 11.373967880267516 20.590902900391605
Sr 15.735587803632525 19.62674960582961 20.45043406485398
Sr 14.420637723837475 9.044574849609521 18.04046563558402
Sr 19.22181253916052 17.334556500568606 20.757666600689696
Sr 11.036901098854404 11.172654676827237 16.895035071531836
Sr 18.87397033981904 14.089750109375284 18.254006254009944
Sr 9.170224836425772 17.66603037846374 16.37134763338648
Sr 11.76574072930519 14.83064815696733 15.241971204707205
Sr 7.973376205785221 13.809142569394734 15.61410279756094
Sr 17.15286461716908 17.46126042593237 17.24047612419943
Sr 17.901329923055734 10.622948268296314 16.62270013917463
Sr 15.3262352486223 20.91937302899724 16.387457881006082
Sr 14.706916163012567 13.221858542972525 17.562725437289895
Sr 19.1502691401148 20.81231143766895 18.4571538602892
Sr 18.956071089760545 20.317664571803213 14.354959097728454
Sr 9.449649800381598 16.194232882551916 12.315368636463676
Sr 21.045260162015182 17.234051548131752 16.694683712438973
Sr 16.061067419189072 17.828494238133434 13.26207858482887
Sr 19.961867846739896 16.58899865817301 12.630263619827726
Sr 17.142503905388498 13.785274662469355 13.761387712352839
Sr 20.93925846794644 12.994311509489819 14.726516438249838
Sr 10.545653364304457 12.085162758178052 12.620709488739097
Sr 15.280465773068377 0.371263237649196 12.331914997354549
Sr 14.289694236245236 10.916106593795218 14.18007163510234
Sr 13.500512306671103 14.932658151857185 11.798083148325427
Sr 12.331784506599824 18.834110365891565 13.846823150065397
Sr 18.27743718082398 9.794202004369186 12.745304812488559
Sr 16.959286351063735 15.692302985616084 9.763157757416925
Sr 18.101570343661 19.609862024286613 10.20715141680861
Sr 19.79841812176556 12.877460946599172 10.601688572725134
Sr 13.876969782905958 18.590952561481682 9.898821322366429
Sr 15.654915374610407 11.75643906819633 10.296713838971659
