37
Energy = -42.83283543 eV
Sr 11.085862560784612 15.747494525124456 14.885431681920592
Sr 11.834638848488337 15.103187257118933 19.07815199102366
Sr 12.507313533930585 12.976714375995913 11.898466208863603
Sr 13.846211457879448 12.907302222993707 15.95249390751551
Sr 11.091242158377161 17.31164686758608 22.63615917820394
Sr 12.063125377578844 16.991664532090827 10.719037716133302
Sr 13.5715605512201 13.91418213841018 22.727941912903887
Sr 11.859490570424589 19.397118015694282 18.680109912327925
Sr 12.49644587599273 19.383236817910518 14.084607391354359
Sr 17.334362848879582 10.75863872012429 16.827184759151372
Sr 16.496608001810678 11.997744201632246 12.934263423697537
Sr 16.0180916645189 13.986832846256766 19.220697534335528
Sr 14.558091346083007 17.081191912572788 16.87590278397691
Sr 14.834696227551044 17.312593404304245 1.7892065276958222
Sr 14.963787178005079 15.824529381325297 13.339910481701335
Sr 15.540402927399082 14.914080723803835 9.519199611135898
Sr 14.657113686173373 17.387685593629676 20.970164322806774
Sr 13.603944579401794 20.680139480974148 22.77927766856213
Sr 18.08459006207643 18.081221765031085 18.440055110492892
Sr 17.698118110957832 15.04536435166217 22.682261036717613
Sr 16.110902757238335 18.938006524686543 11.32120495087106
Sr 16.04861926364787 20.59192628433289 15.326425420916534
Sr 15.73314490248268 21.213893078161643 19.241862133621975
Sr 19.820196319105975 12.48897659163349 19.665130611582175
Sr 19.100459073504275 18.397098749070715 14.281062763106767
Sr 18.754815657978625 14.791310873760985 16.176642720842747
Sr 17.912389586532527 19.321208434089066 22.33592741415091
Sr 18.827612121849715 15.081763057865867 11.916300807621369
Sr 20.730979865392758 11.880327521746441 14.455562443329406
Sr 20.964245124653917 16.31193005990337 20.604573373028444
Sr 18.86011349881448 22.04986617814114 12.59382582197312
Sr 19.666501498546616 21.55262716277319 16.926329896796627
Sr 20.292076835342403 18.638940824710122 10.512436958241512
Sr 22.90144007471237 14.104623120593235 17.406562744780686
Sr 22.326719846921222 16.062745185026277 13.645628734267323
Sr 22.087425272398836 18.160980670990906 17.14844719521612
Sr 22.524830566850444 20.431698848434053 13.669306018758915
