36
Energy = -41.95306813 eV
Sr 15.298620370130568 10.36756862306497 11.881311872499131
Sr 13.288637550872767 13.870237408523739 13.316261873742016
Sr 14.686932069205048 15.32119596791605 16.628086051417377
Sr 17.800163776974642 17.914214430864586 9.119765152598434
Sr 10.358941454806 16.055174392711887 15.916284731770752
Sr 19.457833724978972 16.368877428375153 15.478625684870606
Sr 15.148479874710132 10.958686753317917 16.111733266977303
Sr 15.805047413384496 20.568835665927296 11.732180869671192
Sr 13.011807019757983 18.299721549434768 13.858794258852512
Sr 0.3857116621720242 15.681402517519455 18.173276985706064
Sr 14.012251776815006 15.077749676723359 1.632142096441535
Sr 16.175609397145244 20.636230084923493 20.04813314255263
Sr 18.32554499355729 13.529329720685945 18.025981499179696
Sr 11.918569001495953 12.548943998549813 10.062932348736709
Sr 16.677104354988977 19.27703722451867 16.044178615528566
Sr 16.568944668495647 16.832638335941066 12.720484047691956
Sr 19.732476341665244 19.366754191032168 12.715087041560407
Sr 13.664623351656774 17.040889699368773 9.955637738852435
Sr 18.00349190398408 14.399209849476907 0.23571610982385358
Sr 11.819002308615584 9.801204701019236 13.810481006108521
Sr 15.350447687033352 16.690695579136207 20.239662962285752
Sr 20.191010782509867 15.354925815944389 11.525458294111127
Sr 14.619466802979694 12.68104481202877 20.002504274187732
Sr 16.266528355727033 13.916839942363072 9.949429451328642
Sr 21.63248286680534 13.097766246739699 14.97304610352675
Sr 18.996600107274354 17.605848374386515 19.555879145353675
Sr 12.880056560161131 18.956799096884037 0.3562748533840016
Sr 1.204211379593252 17.06751718531854 14.210154542214184
Sr 21.029699132583847 19.773405632946684 16.75743742210625
Sr 16.93728482954326 18.236109651568597 1.5303934892371758
Sr 12.82472200588923 18.916296439732903 17.988513312559522
Sr 11.43365993847457 12.33074336679254 17.106722044880723
Sr 11.56695680475832 15.47155678514864 19.921980623054264
Sr 9.11855559748787 12.786270088583642 13.652328867250336
Sr 17.600620930927757 13.12912211669992 13.838049914570016
Sr 10.068305289702272 16.246248165466863 11.751950334496255
