33
Energy = -37.76045954 eV
Sr 8.5731638960229 18.351043157695354 18.01042514670416
Sr 10.10522840736363 14.452234413057353 17.522100180249126
Sr 9.67135898152978 12.553302673513446 13.8354126751439
Sr 9.109279752967561 16.779103426228495 14.140303352139677
Sr 11.030645782467536 16.63992180471936 0.005594597672069381
Sr 13.60648289708324 11.768171728109829 12.260618285089556
Sr 15.35639154127862 12.746611278156218 8.54031178487831
Sr 11.104783320275669 14.594285620373666 10.529412713466565
Sr 11.476262311300337 20.710107682632785 19.863921460868852
Sr 12.861174600077293 11.361453406195976 16.3190492869039
Sr 11.028141059592366 20.59425140964032 15.269776516748506
Sr 14.069536060803694 14.351343331431924 18.946234193729484
Sr 12.545123889063769 17.771498015793416 17.469707877851977
Sr 11.596594140489925 18.57538036007246 11.468272635733923
Sr 12.76345142126575 15.174502042650285 14.431679029589516
Sr 16.410202080198687 9.089471148444739 10.391692064735745
Sr 14.807049713886995 0.05218057579342181 17.502459308450074
Sr 16.35221311668613 9.59992529783557 14.579274426347364
Sr 14.968842846052453 15.852423995144079 11.147600628033999
Sr 14.738473667324735 18.8484830553615 13.987039115741286
Sr 17.555874765905283 12.595986409696273 11.981826679198054
Sr 15.00363941449748 18.0792875239577 20.68975342471571
Sr 16.32554030050926 10.728688264271652 18.579377964685392
Sr 16.37411005603945 13.671715334197653 15.608853678538201
Sr 19.596282977116896 11.40228793808127 8.8145542874154
Sr 20.04523874478223 9.478602082018503 12.491726057882557
Sr 18.731428970817372 15.354175178196465 9.340221938421102
Sr 18.342729855174813 16.70960804394833 13.287834873770269
Sr 16.811850577130873 17.38226634333134 17.098252497926673
Sr 19.718230840193737 11.59918875111873 16.117965170893243
Sr 18.173694941489153 14.316254808665795 19.46676499601049
Sr 0.26550984412733303 13.647132255619367 12.540764924590942
Sr 20.62461626871125 15.548913574729626 16.370315044199415
