32
Energy = -36.10229974 eV
Sr 16.320284715513367 20.86945752031153 15.178432444291133
Sr 15.399703352788062 20.607369089183837 19.476120951974167
Sr 12.524752925965206 0.7972625629069628 17.046769253874636
Sr 17.827426136636575 17.578752033347087 18.210388377459545
Sr 12.363756151137201 20.838093366038656 13.29203388697479
Sr 17.644487912809524 16.805001895095295 14.22634738484894
Sr 14.984461960773482 18.3094235204355 11.680244906901237
Sr 20.1441083782253 14.44009885240912 16.61224625045208
Sr 20.89834117213752 14.942924470991354 12.43869900901241
Sr 13.790156989018298 18.14049191461369 16.280827094732963
Sr 14.575394583488954 16.60379587056502 20.463501429605902
Sr 9.736959848658282 18.903320999237142 16.022090412068444
Sr 11.514734155143747 19.37029668673342 19.84724389095741
Sr 17.697616084583146 13.376675595706688 19.99383335818538
Sr 17.353533028280996 15.110149986135923 10.403132463556139
Sr 0.2791444655407744 11.242823654354748 14.027312771639275
Sr 19.521612443486216 11.42396765148231 10.420338962215814
Sr 15.402638132216133 14.426309341309235 17.01848786557949
Sr 17.7641862099376 12.563584751764033 13.85625415521034
Sr 13.474891644267831 12.609650361935001 20.065767947544003
Sr 11.166505477362543 16.88955036378654 12.637150810154518
Sr 11.181114130932881 15.583939538146504 18.254760164313733
Sr 18.126510447785456 8.712730542428341 13.65905356305334
Sr 13.25413941735536 15.15769704626694 9.372711058378972
Sr 19.597685054774985 10.496608533991216 17.42228156370041
Sr 8.77617543097624 14.680649607702872 15.032275701037722
Sr 11.084939429666003 12.517995010110425 11.98352498735807
Sr 15.630979526000369 10.361981176746683 17.295023266560356
Sr 15.309451776543877 11.614562225251305 10.318205698675696
Sr 14.267544985605227 14.422407070044034 13.173236472913981
Sr 11.981033594047256 12.260702371838937 16.122304061961632
Sr 14.062547879229706 9.933607511903789 13.648938959185546
