38
Energy = -45.04082958 eV
Sr 0.701738235327336 13.43667972542147 18.308091275388993
Sr 17.801309485127927 19.443080018772687 19.940793343698495
Sr 18.801469188905706 15.48265127119959 0.025238566934844796
Sr 17.921199912766884 12.5596327626963 18.41378873544165
Sr 14.911594654013781 17.534483714511964 1.0417607638923219
Sr 19.61596729339053 16.595315375241793 17.228574193101363
Sr 20.070642274213956 11.440868759463477 14.845123237705483
Sr 0.7540169613489922 15.016785151204258 14.411380250996928
Sr 13.601567465025905 19.630660785925553 18.695185927249682
Sr 14.860087983174278 13.44047395009465 0.15778357965628934
Sr 14.665420149251258 9.655598358238633 19.553709967881698
Sr 17.160259300700236 14.340663411588325 14.657121573894017
Sr 16.085927010272677 9.992015075063001 15.617652267461324
Sr 15.882998125836957 16.25504805206742 18.64639481776185
Sr 11.88766023575292 15.959270535165114 19.468921999198624
Sr 18.86175511222742 17.575003987264715 12.754949813385547
Sr 19.798928786971462 13.803999833816048 11.232661346611435
Sr 11.059194691747594 11.834707325345882 19.935009332208875
Sr 16.635509594854092 19.13126234980745 15.892081199422922
Sr 13.971711416962409 13.00523436794643 17.498650929045752
Sr 11.822616433432522 9.819489281830979 16.26425812541006
Sr 16.869788901349274 11.005747613809945 11.757000653834485
Sr 17.052885450276218 0.2735593341034944 12.483472502295617
Sr 13.399369378423714 8.657401887906607 12.48340800268411
Sr 9.968087015549093 18.637999815409728 16.570969283160967
Sr 14.716260080607725 18.30630982059306 12.328225052959453
Sr 13.200620958970342 -0.13036928769762735 14.750274202754754
Sr 13.566435427906152 12.453417456838686 13.64638912177371
Sr 13.249993000933985 16.697279288095746 15.515832933622766
Sr 10.27064928938791 13.902858932383378 16.00292498413353
Sr 15.769586902004232 14.887533991500439 10.723269906381724
Sr 16.885344770035836 18.793081602613228 9.136275856567005
Sr 10.678570755551545 19.08130616796619 12.338022104651985
Sr 9.960233000454288 11.157903776182915 12.631853783746383
Sr 12.985561258285015 11.96876638263069 9.749904570821416
Sr 13.521114589434449 0.1726916610023215 10.26409436777658
Sr 11.420376454826883 15.163786122721401 11.984575969999023
Sr 12.883325428446849 17.399526167844847 8.86422224451882
