37
Energy = -42.39390478 eV
Sr 15.031450151046124 12.71146771638856 0.4572560824035555
Sr 14.970513534955089 10.465808139791466 18.373128100230307
Sr 17.9667795016145 13.492741034548724 18.775794594665157
Sr 11.488751833765317 11.556235439388955 20.229640449693058
Sr 18.639287953139306 9.394337668199807 17.369849509617158
Sr 16.22789787751509 16.590416792446298 21.1558182518492
Sr 15.172779841376675 9.014855623809856 14.370389128204963
Sr 11.71935991109735 15.505545801999734 21.390696419011395
Sr 11.90541477898139 11.769602489493884 16.127068672686622
Sr 14.009394674574375 14.44987004663331 18.373806031403557
Sr 19.428583710191496 9.520341622243544 13.423796561236983
Sr 20.151377255529084 16.950530587008117 18.961558538049392
Sr 16.78792500221847 12.513356877657689 14.984852588545287
Sr 21.12523368069826 12.389690796284805 16.10892202921128
Sr 16.392111227270874 17.48669479726154 17.17146213644551
Sr 8.364157771031646 13.12468234132799 18.2326860549442
Sr 13.312104020755317 18.87975934450101 19.292312989426936
Sr 16.644778700059323 11.367648317855762 10.913449285672037
Sr 19.23398960390693 15.787338759837382 15.15752393685347
Sr 20.21631413546506 13.354155098253411 12.085766150994916
Sr 9.12601222882652 13.806441945417685 14.098728982845623
Sr 12.738262507286146 11.879256593699195 12.04402391500424
Sr 19.83365114211937 19.754539765349087 15.767506877296128
Sr 13.114357368366269 15.273781391997705 14.125048399180717
Sr 10.620513145911335 16.287564357239354 17.204894746457786
Sr 13.019933614569519 19.223542014778577 15.215690633031304
Sr 16.694852050646404 15.362587564568015 11.928490330214487
Sr 16.657652867219923 18.87783027243168 13.498946177928675
Sr 20.194690119304777 17.90190956091596 11.834479410855245
Sr 10.519317060550186 15.017521812555657 10.416970810353058
Sr 16.10841440545002 0.19515737302448208 16.254535581681225
Sr 9.715562301411026 17.816280558703337 13.307540126795645
Sr 14.31238323442086 14.464441412234336 8.9601252270962
Sr 18.646962287189254 0.5093802176718003 12.371789351738187
Sr 13.300768554729643 17.95893712449718 11.142840549364786
Sr 14.462092698441262 0.37098877329538743 12.175638272969163
Sr 16.867481594088055 19.025631036876646 9.560942722779961
