38
Energy = -44.38597005 eV
Sr 16.13620372038889 11.467090861550513 21.964327953097616
Sr 12.246148937655141 12.585235480520728 20.38827548476515
Sr 14.6000850487777 9.360084547855495 18.646632781752174
Sr 12.888703122685126 15.920259212095862 18.059252368809307
Sr 15.072087850260436 15.673367828578355 21.639619937069366
Sr 18.79822507062517 10.650033178581872 18.38509256285977
Sr 9.075140857305641 14.7782041605896 17.088632654522385
Sr 18.301214517299 18.935396644174734 21.245675096268208
Sr 13.990177582595237 19.444752558281365 19.759359965509983
Sr 12.384669360222421 12.208167349930735 16.232599267655953
Sr 18.891849758972697 14.444123673969427 20.613989261875584
Sr 15.690825717355981 13.128209224676402 18.434662712869827
Sr 10.508507415608316 18.83469640593437 16.46441645339207
Sr 16.34784376566721 10.937204416371822 15.033220618425647
Sr 14.481034383898432 18.760495834784162 15.606793491402541
Sr 11.747421199904531 15.656719608229931 14.219384771539225
Sr 16.817642195601728 17.024893601591565 18.24071450616778
Sr 8.264121039087557 16.982976918470058 13.316590442759615
Sr 17.152198081554292 21.22047250924259 17.74245481176677
Sr 9.128034455491585 12.813066347287627 13.339915074651554
Sr 20.438139884644137 11.588363493481314 13.892668856580686
Sr 16.021023055054336 21.897055473055513 13.676413418608973
Sr 15.542683435186136 14.89802118438679 14.34456934678105
Sr 21.060751917086414 21.227045837772582 18.804880835181493
Sr 18.827843389148875 18.402557527846593 15.14985618118231
Sr 18.98414546650916 14.236542151303288 16.371534512242153
Sr 12.154194122607283 19.186983868037302 12.347832997649325
Sr 17.22836280022143 11.552441389450212 11.139250642342793
Sr 20.002202483971605 0.15951969994250667 14.887517732267497
Sr 13.182217184529996 12.117377856212324 12.187657453824619
Sr 21.145444162047674 17.1864815732663 18.386073994943253
Sr 11.002397129483155 15.341153626579604 10.408704175531888
Sr 16.296246327191657 18.355066489527324 11.870539350827501
Sr 18.92548866135716 15.187498108746782 12.125501660895466
Sr 20.632747492057437 19.29460057794147 11.88222023474491
Sr 0.7127770189619427 19.637410731066225 15.515221839067085
Sr 15.155675175752668 14.945020351205246 10.03777283981886
Sr 22.193785781025518 15.752417697903542 14.426961716599045
