36
Energy = -41.88327987 eV
Sr 17.78662275384272 14.946874992926782 0.11876087786265255
Sr 21.236961889714404 16.348604601867507 20.690485020936638
Sr 19.684037579954357 12.224536629842776 19.90981537711405
Sr 12.504607409589692 11.324723078263705 17.572306183691097
Sr 15.590305611511651 13.826534561430545 19.38645050817673
Sr 16.81172689088519 10.703214614048004 16.93376769059408
Sr 18.2497766914941 19.08183056866853 0.16837911055335095
Sr 14.569780581343046 17.402002511887243 21.582764677086757
Sr 14.2623895484542 10.338945247425919 13.594446418360286
Sr 10.983714942167458 12.951492593229952 13.590234123535462
Sr 17.83816164925882 17.385131401644564 19.078763540551623
Sr 11.890652354033906 14.30175131516317 20.889801231508613
Sr 0.35746041471582285 13.93171762625568 17.593899062914005
Sr 20.780685082492994 10.987617094949064 15.719742823127143
Sr 20.303386163128316 20.51857606705053 19.467149735298122
Sr 14.647872013309101 13.824867543373003 15.429079779002647
Sr 18.78883104884718 14.291994168157704 16.742876965094514
Sr 15.829608518000907 20.78117024997961 19.190153434341173
Sr 21.22904965725437 17.59143858684715 16.64982597382432
Sr 10.725094628887486 15.023058165891813 17.115190090366138
Sr 10.65645187986627 19.233992012866544 16.496688138587153
Sr 14.140711873983403 17.26278741697255 17.53551060431188
Sr 21.283896472634588 14.766672175163901 13.583277860763854
Sr 17.85414120470199 12.582252041370438 13.11797707852595
Sr 14.474973092060647 14.128082600499518 11.382954179748056
Sr 20.881613141381266 18.771202513722592 12.789008164029406
Sr 17.06296776795522 16.969288530961393 14.068322986371133
Sr 18.36081376887352 20.41766971107324 15.822882100127556
Sr 12.396797436196056 16.740163524725105 13.869851233818032
Sr 10.72434573993693 15.961697383392762 10.399464970565106
Sr 18.369251631254375 16.26090585783686 10.435906809533341
Sr 8.467856958348035 16.560716577556878 13.865869685977282
Sr 14.350248302174043 20.269940040202084 14.564666753465458
Sr 17.434733581911 20.520833529156757 11.70504259474017
Sr 14.370077669134629 18.177317997265625 10.738170608300582
Sr 10.704847470029486 19.83392631923751 12.223603860085296
