33
Energy = -37.96080093 eV
Sr 16.35577206987583 12.96249452355668 9.239576317373709
Sr 16.186550803682668 12.160574681939323 13.534544540877315
Sr 12.864221631137285 13.71183439385037 11.531639277032344
Sr 15.763372360951559 9.282325352250435 16.85228686426427
Sr 12.503972883595724 11.700814437829514 15.37369717567918
Sr 19.690285284889093 13.768746050292737 11.764744408995245
Sr 14.162832096399496 16.535012779646525 8.537390637873788
Sr 18.38113313218013 16.66156292263042 8.669500820199932
Sr 19.291136919161666 11.474722206657109 16.273439264406907
Sr 16.22274256170838 15.963289910560727 11.868156058147461
Sr 17.41062055103559 11.444730989193078 20.515872701458875
Sr 13.18133833577228 11.007399753051597 19.5979869686393
Sr 10.026478091601412 14.921915120169416 14.215743088552978
Sr 15.73971090213019 13.188109734310974 17.511683781639853
Sr 18.301402259238106 15.310250713037256 15.243520377591995
Sr 12.380334399734265 17.882519286391506 12.15061875335927
Sr 13.956751569040216 15.799286463562776 15.182503026859534
Sr 19.941859964825607 14.549940375101597 19.02872131620049
Sr 19.694124308908115 18.01422628275038 12.43866453683378
Sr 16.886981461231322 17.130265568834748 18.616269196540777
Sr 13.354567744462265 21.351904717842434 14.105750618771442
Sr 18.07683305332604 15.185067556985882 0.7075909233895497
Sr 11.444788289437463 14.574810336935446 18.15250117925591
Sr 14.422017698326725 14.760150456494644 21.02114488079639
Sr 10.970007307474877 18.429441945098908 16.2238626438855
Sr 15.955395730574802 19.785267937835947 10.853965658790557
Sr 20.453427686188398 18.28878503378534 16.80807838038248
Sr 16.639065194811003 19.138230739007284 14.950567470389078
Sr 11.78921781526035 17.901597362026926 20.47081483257807
Sr 14.107136972048037 20.125579593818053 18.085779383022864
Sr 20.02972409982434 18.34615732698036 20.99889025188977
Sr 15.771724521799658 18.848102745008635 -0.0337508066022277
Sr 17.991676160036153 21.093812003841695 18.67244804851139
