44
Energy = -52.46170218 eV
Sr 0.006434050036319475 12.93962933465175 14.571874007346329
Sr 19.981729185685342 12.478845648128587 11.032517735067675
Sr 19.15951834505169 19.785636378413628 12.756871319475772
Sr 19.111169747701922 15.563227949750768 13.694691468035638
Sr 21.784737872228398 17.47391412737369 15.706557185563407
Sr 20.59043244408959 9.005722440126743 13.511536731344812
Sr 21.291220408703705 21.553140654594646 16.197674560549206
Sr 20.88514502371728 14.258716831997932 18.244571360468694
Sr 18.34010125301282 16.588892471607924 9.830739815655424
Sr 20.674991729027855 10.139371790498258 17.51299097293173
Sr 17.809604756085715 1.2250870381274634 14.945106701047933
Sr 18.367668350372142 11.965665929341672 14.810631730991494
Sr 16.164091572568037 13.595453903105765 11.697122297149093
Sr 17.661729352058934 19.860947380177755 16.3297831729101
Sr 15.803897667403449 20.081982350670714 10.015586689409021
Sr 20.271692475568674 18.646490974536043 19.317369693930996
Sr 17.596140480783617 16.22710456960955 17.397772888744413
Sr 18.46696302697499 0.3712552168293202 19.090673483974545
Sr 16.756839171627565 8.726718474369017 16.012647804321738
Sr 16.861659772923854 9.615596815744476 11.65218148044022
Sr 15.696042615143828 17.37626979985919 12.942935164388329
Sr 17.24032104510574 12.240331243770088 18.81668452538392
Sr 16.244001503989185 19.093125398165583 20.03243940505044
Sr 14.183329961813849 16.24505649165098 9.199396286896249
Sr 13.458630272801585 11.793225730205744 9.564762132927463
Sr 17.992401434542522 15.410814213753572 21.329501406153067
Sr 14.482827226897228 22.054956589674717 17.81287860770769
Sr 15.036565508276516 14.022869045952831 15.602495727830975
Sr 13.58306094832371 10.90498087532411 13.769046261510171
Sr 13.80148789202931 15.347256212779252 19.451058858417372
Sr 14.615119142693688 21.168777848547297 13.893614013225044
Sr 13.522809051461627 10.923400581126131 18.062760655169413
Sr 14.69857419487319 17.049860307234024 0.9727884823753361
Sr 13.400327081128241 17.826765660151878 16.282125378940155
Sr 14.257430135342721 12.736886761696065 22.23177140816242
Sr 12.3387246926424 14.790853980155065 12.526363163878546
Sr 12.010463327649262 18.84308053233917 11.937896613390816
Sr 12.245447226960632 19.418194691386944 20.387395106883332
Sr 10.464627394429005 12.73536926546449 20.11221352079444
Sr 11.025508036542869 13.595750801305522 16.174591922956868
Sr 10.965522420394963 15.896473596660634 0.2446394468691108
Sr 10.694694582572941 20.59867674061778 16.240563489709253
Sr 9.326148768376372 16.99430636929043 14.45251587726613
Sr 9.839744079324234 16.740892831772637 18.523865628038113
