44
Energy = -51.68545176 eV
Sr 1.3650852824976576 15.885172134388135 20.573013994451333
Sr 1.2263237494765273 19.988561700658384 20.011230542346738
Sr 1.7996051471851873 17.43466189852386 16.76005924817474
Sr 22.67332322581396 18.14533321426286 22.665632776688607
Sr 23.46977997758698 14.029644846191196 17.203971805077874
Sr 23.454015398168004 20.730521468320624 16.2991067964301
Sr 21.946195776413695 14.054566877274892 21.163824010627245
Sr 21.62924563757722 21.57628957730322 19.920579013244094
Sr 22.411794320285196 17.563395544199828 18.818200513463495
Sr 22.444914608711997 17.146484759905327 14.713497802831444
Sr 19.32422495470064 15.762957862443587 23.856581594163867
Sr 19.917367784395758 11.996619297940793 18.05325883050696
Sr 21.240680217760328 13.17170647377633 13.608058688846171
Sr 20.352549453830132 23.45729222856846 16.311423731851516
Sr 18.684593745244644 19.211551440191425 21.432444762877683
Sr 18.048716088883076 12.184405807494839 21.895919865566317
Sr 20.211474251137954 20.492272532744852 13.252681839994903
Sr 18.907030740453962 15.375782906897262 15.851199972599003
Sr 18.454703582206267 15.52552295621051 19.812168718923573
Sr 15.513876366324354 17.11888504318703 22.869292808660365
Sr 19.350776113749752 19.469654329935516 17.086000505631294
Sr 19.895784882642346 16.802495908968112 11.667095820418414
Sr 15.626879544120753 18.156122640855443 18.778411850767803
Sr 16.254359094560883 18.248814819681133 14.719106463284097
Sr 15.788348612079195 11.0895380027002 18.382709994030005
Sr 17.34053773306509 22.386615576815135 19.04618248019289
Sr 16.77363737751178 22.216033100312693 14.763025684837794
Sr 16.557802321683184 19.312966111921444 11.014738610315034
Sr 14.646017690044202 14.17531915542157 20.494648655407403
Sr 14.76476021222656 14.560502375241981 16.2026247096121
Sr 16.718326343059136 14.707246730456694 12.387882642579017
Sr 14.146397462045291 20.81108812592488 21.476610539006117
Sr 17.551614369430066 11.4397590560223 14.734278021233113
Sr 13.620985591445955 21.627850171986914 17.426510339689962
Sr 13.097455432713833 20.751008909400717 13.318636042195239
Sr 13.232435558140319 16.84368368382986 12.357746868169448
Sr 12.208437662120705 17.950515360772922 16.28074704596969
Sr 11.244739597173039 13.948652652831179 18.416445569735842
Sr 11.973668238097218 17.380942952367665 20.459763028226032
Sr 10.547931265932945 14.607870680114004 14.531577218022637
Sr 10.248582564652331 20.901086888690983 19.790750512635327
Sr 9.768910422626575 21.390380340572214 15.849372381568735
Sr 9.491766758123058 18.352166429278476 13.243085845222343
Sr 8.544209190401435 17.43964480516129 17.518838827721748
