44
Energy = -52.86621583 eV
Sr 19.56175241348726 10.111442821957922 14.499440985187054
Sr 18.163544085485135 11.007036409614585 18.290656033966968
Sr 0.4429316754837435 12.822445157632645 13.905785838157332
Sr 22.290529943160767 11.553709141432423 17.780434670831706
Sr 15.81078437556892 8.581006901623983 15.571172921023926
Sr 12.440849235293719 10.808887981426194 14.304500314349434
Sr 19.17368769588414 13.303353176097904 11.980488180380286
Sr 14.081775924645497 11.167249250184634 18.472107748081285
Sr 0.6518230771190292 15.725888580641568 17.19261026319514
Sr 16.119285954481203 14.667356235346052 18.155193900255096
Sr 15.729927555618582 10.41940367027403 11.588699960395092
Sr 19.67274816245574 13.939175850363323 15.969859184119963
Sr 11.420263016852655 13.92367074959634 17.127218996654396
Sr 15.977980947367234 12.6407719607942 14.825076133166487
Sr 21.292595147563684 16.726856837095458 13.664206509514331
Sr 19.989469769310944 14.735046917144555 19.926153058631744
Sr 11.86731060882542 12.466263497474516 10.204417305343894
Sr 15.655677746139384 14.502123587229443 10.450711140815761
Sr 9.039888468231734 12.988907776640966 13.63002756434075
Sr 19.105716515647853 17.07384267926142 10.158845805167857
Sr 16.611451015876607 12.847916232934903 21.665398882174493
Sr 12.604389495651318 14.907114199356958 13.057429172972771
Sr 12.745203278294781 16.777188513227472 9.089267588102134
Sr 9.25617237881431 16.049709770790237 10.971318059224906
Sr 22.001821781389495 19.771986322646065 16.544380481474615
Sr 17.051834941718315 16.591741916400863 13.660282636979122
Sr 13.161417492316703 14.909678162644664 20.81716246487782
Sr 18.505628834333447 17.777235684763333 17.140729822102667
Sr 13.649344809417903 17.124359408336403 16.047613412633925
Sr 19.19759108140744 20.173334882387977 13.420020363739871
Sr 20.160776841543672 19.345696582701272 20.467898121099022
Sr 15.740043819171046 19.198187568084567 10.812490632260104
Sr 9.574881616045761 17.059940385469968 15.122538029782959
Sr 16.785825707870767 17.13012011380978 21.34117738139219
Sr 12.103266796268136 19.00749308322419 12.561533008097832
Sr 14.778166191150111 19.53737174292916 18.92149463193997
Sr 10.905545394297665 17.83879222043209 19.15792871258678
Sr 15.454043886865279 20.594363175895182 14.837352382397906
Sr 18.34844991154214 21.753170258298972 17.631762716172055
Sr 13.222644863442913 18.636179898527807 0.25095852633975063
Sr 11.643437333483165 20.77392527068748 16.41425964370327
Sr 16.407228846300768 21.52311584636165 21.67154055633467
Sr 11.89419056572096 21.852660776271286 20.57639324477447
Sr 14.635002861282663 1.0533845933585526 18.01089115355381
