47
Energy = -56.42012059 eV
Sr 10.291842690871379 16.151238229796345 16.496584145787015
Sr 13.790509358789874 19.324403317405995 21.550790240143805
Sr 13.735138077393543 15.246643764771548 22.352821168615716
Sr 10.55357655435335 16.994175489699707 20.468661952153187
Sr 8.128974852954086 15.057459269058167 13.171614290401413
Sr 16.378287718182897 17.80391411709781 1.676052401105931
Sr 10.652174458313267 12.070179737766903 15.217559662637662
Sr 10.303684835078501 18.799849904709415 13.283913804369007
Sr 16.02880561530998 13.037761004423986 19.70280505761132
Sr 11.619977125653557 20.002751396435542 17.704279499617712
Sr 11.971408145064784 13.218659496669478 18.999407016229178
Sr 16.036394644427048 20.32259173760222 18.28434229354269
Sr 17.6857785178604 14.022943409117408 0.6180838703364462
Sr 17.040390079736838 16.884396946873032 20.77249351439674
Sr 18.064736789405927 20.67199931272002 21.90806592732816
Sr 12.245336792723712 15.190995480906345 13.11657346123567
Sr 13.92708180860006 9.80153602740337 17.317440423465037
Sr 10.15575152435716 12.329066113163485 10.912357287237741
Sr 14.014626806208911 16.6433818712011 18.116889537145255
Sr 10.226869793508369 16.267997403491268 9.775533459420856
Sr 14.242077817811381 19.312042888911638 14.638592127427172
Sr 20.443714236172482 17.355286602381856 0.03124162054974749
Sr 14.94202093441509 13.154700731371104 15.634175752756102
Sr 20.212893148173357 14.244733214918508 20.145370735219828
Sr 16.82246101261021 9.179091050466555 14.34690115085141
Sr 13.530226316161484 10.82888877511148 12.617341773689995
Sr 18.474514877206342 19.266694283107316 15.255167002828355
Sr 22.292675977071358 20.850432523840155 21.38213001209552
Sr 0.6414214217411004 16.946959024112836 19.542791141545653
Sr 13.822193860777125 18.13716889526044 10.62321104519934
Sr 19.66735700830206 22.51211839222234 18.172482574907274
Sr 14.032593624432657 14.073830877380502 9.775423673608953
Sr 16.390808594386858 16.29916468130288 13.196061584951734
Sr 18.658842186469915 11.393325778113214 17.14545324119087
Sr 16.813038113886034 0.024781613068018266 15.03189699236872
Sr 20.09382523169358 18.605105031862024 18.95760609827684
Sr 20.68531270773144 10.76134749806437 13.661336641051177
Sr 17.173588915719872 20.362527415741415 11.65782169453678
Sr 17.26534454901851 12.455588941419375 11.912222599678929
Sr 0.47107611377757014 20.83406850860321 17.44851280585565
Sr 22.193480871672506 13.633480784873196 16.60141242777548
Sr 18.244858178406 15.500691962382758 16.85486335015781
Sr 17.787574065666362 16.276100073768966 9.60267605341792
Sr 20.964859544216747 22.0244361555247 14.124636693859468
Sr 20.21320862122847 14.80754089455391 13.166448536378562
Sr 20.705949434664344 18.534108045700986 11.80574366186916
Sr 22.138395490897963 17.552337487823433 15.51960183557595
