49
Energy = -58.38055437 eV
Sr 22.591657775048926 13.4554922614567 12.890463073004005
Sr 0.41152771355323814 16.72071809874514 10.518068265507837
Sr 19.487714604169323 14.965490280914926 10.332228648848702
Sr 1.701417276245792 16.829236849810496 14.686008106645376
Sr 18.65370875049031 13.252756157266079 14.06911083863109
Sr 21.443581957662683 14.395822807629838 16.8480913708988
Sr 16.273145765344644 12.537914534193858 10.874329821236206
Sr 19.583229510190847 19.026623342504113 10.417202988996653
Sr 16.52339455875942 9.660663156720732 13.843453468479817
Sr 20.61217756936473 17.001600957518775 13.790346059591469
Sr 0.40188150790705623 20.234999415043536 12.47189958535992
Sr 15.859522750207635 17.08617486090231 9.140052989078713
Sr 17.433937262378286 11.551132345191109 17.611292795478885
Sr 12.902599117730059 14.405943905652876 10.586121664977085
Sr 1.043334196316729 17.117625974718088 18.893100916121746
Sr 17.23174814455469 15.54175359017791 17.293474353063562
Sr 16.449030323634435 16.536119270799993 12.97841677055977
Sr 12.55488167703585 10.619558126459905 12.43860098535616
Sr 14.442398458556768 13.255675425477738 14.628929822296474
Sr 19.589110003355078 20.956350477115134 14.231545952311688
Sr 16.046658228936604 20.56787236246887 12.038493483776865
Sr 20.568018849847792 15.471829274914533 20.7142909379194
Sr 0.4128885961569192 20.423545413559 16.57058276707471
Sr 13.527544189279965 9.742307595917021 16.679253600725286
Sr 14.905010979274305 9.95791932069722 20.51940451715659
Sr 13.715349414393236 13.458279265904357 18.60316345850563
Sr 19.97565814807879 18.409878733213095 17.808615475871587
Sr 12.537954958583148 18.171499216024284 11.893023030734561
Sr 20.013893513827806 22.582607969174823 17.918761368183876
Sr 10.340553522522304 14.952906122754452 13.616841370621879
Sr 21.368144058276417 19.97731140638894 21.01190995920611
Sr 10.115874818369726 11.567074361309151 15.768565370357283
Sr 16.71992702903358 13.867111337116176 21.261672380904802
Sr 12.807585479676503 21.309140776763886 14.32769627320759
Sr 16.23465157786985 0.4442068867943135 15.91194398270366
Sr 13.058286732728607 17.112877671794926 15.88516911534214
Sr 14.379854720716052 17.39067509931663 19.66493877952113
Sr 10.765841162650586 11.341185533733228 19.961785939489406
Sr 13.322880942836342 12.42255936489039 0.4439184533392074
Sr 16.312705177295946 19.395587452853306 16.12817161118226
Sr 17.721153413283933 17.969569711680766 21.839602871037304
Sr 16.837463233411622 21.235264706919974 19.873763761462953
Sr 9.567891028490973 18.807923066496368 15.278292991363529
Sr 9.96081719391953 15.095337391008414 17.743893338714585
Sr 14.689045516923834 16.232890842817024 1.110113785197104
Sr 11.346105048737432 15.511751644633039 21.661989786007517
Sr 13.213806467108162 21.181085797964453 18.210112814060583
Sr 13.431505610999446 19.933795469742655 22.328991671722115
Sr 10.379523931112601 18.785643729899604 19.427390149210094
