41
Energy = -47.97823429 eV
Sr 15.47183431442373 18.316928623194485 1.115795730186523
Sr 12.676393684716025 16.826037719903322 20.35784680248902
Sr 11.381494997565587 12.761305529563591 21.01787279277875
Sr 14.954245005010499 14.169159623109733 0.4932100981811227
Sr 14.934469560392552 20.124411721426245 19.42228349438606
Sr 10.771713433501738 19.536997003980737 17.638966466503014
Sr 10.300629357832076 14.900958519531802 17.733314110467195
Sr 18.10529591700784 21.96690574526662 17.38515133401055
Sr 18.977585699072474 19.586460382799284 21.027542710022395
Sr 18.667536848377974 15.819939912370804 1.2624727398908697
Sr 13.204876564040202 17.213067081371804 15.641218369986067
Sr 14.622644880103014 10.385952115449463 20.66786855986762
Sr 16.886709612479837 16.638794231105138 19.566358245799822
Sr 14.384710920214967 13.772937518357464 18.116846582123554
Sr 14.307577867194647 21.218650676719072 15.680178748259696
Sr 9.022362434123446 17.065063280345736 14.529612280523457
Sr 18.05895964079641 12.772472921770346 20.17626280677025
Sr 11.129419561338057 20.311321287103592 13.377277366529153
Sr 12.103285866730081 10.74316462688993 17.210233499123376
Sr 17.796152211363992 18.85008353755329 14.806008850363767
Sr 20.93089758736979 15.659426296259186 19.870090192083154
Sr 20.99175416761315 18.89051260749494 17.394085215739032
Sr 17.1082776995308 0.58430838091151 13.09729983185108
Sr 20.893600861862154 21.600178486300255 14.149395782189572
Sr 14.930335120425832 19.10252406374451 12.064074132678277
Sr 11.74296048968692 16.701425999408897 11.400571509282692
Sr 11.368916978618957 13.535449343256067 14.09668030146618
Sr 16.556174680984018 10.520997509618285 17.03678953075749
Sr 19.12354523253692 15.178424896318809 16.107511683773687
Sr 18.950441717583356 19.60650593320458 10.851295972660214
Sr 1.3654315184950037 15.439901352065027 16.60260822576631
Sr 15.13083336577676 14.682227879593663 13.047761104171853
Sr 20.959667481769262 11.868085480827938 17.19630931768369
Sr 21.759252194010358 17.664117697424228 13.485363956046964
Sr 15.425408019379717 16.18975043092393 9.19702761770529
Sr 14.356296903819782 10.695858231968534 13.428108264308033
Sr 12.739353340031565 12.934421159970746 10.131644962296196
Sr 18.327653342130237 11.914117853902736 13.754381320051417
Sr 18.738271957169243 15.626880309598372 11.770092555866942
Sr 0.016448012184451615 13.506066035785766 13.305808735484659
Sr 16.74497291445855 12.330563720568923 10.046141237281812
