48
Energy = -58.76281559 eV
Sr 16.925045366414633 8.726071991153272 16.656593764142425
Sr 19.535645908965773 11.585488996750415 15.164444830432087
Sr 17.360820118084153 9.369594359585026 12.431573722774912
Sr 20.393322078960367 10.137322028423046 19.02910324303647
Sr 18.56476931439707 13.312226517096015 11.66104854599181
Sr 16.7882263906057 9.39909702338625 21.001550804586664
Sr 13.394858086876557 10.579940918394474 18.44378377030735
Sr 14.79414133920615 12.136270119249737 14.3544430062678
Sr 17.127982594964248 12.242171703582578 18.32234653599501
Sr 20.659950829292423 14.450176354044917 18.164867535859315
Sr 21.580742800679058 15.248737061041368 14.335186237085747
Sr 14.926032172546819 11.94804301774333 10.09307386442405
Sr 14.879443693813338 13.12934516775644 21.72617768755991
Sr 17.267831062611105 15.176850897850226 15.19885967163845
Sr 19.08163401646434 13.127475816769792 21.85645309806657
Sr 22.55009404939584 19.300970173213024 13.667354417693785
Sr 19.16153966640516 17.55261231155368 12.105204188667953
Sr 17.1636197294486 15.950117993616503 19.636269245590327
Sr 17.144439241496773 16.615669819813316 0.024347537433151954
Sr 11.639186684236652 14.315182714337748 11.585600480662333
Sr 10.814877958797789 13.632265130190506 20.26169862964144
Sr 10.643543904934768 13.42321591259442 15.850205164777456
Sr 13.863608962160335 14.452726999267522 17.96357711427704
Sr 15.452825513141345 15.907410307097948 11.190637969531886
Sr 19.23731353649126 18.36173923757971 16.409091323624946
Sr 20.451097852298794 17.746202666112744 20.939938773765196
Sr 14.82434642450488 18.205528714492846 17.566590964122252
Sr 15.861774695614464 19.068767065507295 13.841474859016731
Sr 13.434154958206195 17.021552829690336 21.244803087234605
Sr 13.11779047622814 16.30061439840393 14.548973318703457
Sr 16.540574155325714 20.156215142190437 10.151595381857401
Sr 10.825308831179761 17.27546384971743 17.91458002382443
Sr 23.06454329191269 18.060927350386827 17.568035468650663
Sr 9.38719092685771 17.249524536377333 13.869142092381788
Sr 23.28649759280901 20.956577958154845 20.615812778774565
Sr 12.541211297992353 18.947762219113084 11.447616087624931
Sr 19.708437555457113 21.31584164778417 18.885184375724013
Sr 16.59370294712032 19.771699260618874 20.81489369634756
Sr 19.039177004063166 21.600557778808138 13.745767826736941
Sr 16.08730108301946 21.826252941786326 16.899472377923626
Sr 22.54498804106608 22.259759103181395 16.51194102401349
Sr 12.816156769023204 21.04279352683198 19.55570350767544
Sr 14.875747018911554 22.793265574503742 12.977288267528252
Sr 19.730709483101997 21.52439898762158 22.87995109126371
Sr 12.180515244158347 20.34325711042981 15.329611602967525
Sr 21.26643708421162 1.0911389913930845 20.216514305566882
Sr 17.001460296518022 0.36252394662619863 20.41881203953265
Sr 18.95620696126155 1.1507977218155085 16.653783943242615
