46
Energy = -54.96333021 eV
Sr 22.79092956571273 12.284809207012074 20.69583713776626
Sr 19.179861724361384 10.954668177799013 22.42455106257601
Sr 20.864436109923332 8.724419892467521 19.176107965278526
Sr 22.65667689441691 11.719513126461695 16.574975231719115
Sr 19.703696680176456 15.195342130299464 21.684161417568642
Sr 16.37364964865386 9.668785153973031 19.182887678342357
Sr 21.71244757650287 15.572065604227223 18.08640058783221
Sr 15.946705405765915 13.4423585503434 21.14169724846897
Sr 19.294603624322658 12.421042234043608 18.823786270418505
Sr 18.63523798647554 9.793312294749061 15.707203281220826
Sr 19.548052620237577 13.762132543539982 15.021615747253005
Sr 19.328254936312952 17.881861975091574 15.569184174774838
Sr 22.905466837798762 15.976812140240938 14.219130167023751
Sr 20.180305077323116 18.911070829753307 19.87548649950192
Sr 12.7401470563412 12.070476660752968 18.882091939713167
Sr 13.963762161374481 9.921937503394645 15.32923877859697
Sr 16.22568942052332 17.780027948645994 22.13231032405669
Sr 16.692286328290447 11.998560410794031 12.663396942506374
Sr 12.409546572562318 15.71702289217668 21.10650369173725
Sr 19.622600289740852 16.11165764514344 11.680317904205943
Sr 15.965877930515694 12.972109309427523 16.625988076958144
Sr 22.83016223486455 19.54703063530208 16.69242345201654
Sr 16.860330505104088 20.953258365985175 19.329140666024877
Sr 16.88313935031494 16.491411955482228 18.495384094672335
Sr 12.701215768138653 15.970874666594957 17.011017282437184
Sr 9.139676407234628 13.960510085415129 18.87086083387797
Sr 20.782629286181937 22.952764769052077 18.700961514054384
Sr 16.247076310842147 15.896567572509564 13.950536959562005
Sr 13.177914896418638 19.315378829514295 19.45888889108605
Sr 15.185159598708852 19.269327119512173 15.902901324745088
Sr 12.92552173156708 13.661240062856715 13.708674157419587
Sr 10.035632833786694 11.695332884403951 15.74360371445125
Sr 9.303016715461718 17.894879761162326 18.775757340270577
Sr 22.404044950117896 23.233377568604933 14.827546175474652
Sr 21.34840875292962 19.909518412457405 12.709939848019715
Sr 18.101532581170176 22.185355438598123 15.704607138389642
Sr 11.196292334146696 19.896993752819526 15.709476488696689
Sr 9.33077821368468 15.971940178810225 14.924097618728252
Sr 17.065614996877613 1.4759280030429898 18.812791008248997
Sr 13.02712997231528 17.90997114214376 12.742919411585005
Sr 19.78696887011328 2.4183861830689963 15.91798229296954
Sr 17.253752451790564 19.640324365478424 12.323009963688234
Sr 13.841705433929846 22.91796447664281 17.24119820839792
Sr 18.916658071862493 0.055974658274614064 12.271761973995561
Sr 14.24812797828515 22.221363010708426 13.289339903849479
Sr 15.899808302411058 2.0788312715708765 14.828278727992338
