42
Energy = -50.20900553 eV
Sr 20.92538199819801 12.385740144171839 18.538333651462292
Sr 20.546100437566825 11.10546087350041 14.369568377300784
Sr 17.54348244206695 10.045791932163814 17.613142838785443
Sr 20.004696589106747 15.196083404125723 15.742184866221242
Sr 18.018315728556523 12.65513654311523 21.628672885248314
Sr 19.9491960401419 14.873211381960191 11.669048969569186
Sr 0.5828939944097767 16.704071282472913 13.883648033723022
Sr 19.668380705847618 16.168251064467437 19.94942645110231
Sr 17.091730440883165 13.823639694861575 17.8283276176164
Sr 17.176436702869044 12.69887944770765 13.918416707283262
Sr 18.039787293558263 16.614249583855162 1.1284194758130495
Sr 21.933493188775863 18.600896155928154 10.353813833112754
Sr 21.444867291116267 18.792933632199883 17.295699825912287
Sr 13.89386229231949 11.65769577169409 15.958867968798746
Sr 16.439646574938063 8.936892544836343 13.669105399569958
Sr 14.690574847539914 14.025063061664216 1.3364862790555045
Sr 14.14432501450563 12.178959240876699 20.146767749868825
Sr 19.713940000260244 18.560236652261235 13.630062623643102
Sr 18.23717670896711 11.0027904549681 10.556701198237333
Sr 17.492727028570815 19.819425383169488 20.636659531080728
Sr 0.14842342191447638 20.90701791957112 13.875378907437529
Sr 16.281698944628502 14.533974036854017 9.828683491456285
Sr 15.751461935561899 16.002916479374164 20.827293098498767
Sr 10.407818101038968 13.019126293699198 17.984459866321483
Sr 17.65012084774085 18.30176452363433 10.186241921062681
Sr 13.910301852190083 12.083284771636258 11.846737848219197
Sr 19.555177228494646 21.90274827497593 11.554614435501355
Sr 17.076507101337146 18.168739464569164 17.053211749861514
Sr 15.985053121747484 16.238676442662733 13.725830044444422
Sr 19.050197553799695 21.82295760172721 15.926388869350724
Sr 14.067305672745778 18.307572290675616 0.7700748662108275
Sr 13.419973828171855 17.444118608014648 11.0475358229339
Sr 16.026977862048003 20.41653346446067 13.34562424807319
Sr 11.718203350697136 15.49389640625657 21.26213555439316
Sr 11.618467427555103 14.900523121294478 14.150852558791993
Sr 13.559030945902748 15.398174037920167 17.53102025629537
Sr 13.415477554485888 18.899965628325944 19.448752319607234
Sr 15.054259776451893 21.855313124250003 17.236268015660286
Sr 12.905255516933703 18.766738748322556 15.320916345544624
Sr 10.066891866273767 19.33577582881977 21.62282312118018
Sr 9.958655382903377 17.237535638678875 17.843944635007112
Sr 10.738949151508674 21.424216661970128 17.869437489638017
