47
Energy = -56.7527518 eV
Sr 22.22394935804726 11.995153551268816 15.411436851947544
Sr 16.0259564286894 10.40675744322627 18.952278819804047
Sr 18.262221335606508 10.527293390031362 15.239733623359188
Sr 19.41554980777373 12.713153042098806 18.62496326670362
Sr 0.1333316405500629 15.672334354270781 13.141047907028652
Sr 19.93400219657248 12.62071588984777 11.726538344682128
Sr 22.239461682807907 15.588306986449176 17.732392103737244
Sr 12.170754559368802 8.84510371015945 19.45026106392641
Sr 15.875682777206316 14.467163646641868 20.011108082957364
Sr 19.582369865636657 15.659631501797742 21.81874444212473
Sr 13.615002839002184 11.907565763750329 22.16285050023141
Sr 13.893893917361913 9.783137906243425 15.513769799453861
Sr 19.281957513167654 14.63313328935306 15.059028281592099
Sr 15.732561117331258 13.600446102378895 16.07341597002751
Sr 15.74110849530764 12.007520298021076 12.228058082749028
Sr 18.380650065338113 16.87511277779929 18.237459387081824
Sr 9.534583209276757 11.980140318227576 20.590772421418315
Sr 21.425635759064242 15.552997070064778 9.05129436546122
Sr 20.506212532041438 18.59477053315191 15.263010236571745
Sr 17.043450807262086 14.443346895672166 9.032172638821045
Sr 9.665595139465996 10.59432835694928 16.577893418702605
Sr 21.27883958873564 19.183898897899127 19.731722868954662
Sr 15.38065440093251 15.974248507807415 1.1296116361725546
Sr 17.341907685400145 19.247059154207083 21.64345900385931
Sr 18.622908119861915 18.41685546395433 8.161666279416714
Sr 12.021948308871034 15.553938474379343 20.911191970485522
Sr 12.72070590211868 14.022003179299466 9.852845735937949
Sr 21.510098668013775 19.471156297103906 11.243756065637276
Sr 14.652917694974873 18.304366359903117 19.03983869872967
Sr 18.746700655466366 16.679847529877257 11.795377553147393
Sr 17.98719942873999 20.948000965517963 17.877770294263243
Sr 12.632545038742137 12.603895792838989 18.222322293517337
Sr 9.371849673220433 14.855585995320594 17.29496028259868
Sr 14.59176139246266 17.813410435565224 9.118892727865044
Sr 14.798419947365028 15.921531016988745 12.579009302867155
Sr 11.956951879918876 13.12590436656983 14.026544723340745
Sr 16.255602790150782 18.59987768188419 15.09905861763011
Sr 13.110819296590499 19.38116741772617 0.02351312149073487
Sr 19.899583521230184 22.418105910609242 14.33440827060336
Sr 17.457068914065246 20.44323583623025 11.651010490459248
Sr 12.818357104143336 16.42560711653288 16.243072231904456
Sr 10.79677799405427 16.89760907183114 12.650055009439358
Sr 10.579323989096688 18.882022112861854 19.148292212674612
Sr 13.491060706864403 20.001447547559494 12.31517995831576
Sr 15.706266746250956 0.19391479442522896 14.896099563686478
Sr 14.22656878583364 22.12192726211732 19.433935620586777
Sr 12.484052182197559 20.434944149171113 16.09584886624805
