41
Energy = -47.94558873 eV
Sr 13.955305926967837 16.425113450744988 9.43268272520033
Sr 9.837194348622937 17.932708028709207 13.404468964860259
Sr 16.76622809167897 19.59188656294468 9.841623738410714
Sr 15.262303842469738 12.74979043693947 10.282355417202906
Sr 18.410508685176072 15.8536082673539 9.977695749815124
Sr 13.47805347097047 19.24347988938127 12.20855837988998
Sr 12.11136119586494 14.517534244881315 12.959163257803944
Sr 10.83765606531746 21.928741035271113 14.140009738812964
Sr 14.815602185962414 0.5904554237106657 14.011776249418572
Sr 9.84493229443897 15.358834835521138 16.63108767198309
Sr 15.912128635282006 15.783699005576867 13.124175106361514
Sr 9.37221025298055 19.62734265651189 17.138133272353528
Sr 20.81967206418363 19.190252481603892 11.21949078267472
Sr 15.165486106524897 11.823353341306198 14.286305772657448
Sr 11.809630622796812 11.489714555273201 16.487289023402152
Sr 18.784374792496845 12.62887440279334 12.498995706743731
Sr 13.939189014482645 15.137180952557637 16.723864217633007
Sr 17.43073226543226 19.649159914919228 13.765019309157141
Sr 12.724860372893314 0.47105413718395006 17.90244547391666
Sr 0.06834948031394626 14.872142148419941 11.265565487937304
Sr 13.55087282513508 19.2930387755956 16.108528667344824
Sr 19.843261447747434 16.392619014709787 13.969788328472111
Sr 15.56852074212528 11.649757405592949 18.346266975426783
Sr 11.829488012894076 17.554087204491953 19.509499741749572
Sr 14.626268877822445 8.207479760043013 16.358183370861926
Sr 18.084409220764325 13.90155108467885 16.502968551433412
Sr 17.099832999689895 21.752972306240963 17.321596375199174
Sr 13.074486441021163 9.273473736022043 20.120376982621586
Sr 20.768593958341384 19.79471463780605 16.279157737839586
Sr 17.35248473460159 17.662327489938992 17.325044993800265
Sr 18.486439259419942 9.823758067916094 15.885205703187173
Sr 12.237345477118721 13.402440193574906 20.094588997721154
Sr 21.79025709974771 12.781196542385103 15.288067314915708
Sr 15.415845284746142 15.89570798371066 20.57015432755959
Sr 17.216269545479086 8.392715734241177 19.76710653426349
Sr 16.036760812245486 11.93713465062522 22.14697614432443
Sr 21.265646511689333 15.976517504791099 18.054607338469545
Sr 15.030960404498044 19.91689817786585 20.158344723934995
Sr 19.99897039007141 11.60477539522621 19.21399586423084
Sr 19.210520859218445 19.043196963527553 20.423570489131077
Sr 19.061454088377907 14.915856715293438 21.207707958966857
