42
Energy = -50.14752312 eV
Sr 10.095540835175907 20.29183737445636 13.960102005889286
Sr 9.092422864323915 16.20294464818352 15.182358429559486
Sr 9.387019518406893 19.357506697684503 18.059683773231153
Sr 12.167836673333154 17.144303980533248 12.109973648647935
Sr 12.6492032120204 21.940139657032546 16.950420234149043
Sr 14.579776263832981 20.293910030306513 13.365297375020369
Sr 11.127691757674977 15.420372836598903 18.845780157451106
Sr 9.913110530387046 11.796590508703629 17.288205930993065
Sr 12.614012826579298 14.093448664507788 14.85679838987443
Sr 12.52042954598886 18.030848903258445 16.05840549283539
Sr 13.13398970459652 18.78474151823813 20.094557809421026
Sr 15.27031824870293 14.76452349537308 10.704018387129889
Sr 16.77552350420163 0.7195052992920276 15.369445147387786
Sr 14.951522426434344 18.94171268217504 9.56252792828711
Sr 12.986138680952456 9.774629810581546 15.25256761604839
Sr 17.188829211880634 17.961955679947337 20.92406831792389
Sr 11.230181299652047 11.981032292029402 21.395638843561407
Sr 12.608863469193937 8.685373531329581 19.189681514171347
Sr 13.753757361494609 12.306181328502465 18.35219808341896
Sr 15.954261679653513 19.65558962402158 17.262359790592342
Sr 16.381738395537205 16.413923895239193 14.12935181925504
Sr 14.266358508161275 14.891818990149204 21.720998382081827
Sr 15.312007320878628 15.781129890230861 17.957506630970382
Sr 15.981261237455271 12.146773437038236 14.034499939896383
Sr 17.96215755010016 21.790332702901907 11.278891692534398
Sr 19.435177289913735 21.339314546103676 18.252546086723743
Sr 18.88301976989106 19.7560498194984 14.489271804479477
Sr 18.57044276791755 17.568785629097427 10.900666527698185
Sr 16.79389904336266 9.990448568935589 17.594750983173178
Sr 20.957225239514898 0.6307590183564877 14.621730450723017
Sr 19.087650969006997 13.404281332855666 16.019999220553583
Sr 19.15179067986613 17.17293432902892 17.514525865043456
Sr 15.391839402824726 10.762668055000397 21.631310225328154
Sr 18.16673973142746 13.649365724383069 19.949973828161493
Sr 19.223216409887637 13.4297381714381 11.921221592664478
Sr 21.936877797483096 19.9514315751228 11.98662441330099
Sr 19.391165982360395 9.789026683278294 14.278050183400179
Sr 21.146568847981406 16.2959806956644 14.017956289332675
Sr 0.08448744851603689 19.382795102965666 16.271434829680977
Sr 20.98965004146824 10.703474316715623 18.172968429464245
Sr 22.306286127345032 14.77659850500124 17.95095787497704
Sr 0.16321676509267016 12.31512150291673 14.512749610402283
