48
Energy = -57.21354859 eV
Sr 11.770644771884069 11.82278431243404 12.478376310098412
Sr 11.455356041051996 12.107754468686727 16.510878997713267
Sr 10.880784972228131 15.533191912441263 14.064596704767272
Sr 13.506516090208978 15.551237364240016 11.063643122773241
Sr 15.46844791567091 11.744584628859064 10.927017390828562
Sr 15.00173017229457 9.80886938705428 14.840415114189122
Sr 8.560759289540968 14.945766489316954 17.409144722186497
Sr 11.159281090597426 13.425276619884377 20.562411598407806
Sr 11.927917859926197 19.431206345297458 12.308617775694215
Sr 14.966100846138698 13.667993430843783 14.744815455235987
Sr 14.679286584552985 11.510550601486473 18.90444156510697
Sr 17.466417114211545 15.311921936119868 11.632135286114968
Sr 15.993833232815371 19.100726817434705 11.179042150238702
Sr 18.7475594126134 11.796358220012504 13.343456788283587
Sr 9.684195126274675 17.5269253887936 20.341708896491898
Sr 10.327934878376531 18.929159130605676 16.310622449180443
Sr 14.611327331782938 17.62844278249428 14.686334139406735
Sr 12.550015746601526 15.973832254549041 17.86719604155117
Sr 18.39576245077838 11.925589682285713 17.286596784255963
Sr 13.490659131337843 16.748568592710413 21.8673240800029
Sr 14.504593351332051 22.780766672890532 11.833659596897036
Sr 20.04760887471637 18.50017907047899 12.587802007035608
Sr 18.715243004152292 15.80460835150701 15.485150253954913
Sr 14.674503633774417 12.890154463468997 22.73252711486773
Sr 17.51165705305234 20.95347320003506 14.629684326693342
Sr 12.838335255337194 20.144207249495004 19.4770342628556
Sr 16.25845447810369 15.15215837630454 19.293510882840398
Sr 18.550449365382686 22.451426250021417 11.096259067035453
Sr 21.500002102674046 14.602795334502927 12.122198877815737
Sr 13.711152376540984 21.57957281011646 15.62067777008784
Sr 21.02255158733704 14.840785320457659 18.47476037146008
Sr 22.242818205537688 12.53690640775077 15.559196711754087
Sr 20.355304445883295 19.406673694719622 17.035045985295305
Sr 22.982538293696866 16.730730016687485 15.414823243190531
Sr 17.255226894535845 15.955226850947444 0.11238112021863218
Sr 16.43467650848108 19.018692617058306 18.09487676700833
Sr 18.647131620654914 12.771608661038055 21.294717105375597
Sr 21.524224044866 22.056851774661457 13.985888903678829
Sr 22.147664053216918 11.202403490159282 19.59597906655412
Sr 16.961147335636 1.2774217484682027 14.601845511006404
Sr 16.243263147014783 19.828331112749357 22.04055244962894
Sr 19.926214111590784 0.20839827627387117 17.28280377164203
Sr 16.204746945395204 22.919872086625716 18.743239417663673
Sr 1.3922928679875237 14.26835174797615 18.5405867677792
Sr 19.337476973296347 17.419865256304966 20.636280710945073
Sr 23.23415739594018 18.1109689814308 19.611324634627838
Sr 22.2933167167607 14.758113406204323 22.16800469667085
Sr 19.819611926448907 21.361850602345232 20.603708702227028
