45
Energy = -53.82805176 eV
Sr 19.665418603495585 21.146795841759747 12.103449318557484
Sr 20.77330967271271 16.990842243262282 12.473813271452943
Sr 22.536615638188536 13.409529209391652 12.032352373687521
Sr 17.395483058849003 17.95360273262635 10.264425564506393
Sr 18.871261767212097 13.889606374075923 9.857077688629978
Sr 21.144839055447335 19.699458885010994 16.031655588354116
Sr 0.426499164731028 15.616845399339818 15.735236373471214
Sr 17.667260160564837 22.596757376176374 15.446190668190637
Sr 15.45327262776972 21.527430630386775 12.114632534132081
Sr 13.818532681805175 17.781374733109704 12.264520692792232
Sr 14.468834990744263 14.9164284918006 9.334678330547867
Sr 17.643059967051105 18.545720863771056 14.33304219197624
Sr 19.643240781674866 13.965948998159316 15.410777070699096
Sr 22.716930294501942 11.188240194997359 15.373901952159068
Sr 19.21889488260172 10.926743654074997 12.98045915716627
Sr 16.58980928504855 14.799562507267066 12.769295375420937
Sr 17.497905595852473 19.74299212293064 18.248258610845667
Sr 14.485218550949977 22.60975288769389 18.666738103937277
Sr 11.079697503375284 20.65333889176436 13.468952176280043
Sr 20.088228003817562 16.53295021159204 18.324079063908226
Sr 9.84288337299594 16.755958297319854 11.95719106112691
Sr 22.04114070060188 12.963100072935388 18.942520732138874
Sr 14.342787200668836 19.99688214437036 15.739579292218169
Sr 12.624382214894107 13.764109149835015 13.101741746686166
Sr 20.51484461657298 19.535804357886192 21.01500819563818
Sr 11.709392808967875 17.117130287425837 15.603836055601544
Sr 19.043005613968578 10.287795080989504 17.30093616231038
Sr 15.583356018625347 11.300510391911821 11.011063990835162
Sr 10.726831063419699 20.625651854459456 17.662078924339543
Sr 17.97951561718464 13.299518315066257 19.723395900383153
Sr 7.947448707082633 18.400607727061168 15.416601215159579
Sr 16.386377790084264 20.8179184978626 22.062261651280817
Sr 20.683677863845674 15.40017869003684 22.28271482675826
Sr 15.715122342807376 11.580357836696708 15.229669872864132
Sr 15.812071137707145 15.77673054996586 17.023352829795048
Sr 8.885255612608544 14.33012223966893 15.363577977539677
Sr 17.158482442656105 17.062075793271294 21.120112981945535
Sr 12.49779377362892 13.313981818687806 17.21206120717079
Sr 13.696781115326703 18.509238738680082 19.5635155789324
Sr 15.095946248306024 10.62764265700614 19.308000267226646
Sr 18.345900901822766 18.172300895126153 1.8048499800384785
Sr 10.088395650655167 16.36459269350021 19.0683907117521
Sr 16.786496281374717 14.098219013977971 0.9477420240563426
Sr 14.138555739163788 17.500231961853437 0.8540596232153399
Sr 13.879600778369063 14.475788443060997 20.773643160103145
