47
Energy = -56.98219436 eV
Sr 15.2761410444279 17.546922452780912 9.383645241980421
Sr 19.471901757522733 18.220285107683836 9.891161795578006
Sr 18.079834844911108 14.424539480908866 8.596694752407108
Sr 19.99339174195995 21.894290464975395 14.535793210133896
Sr 14.479366272041453 13.42921782844257 10.582416509373271
Sr 11.337519601096282 16.298143417292774 9.851787584214296
Sr 21.129200517138838 14.53235224663731 11.52032653176181
Sr 12.534120402695118 20.115824287363893 11.551203339506566
Sr 16.608948708330043 19.815621992340777 12.753994462188405
Sr 16.003507304802383 0.1335648754727385 15.945796077204468
Sr 20.50629438421395 17.841024702064185 13.889946577330818
Sr 13.69938837250528 16.617461960389715 13.0699158993985
Sr 17.38582529085777 15.78073029942274 12.28933302167708
Sr 19.620660758355175 21.72574034684674 18.832385460620152
Sr 15.038721956686139 13.100323037889554 15.331417613700715
Sr 0.3175577936896445 19.39728681259125 16.862697444670783
Sr 17.982251458951794 11.720261779065126 12.023119732847256
Sr 11.172016667273395 13.354931255097743 12.969470962533288
Sr 13.1989357136335 19.44953285951472 15.971398193555297
Sr 9.81405775629044 17.52352997584428 13.540260727383984
Sr 17.86338877262032 19.199413017811278 16.488323626406665
Sr 19.1928934450223 14.030481023995087 15.251593762329273
Sr 0.6634141957729813 15.1036562921473 15.282235052454823
Sr 21.807820829891835 11.219770897035875 13.990109574118307
Sr 14.077422616479556 9.875535467127346 13.508762351959684
Sr 1.61788783671221 15.666844360663337 19.30187972347839
Sr 15.417282571007242 20.5054401549934 19.358628595367154
Sr 22.171408143587946 18.829440348323907 20.9365457724365
Sr 20.504689306791946 16.469405774233195 18.041996388068323
Sr 11.523972789183642 21.359289759208814 19.620104014927147
Sr 11.128248774623092 11.439506798782965 16.61737444989306
Sr 9.202925317090449 18.52105919107263 17.641404265169104
Sr 11.773634281840046 15.489557723747586 16.399635772385345
Sr 18.165399478213956 10.149288492107424 15.821101400124682
Sr 15.783473495297038 16.28676921542172 17.76259404869443
Sr 18.18748362499795 18.267191752911433 20.81534916752976
Sr 14.654927243657792 9.697640540396185 17.88651297888077
Sr 21.629019269187175 12.436344930717743 18.1031186921341
Sr 12.516802705113582 17.41486438600416 19.767150630742908
Sr 20.45668777918572 14.87234502419193 21.622846805700757
Sr 9.417099214075577 18.47286046806476 21.91771858216757
Sr 17.54356334916216 12.817784926106151 19.026757497984505
Sr 13.84109043901488 19.07826743679677 0.40003974687420935
Sr 9.38895993587426 14.71245373478605 19.559355683619973
Sr 13.344147122185024 13.322541224055664 19.482419693889856
Sr 15.855067046708122 15.28999297835511 22.003087292135167
Sr 11.788353099385976 15.236607902540829 0.4696103575974623
