42
Energy = -49.54645473 eV
Sr 22.932416814708834 17.24531917168381 14.670774797731163
Sr 19.768585819588708 14.905352602998368 11.698809840864378
Sr 22.82786074591958 15.252130859018674 18.38590788589296
Sr 21.731925962282773 21.417715558906604 15.390664753433251
Sr 19.604207812247264 15.053943346252224 15.735463254373766
Sr 19.395421037434332 18.76278776900033 13.197010960578154
Sr 0.847469270750084 19.324412145266336 18.283097873570206
Sr 20.51934862349173 11.569765781056121 17.44473403456469
Sr 18.97131872209131 15.01658333763557 19.880417928561076
Sr 18.04486780757011 11.824748365203519 13.843176230775379
Sr 16.314509262233337 16.237742260557074 13.856869318417289
Sr 16.852429651219577 17.211447569567323 9.93288592010503
Sr 21.441389514647476 18.03588129896162 21.46724084806684
Sr 17.53225137495179 20.774493515102773 16.443314560649597
Sr 19.193670738631546 1.463894245574834 16.54492059969862
Sr 18.623246286101548 22.964491224440057 12.953661249515973
Sr 20.340042986889106 18.31603822043311 17.603302199570596
Sr 15.632135694373092 20.327038463079667 12.326087929897414
Sr 17.226222878070175 8.961024198630916 16.826190828974234
Sr 18.007007679762236 10.697338532994946 20.599781838259684
Sr 20.716623640368216 21.84833642822005 19.386707077041972
Sr 15.102792372928993 13.458453937468125 11.289494964034514
Sr 14.999805034875155 0.28771674410438114 15.496351503412729
Sr 16.831042095179875 0.25958221177542423 19.602925521791477
Sr 12.984078766682458 16.981575392680032 11.67663716501954
Sr 16.42607348899921 12.861398205909149 17.428184439442116
Sr 14.090770301812483 11.04224529615524 14.638437859620627
Sr 13.92934772002368 10.245080777466477 19.090132603275986
Sr 12.724053568188834 14.910218446266262 15.4652726752864
Sr 17.55293621019598 19.251941054929638 20.57377376164832
Sr 17.7765488411086 16.382320325328507 0.3504201244035205
Sr 13.391834429554715 19.15772056353162 15.232968984361385
Sr 15.401201324969225 16.76467865756501 18.061288250028372
Sr 13.988447176493173 20.671624764742166 18.899463238855326
Sr 10.655126892659082 13.279361291010703 12.721910277524573
Sr 10.624341253166968 11.076709587633575 16.598915347309475
Sr 9.74671409242931 17.531755406365825 14.106429202810952
Sr 15.394865004547485 13.716571912408646 21.379344690200092
Sr 13.790631443536551 17.43974270864757 21.71334043114353
Sr 11.139340475238543 17.68771807284962 18.19686770587432
Sr 8.736033739219351 14.581449080824207 16.655767823484965
Sr 11.991015024100996 13.92357903346391 19.339455512789687
