44
Energy = -52.65340145 eV
Sr 17.611743718611468 19.318964792821646 10.341598722224086
Sr 19.203763928248943 15.32819653894276 10.54583942237865
Sr 20.564736404110636 18.495196513519396 13.064227475225342
Sr 17.545702269331716 1.9705424650153571 16.39633762911937
Sr 15.054485361564566 16.146631302349444 9.672468561046944
Sr 13.900123263751109 19.596488112606426 12.411892223435942
Sr 20.400475103910765 14.623451231556025 14.714567766876087
Sr 20.790094854250913 21.488056798288603 16.216230228451863
Sr 17.307746226629494 20.781865457457386 14.21317770948579
Sr 0.3241536300250641 17.668377049333785 16.516870238019873
Sr 16.659341738168887 12.52155367074965 8.976941688156064
Sr 16.61580048468421 16.45281905171305 13.506905372906754
Sr 13.945302347135799 22.49082958511378 15.894211142353782
Sr 19.80942926390901 1.2217643458866496 19.721633449286678
Sr 18.57179352155253 11.612625068792704 12.684276291018564
Sr 18.82615282803602 17.81764453276285 16.649772410278327
Sr 12.45366787057761 15.866756904509423 12.636527423141064
Sr 14.368331334465138 18.49827976756531 16.48179623150457
Sr 17.302450207763375 20.939677233951826 18.3429949113861
Sr 12.484004998936818 12.328419296610345 9.97970976150954
Sr 15.620485082416522 9.13229983570225 10.825489727067561
Sr 20.957002246803235 19.512186943496253 19.82803520008746
Sr 15.184385318020846 1.0558986709077538 20.055439476637286
Sr 12.253349980478694 8.974912717368245 12.947040385016523
Sr 18.158888254466458 21.265511279536454 22.46676129677411
Sr 16.839703511927063 12.805487984232244 16.70507648392981
Sr 16.2800310886387 8.962806148887934 14.948645205876453
Sr 20.491849032158488 14.978185319665716 18.870357632737374
Sr 10.370105496720704 17.28346681933154 16.03124380087211
Sr 11.713207348448723 20.65922867479435 18.818139057227
Sr 16.182533727705927 15.933030022068603 19.114784347335707
Sr 14.631142180771473 12.363451573318127 13.145656173317908
Sr 20.061017705491807 10.809327887897393 17.10295210255136
Sr 18.528002630937234 17.0947408783511 22.079803295437944
Sr 13.325218520934914 14.572272511812178 16.380893029680454
Sr 10.508375174966483 12.653367631144533 14.051060070781233
Sr 14.856615342681076 19.28799858013342 21.14265282085316
Sr 17.82269171084536 12.796860866630437 21.03111946524702
Sr 16.376358390191125 9.413280488008304 19.07763568228533
Sr 9.976678657548359 13.333997350456055 18.171042365394023
Sr 12.133398055850744 16.56079719994295 19.746183929249526
Sr 12.928497629527484 10.50782115555138 16.72698772805421
Sr 14.843689225651449 15.402752402255697 0.39127943517626385
Sr 13.820940150420991 12.670272503490274 20.015094265851232
