46
Energy = -55.12870063 eV
Sr 15.783368394830612 20.138084572734982 8.49581200073552
Sr 16.118257924283366 22.286167473845737 12.1827459903567
Sr 19.511322879478083 20.280517934582537 10.414112957436084
Sr 12.822556365049099 19.913968644811277 11.700293607628105
Sr 16.314528970944625 0.6426936897285582 16.14809069027392
Sr 19.309971848375326 20.937397210215682 14.588168720387275
Sr 18.152756850939983 16.411823520986104 8.82555246221798
Sr 13.683274979694268 16.634992643557528 9.162619184568516
Sr 12.601884494839846 22.695180801754223 14.82622483953831
Sr 16.388496069630623 18.103048874459315 11.860457311247083
Sr 19.997497920237834 16.855899569630143 12.669283062255182
Sr 22.78693261539596 18.401904344988356 15.277103775230389
Sr 21.53965750252078 20.59332380133444 18.474817257776298
Sr 17.525373249898696 20.862970048467734 18.80753917891973
Sr 13.290730960699012 16.084440970750528 13.411593631308353
Sr 13.357295902480592 20.30075932912485 18.859067390867974
Sr 15.296513971261684 19.618157385969454 15.335399788050104
Sr 15.764748150200571 13.752234333275124 11.056137020474026
Sr 11.149638099968923 18.887542590101575 15.472861662341202
Sr 19.036811703172003 17.67546310478792 16.762174370984265
Sr 19.63031588166259 12.727577705802192 12.090184823796653
Sr 17.068676408618643 14.581714262472218 14.711207706490756
Sr 15.704297353173168 20.345618100419273 22.524366722378165
Sr 21.38376253958949 14.424101855252697 15.644105632199224
Sr 9.999428223202722 17.48965685450497 19.114985214249273
Sr 13.80719337403413 16.26208434260086 17.637799142860988
Sr 21.94065633967553 16.449122251589163 19.266929073835648
Sr 12.410474691465096 12.082481804574607 13.411971556386234
Sr 18.38040144735265 14.130244808626339 18.463044889609222
Sr 19.76076630650572 18.859802811610326 21.97033278453745
Sr 10.328162824536246 14.759447569498269 15.96436841088851
Sr 16.567574900175263 16.655721916505726 1.1819493111652004
Sr 14.621387672102685 12.082509597982549 17.036149345563555
Sr 16.707168292938157 17.26168642912617 20.211053791525305
Sr 16.219264960145985 10.396045751562333 13.513440926964218
Sr 10.327839485633904 10.871228014038401 17.07403037743802
Sr 13.027875673717071 17.098204782378104 21.831401400964882
Sr 19.182977248297437 11.027959507514595 16.14405352702224
Sr 19.491161251642907 14.448063827393833 22.19380385692661
Sr 21.772819007768316 12.188076338342242 19.317369228917133
Sr 11.41883591201427 13.609904809561272 19.841002407028164
Sr 13.013320280226475 8.44452736660206 15.510613158838169
Sr 17.920421652002144 10.603798574770352 20.197370608945555
Sr 15.285879920637068 13.59755866173975 21.218642026020746
Sr 13.445558892678985 9.63031087657992 19.855075396833932
Sr 16.552598534406894 8.163529844365444 17.249894940627787
