48
Energy = -57.8801017 eV
Sr 21.602670166782005 20.420341215013536 13.043066288644395
Sr 0.780991460744653 16.45425802549766 14.036556477429878
Sr 17.261476638169714 20.5598912240247 11.206462265582461
Sr 19.73250608579712 17.035915509372288 11.664660744875569
Sr 21.629897995148376 19.080590070825295 16.981350337398833
Sr 20.48839499147398 0.010945427797107731 18.375449555340648
Sr 0.4074640607660341 15.733113325339385 18.680013923684236
Sr 18.26763839103761 20.688352773564326 15.354460697335417
Sr 21.71349802078133 19.38339036546406 21.12689683138428
Sr 15.75689892315623 16.476260817674724 9.748345051402776
Sr 0.09092762338474952 12.560049680143829 16.075077081285944
Sr 20.073645685216736 15.584178614837748 15.612055682306725
Sr 20.996013314803808 13.005783157337255 12.491121940347291
Sr 14.198005170463945 21.484475911586713 14.356042760303387
Sr 12.707663612579493 18.79362155097079 11.295213969831341
Sr 21.584718153740237 15.45394274549481 -0.02724060201514834
Sr 15.968744999567216 17.83964393405454 13.696429503864518
Sr 18.517127983023833 22.449534949772374 22.034189442740306
Sr 18.205802694802273 19.728879303565897 19.331195118632866
Sr 18.840405363681235 13.65802052679511 9.034952195226166
Sr 15.989952560973995 0.18440502605749207 18.260311766729977
Sr 20.503398702712364 12.490874079719651 19.567083634300648
Sr 19.332612948088595 16.134803169258245 19.604671464013
Sr 18.12615500838919 18.202971306430626 0.308271601451962
Sr 17.642644386784482 13.960775137500397 0.016840514958616697
Sr 14.973180120967964 12.587973309926284 9.24806890974931
Sr 18.655232811187947 11.740831352319296 15.780767912257362
Sr 14.928880507351904 19.058318721074887 17.50975767973886
Sr 11.537668625865708 14.952412892082823 9.29894905115545
Sr 17.190496928274133 14.024002327964896 12.69346807860843
Sr 15.496663708971415 16.509399512628576 20.510430600774075
Sr 17.153704549405546 10.265632798866067 11.91910502255793
Sr 14.639086687813052 20.502466545991613 21.339260548411016
Sr 13.285343527504791 14.925645587224382 12.765087046631422
Sr 16.111785109607112 12.287516214759224 19.282563080483964
Sr 16.382048627013006 15.310451284167021 16.595433689103018
Sr 12.042751119334694 11.266415131264976 11.737338874037727
Sr 11.712285518786851 21.297676364968094 17.979800100268317
Sr 12.079747748448463 17.737854685566873 15.373738038242065
Sr 12.845244122310389 14.676169239223137 17.935094025902597
Sr 14.389186449216231 11.821433679263892 15.298679141689528
Sr 13.014929077311196 13.63408946615542 21.827527950070138
Sr 11.563578282850486 17.666666696815245 20.0704739607539
Sr 10.264259359336425 13.555858221274676 15.41216208925581
Sr 9.272831127675673 16.484732868826228 12.63374239099178
Sr 11.896342689141136 10.88482562651423 18.63409738594422
Sr 8.613825064432804 17.014636102422084 17.08381202738584
Sr 9.394198685046959 14.013303219690435 19.7150297361812
