43
Energy = -50.94459046 eV
Sr 16.828826123413137 14.830831063367718 0.4745222714386344
Sr 13.552507890141056 15.859032372622172 21.40962857554301
Sr 16.64021138886945 18.524398911765296 22.051545860761564
Sr 11.359170840022658 12.819311574521285 19.474482254723217
Sr 12.858925780828308 19.767435357141263 20.04832594161599
Sr 10.22312168267057 16.845400034090133 18.75043698970384
Sr 19.79003078589258 12.56972167453355 22.289377116994295
Sr 15.698883088787337 12.143271580681647 20.183830051829506
Sr 20.588495321147757 16.720030463451003 22.37038239080033
Sr 9.961029256352267 20.897480716507363 17.22696572133564
Sr 16.286813402683634 22.19829899975824 20.116331939169516
Sr 16.117544168178654 18.745054859179476 17.928389384133947
Sr 18.266371188047966 15.214086573313425 19.31511732119847
Sr 13.158510614380845 11.274818894172725 15.976295903634686
Sr 14.212739787914037 15.002869812899617 17.639467614008094
Sr 8.685580853696582 17.97640413976599 14.698599912617498
Sr 13.896104665231633 22.002008034821607 16.60757645479821
Sr 10.653195199796897 14.405826679747975 15.476831007121627
Sr 19.750593654131016 19.714190455759304 19.657946166520762
Sr 19.70734389494809 10.834940254922723 18.698829735619597
Sr 12.567091774041467 18.140449287025287 15.796047082883973
Sr 22.1850489922222 21.550466435346248 17.02975972052702
Sr 18.12628541247007 22.011437949285714 16.465880522586353
Sr 0.7579173936713863 18.31296597464447 19.368673088529775
Sr 22.349949697895607 14.244881794946691 19.491344982978582
Sr 17.037470790595545 12.385864871637168 16.029092606567133
Sr 11.574936616939942 12.443034826106837 12.023320646589188
Sr 14.585359157014567 14.70887116741545 13.67650419375461
Sr 21.333881743684348 17.340461863704313 16.819779915590562
Sr 11.54230299079162 16.642457374066044 11.948972088223114
Sr 18.013374403658485 16.348553855679132 15.050353632130696
Sr 11.641801009905283 20.763229255002972 13.028531279623833
Sr 15.291679426406938 10.833679066613785 12.354344103172824
Sr 1.1180836329052772 19.027318182705947 14.719812615430545
Sr 15.766689881800218 19.617811899173102 13.685190062682231
Sr 20.128676255661627 19.76582440715615 13.76182134449515
Sr 14.723294007517563 14.539652362448589 9.785362834097741
Sr 1.459546677884197 15.262921552284062 16.17966012261596
Sr 18.441961454752928 13.437361667711205 12.208819886919711
Sr 20.94177553473182 13.336782077551984 15.726218672675278
Sr 14.242679603671053 18.883625232229097 9.852207474886898
Sr 17.884926706369875 17.287276809752978 11.019302044958195
Sr 21.726431060947363 16.111742227119837 12.885669195131758
