41
Energy = -49.03836679 eV
Sr 21.87543174177333 16.677032502957772 12.998741892097343
Sr 21.13799305010652 15.53223622337173 17.126291575450782
Sr 0.5659090954775494 12.11169754010578 19.08436163740311
Sr 0.3946775740695823 12.529872014015536 14.580178350225271
Sr 20.675034733281933 13.31722570135534 10.560916785629544
Sr 18.562799723219943 17.98301789989246 15.025204919538378
Sr 19.4332281144272 20.72177241216053 12.137048398183058
Sr 19.286832640423757 14.380433359938854 20.65363569168727
Sr 18.117584266258856 16.85673046288715 10.990161770511708
Sr 18.581993624809478 18.52400983378165 19.036267842117397
Sr 19.159293830403293 11.6927698731384 17.16419459587231
Sr 18.88619842181672 14.12305283894285 13.916854013496861
Sr 19.185327151243023 10.145219025658557 20.878419805966395
Sr 17.400428240646434 21.80735477725806 15.806355195328402
Sr 19.118931774779814 10.25868342489057 13.051570323293145
Sr 17.019080208210866 15.032142816448985 17.463486897869934
Sr 16.391249031241507 20.307989969839653 9.072193109478786
Sr 13.953343226474136 16.847882566174196 10.25796503572666
Sr 15.977577229494013 1.3040726188934069 12.069277112352818
Sr 15.590338347776902 19.602279292060857 12.867161075264843
Sr 15.637304119161156 12.430974749653625 21.130958587926305
Sr 13.600550138802706 13.041170781436007 17.765123371953205
Sr 16.2619174560835 13.090219169490974 10.955494275656644
Sr 15.199615491565087 16.52012104095149 20.605943595822573
Sr 12.589250132574445 21.080015380680514 10.778111586842165
Sr 15.171061785558864 15.75446485819575 14.015618179410895
Sr 14.8581604317688 18.717748342093643 16.969805790113057
Sr 15.758781013934488 9.496156608567656 18.267618958418606
Sr 15.658920604785042 11.698512074303435 14.766962440051191
Sr 13.058500488773875 21.896691009089217 15.004308587135032
Sr 11.811700010253379 18.095907299004452 13.573655605690957
Sr 11.695624640809358 16.35100674318191 17.154276685956223
Sr 12.062434916149433 9.808824910303233 15.996978345668358
Sr 11.987651637828622 10.367821479867903 20.154991463110807
Sr 11.811316142943278 13.642730538120274 13.862441903703516
Sr 11.804884619034567 19.00935929646902 20.096502429078846
Sr 11.551911106310143 14.590097658256429 20.891756116495035
Sr 9.640776454579388 19.78892004679555 16.578722606135642
Sr 8.33462544042763 16.050117366844237 14.971886116155625
Sr 9.564119138723083 12.885680070938163 17.56835162112957
Sr 8.290495970636051 16.73009059176096 19.15394927750932
