48
Energy = -57.32436904 eV
Sr 19.44967809854329 15.421125861408761 8.608329878897061
Sr 16.669092086528064 18.800554869565023 9.085825150882727
Sr 16.0051845509213 14.108683112172242 10.827466425330794
Sr 20.83469267215553 19.351697179101322 9.27566302701208
Sr 19.67121462772366 13.310427458615045 12.422736184430232
Sr 16.244750322631557 11.569232124947648 14.388162530964603
Sr 13.829890288400005 17.335824518988055 11.498018499330371
Sr 22.692055973517988 16.14938878990863 11.295040954496239
Sr 18.838592689229284 17.31365348817411 12.074305921375288
Sr 18.254624993465086 21.57165121284011 11.874783479045195
Sr 13.819980975805807 21.578071973211753 11.43848892143374
Sr 14.488657861440924 13.556418274959809 17.744613901472803
Sr 20.254577276439164 10.968938638102518 15.879879891323503
Sr 22.77334401097353 13.232283644776915 18.530106566683624
Sr 12.845960004070179 14.274134852917186 13.95697822207726
Sr 13.43968343024067 11.595446715565082 21.116866854220977
Sr 21.775028366981825 19.708101288178245 13.3430878455648
Sr 18.667523156550008 13.835527475775391 18.157426767278288
Sr 16.67552492209083 15.440780854034667 14.7154323483833
Sr 15.636835650982478 19.70471861194655 14.22284551708073
Sr 14.215846542038664 17.464336331750438 17.18947782420947
Sr 21.41919520340318 15.668486241237039 15.333163449714558
Sr 11.361065382174845 18.393423683623535 14.443028196978736
Sr 16.723039017297506 10.225791623855175 18.597318574462165
Sr 13.022263014939444 16.06073492369077 20.971422405602034
Sr 17.31610922225851 10.78793527191008 22.914647177224822
Sr 18.792496210674802 18.468116554914666 16.50745303847553
Sr 16.647171535813477 14.342654081565342 21.590222118321353
Sr 22.824984212901647 19.489355481900464 17.19338991567131
Sr 20.472612168212653 10.232795745188142 20.04274963724755
Sr 12.540108862366594 22.181896511779545 15.488276073529395
Sr 20.969805671435022 16.835003214396842 19.621207915914628
Sr 11.179415054082655 19.758869295652428 18.418958351379477
Sr 10.731044603384065 15.444148232404109 17.46759078494198
Sr 15.936277046330291 21.180472717058226 18.022863431376944
Sr 14.103094046374576 13.613025292219396 0.8075311458966702
Sr 19.694592811982883 22.324529599762286 15.960118850443017
Sr 16.068419173263138 0.11918510066681359 14.83054649738464
Sr 16.841763803936704 18.022552848637527 20.27273068400976
Sr 20.52742827066156 13.684652769228743 22.145340070827533
Sr 19.881418554489617 20.84864055636048 19.809520569434728
Sr 18.068375791509958 14.488341405202732 1.6265648523029892
Sr 13.316142985175565 20.16920166290738 21.67539042634275
Sr 17.674818552274218 0.7901482324265431 18.94598745658821
Sr 13.414875813290958 23.733383785325422 19.38508739136743
Sr 19.513867713643666 18.002108976379247 23.283180499194376
Sr 15.546860757007282 17.624997266019015 0.35096891191884627
Sr 16.834283503412166 21.717947344098285 22.208700556094072
