49
Energy = -59.08546114 eV
Sr 0.7578908304191947 14.323471619267304 17.60208975751473
Sr 21.57758493351186 15.194858812933795 13.750598155665417
Sr 20.968341389997658 11.588144556563792 15.533460616604193
Sr 22.030578957822947 18.24434509143305 17.066607826984413
Sr 21.603594609316776 11.78644878348244 11.412908072914101
Sr 20.830574710547292 15.732142762167737 9.716842292755272
Sr 21.303764921707067 19.11239462214847 12.851663953711283
Sr 20.76149666114743 11.884992695117452 19.580706429334
Sr 19.62276199524808 15.104534205864404 17.131797450830593
Sr 20.92095596690923 16.10744551203054 20.64274016190929
Sr 18.36636756739531 9.469663905378336 13.230940946271733
Sr 18.565829519140408 8.989534299677217 17.538500821960046
Sr 20.53880540310769 21.897187252636186 16.007757802724814
Sr 18.760404793581834 19.94014114802269 19.699543289333427
Sr 17.88423810029758 12.860427606525443 10.354561787874403
Sr 19.07386942152259 19.568285892127353 9.166707545419973
Sr 18.10006018976542 17.19006839096252 0.7366635854836712
Sr 17.887226093507724 16.991055991883535 12.178614081234885
Sr 18.07577079712069 18.57186744922905 15.943496872074231
Sr 17.238922034912736 13.232456250194149 14.231876380460688
Sr 18.097034697293072 13.358896610570428 22.172982498921353
Sr 16.795990685957374 16.257129644816185 8.244410532067823
Sr 17.02780481431666 12.725639579459763 18.2234435692499
Sr 17.931418557764466 21.157714077017882 12.733859099423604
Sr 14.944725984896312 10.051882821424181 16.055531999295983
Sr 16.722774378722228 16.422506732706946 19.721992151307276
Sr 14.395881074640032 15.02369244669481 11.608670937794576
Sr 15.833975991899159 10.075575246822849 20.706167922332995
Sr 16.52888103321988 22.581164610247324 16.290251972130378
Sr 14.64885550576407 10.75157998311045 11.876088140969697
Sr 14.286051883419379 14.749173234988238 22.616039333611518
Sr 14.796389800946194 19.16117207525454 22.16813851740582
Sr 14.349707095627576 0.2569516179283055 12.580084998352621
Sr 14.324625959691238 19.37046145241581 14.221779511285707
Sr 12.251660190144731 12.698239965272158 14.492936351464714
Sr 14.640164013834738 19.65933927699487 18.1646839626909
Sr 14.391873011783911 15.740506858161504 16.19895873517356
Sr 14.809287634639608 19.30674846208527 10.33718652840458
Sr 13.04397041084144 12.7391339506448 18.84031292112109
Sr 12.364970707471693 16.80015234887195 19.756726302307424
Sr 11.054810569914723 16.51941485179027 13.296258346311552
Sr 12.384789483058384 22.53686469560474 16.237073409799915
Sr 11.021790884867254 17.710971163657234 0.5650410784100873
Sr 10.009045539128723 14.12449802915251 21.421473833616172
Sr 10.842133326639285 18.853371682336423 16.550751477173336
Sr 10.951898931486102 20.720610009368777 12.61296960538621
Sr 11.377100755110623 20.78305609347703 20.279356115889914
Sr 9.930835224803134 14.893572193321635 17.108607621534762
Sr 8.48733561391409 17.72344432359007 19.9608168579218
