47
Energy = -56.0629925 eV
Sr 1.6308707219131415 15.141415031718726 18.969774063015
Sr 22.415890535625383 18.756996534456814 19.486118806815515
Sr 1.2876159432863334 18.18163894143167 15.776042003700615
Sr 20.324132060096332 19.482059104160594 16.092996830964942
Sr 21.02611021531069 15.253488947492766 21.249575433560928
Sr 1.1864879907551316 13.960806434274284 15.018288430518568
Sr 18.845013837390738 0.4207914045947758 15.59535465027929
Sr 21.566542086016913 11.962791032510177 18.03983757772342
Sr 21.179629460118523 15.68408745548116 17.04197759977709
Sr 21.476207899687537 21.22530677927985 12.820523833499418
Sr 20.141974457519296 19.113069340337557 22.878498945989378
Sr 19.26630939685076 21.63071249463727 19.478081213469892
Sr 21.520266157329168 16.839565685101682 13.048315791005985
Sr 19.954591933804682 19.097903096313303 9.724827122134496
Sr 20.31342922894722 12.872049335874934 14.015918992108423
Sr 17.39414987453962 22.149613348871277 11.708481186345155
Sr 16.836008281148864 16.52843258403659 22.573257555004574
Sr 16.35609425645696 20.27303029663643 16.307860539544556
Sr 15.483432129222484 0.24869770040121972 18.893483006643567
Sr 17.884534917491877 13.447456319079414 19.50443161462445
Sr 16.537652097852188 20.939481009662977 22.55713647029039
Sr 17.843461937843966 18.5549161366544 13.0316758629735
Sr 18.37830938641695 17.779064154840295 19.24451913940929
Sr 14.77390852940248 0.7492005926548916 14.664172365528897
Sr 15.893058208692437 18.633365009177385 9.542603694471893
Sr 17.326686355251535 15.332551016096 15.657539716387776
Sr 14.441020074976702 19.21786573928659 19.781804381872877
Sr 18.410439688458666 15.245558486836671 10.877697729974866
Sr 14.76541791902374 12.90982151427202 22.536080955002856
Sr 13.792957667541858 19.963176226936145 12.94042799208517
Sr 14.322284747630935 15.241482554551736 19.326933370290277
Sr 12.269461848695132 21.11478503745793 16.790798142741494
Sr 12.764230542644071 16.707202354910063 22.821846799463685
Sr 17.545616485859778 10.862030557394664 16.402680594015823
Sr 16.44131606124418 12.122261875720952 12.771737314795025
Sr 13.443078276045357 17.32521191057936 16.086970284642906
Sr 14.28937903078608 11.19052922573902 18.763604994097054
Sr 14.773704265146561 15.935362312523743 12.437732121533493
Sr 13.337062339331856 13.303892834532613 15.337804431511458
Sr 10.745840346641668 17.498675174695542 19.2170233164704
Sr 11.032013784169969 13.354862376561965 20.599240333493903
Sr 13.55832476243706 9.534307623641332 14.551968345537908
Sr 10.53364179791266 10.438187371419897 17.528393961753178
Sr 12.78686212714134 12.577091997538764 11.207849156993483
Sr 10.827051848648296 15.98856484362107 13.209389598434669
Sr 9.73206765523169 14.368962914854116 16.903873719111523
Sr 9.825829973193454 11.74288237080752 13.72374651488388
