43
Energy = -50.99512643 eV
Sr 20.770429998376244 21.810902257097624 18.74403222849396
Sr 18.185373462743733 19.77897674334174 21.283809445133013
Sr 20.479820085561148 17.764570220100968 18.5878178006468
Sr 0.39046208655260345 19.400677604145386 15.564966357057665
Sr 0.22515560301618995 14.948023112249112 16.504499962260866
Sr 20.95267394173227 13.89381394831533 20.309836658060316
Sr 16.46908240305627 0.03097430054655924 18.55290583172093
Sr 19.004885455480295 21.24539809179403 15.155787917779657
Sr 17.154955287111786 15.781930893761464 20.436583546627293
Sr 0.5863501333773514 16.237463992762795 12.399499355160001
Sr 20.855689068074746 19.695798161265223 11.62935723678307
Sr 16.713553437810994 18.67374614029846 17.172314869177296
Sr 14.246121624989739 18.47751411261493 21.03503703919786
Sr 19.70337184342459 17.160421573690734 14.472905849196293
Sr 20.297948377644857 10.822411361732875 17.355088038277493
Sr 18.599091065031402 14.290208714911596 17.107159975360165
Sr 17.355077833215073 11.524297902145682 20.568926009200556
Sr 20.386189099215443 13.199991088761474 13.592489401609162
Sr 12.820536152596588 20.249833620717446 17.713717017743996
Sr 14.82581734450049 21.928514745404335 14.597228089153733
Sr 16.773502790786953 19.058848280614658 12.342356543879982
Sr 18.736271119530173 15.788877053784471 10.725661708715888
Sr 13.411209609074781 18.177116298892088 14.296888893653
Sr 13.542062920102651 13.786821272324897 21.014293731558585
Sr 16.20950081928105 15.047286132666912 13.981549138135058
Sr 13.799671905157435 16.094285710023925 17.688470308041424
Sr 17.153700690485817 10.968968337623146 14.440338031970432
Sr 16.542785174138515 8.668724606931663 17.71252545167243
Sr 12.930380653639112 20.35487548162338 11.012803865677073
Sr 10.57565614757227 20.96527845117718 14.344515921643413
Sr 15.120626593543104 12.452151931219714 17.510000828448522
Sr 12.86794297159783 9.777322850611169 19.394065952721586
Sr 13.972230488550503 16.231442744404557 10.707900749419277
Sr 10.08542495848956 17.047769554463496 16.355690487074174
Sr 13.257863543620674 9.951076624144648 15.165859925482309
Sr 12.280868202459999 14.156890167957451 13.964056504403022
Sr 11.003005538611177 12.956054607209149 17.543791921220627
Sr 14.378312320906959 12.004642828553571 11.357863686830632
Sr 10.06648539772024 17.327207478655197 12.188438796600346
Sr 9.390109943686035 9.462425308030292 16.284555342030117
Sr 10.538433719115648 13.786681064668707 10.214727865166008
Sr 8.424448472457527 13.53975177923908 14.153678696384462
Sr 10.459678760123968 10.407939712499392 12.419839837084474
