40
Energy = -46.83094402 eV
Sr 9.688328831518515 13.822397358825148 16.960580299082327
Sr 12.407445747566294 10.709868581443931 19.105593883079774
Sr 10.768734566879044 10.410839620086183 14.849112732388985
Sr 11.467049643905732 14.242850021301027 12.981401210172368
Sr 12.489070189996568 14.821868710190413 19.657095906870303
Sr 10.932882126529675 18.782416757831772 19.37862437219696
Sr 12.438907253027482 16.892999090490175 16.18633666777384
Sr 12.608565712194322 18.21530122626324 12.24546520155536
Sr 16.75020881811735 11.326350173842751 18.12053608607186
Sr 11.590291057277303 21.113313569298974 15.611509727630866
Sr 14.427547200398536 8.789795217988852 15.889176567477238
Sr 13.566863674579736 12.894507354855829 16.16758227094391
Sr 14.366567071650747 11.28979593540044 12.571932038785436
Sr 14.830821059920336 14.938092414443995 9.97033806569386
Sr 14.674557745890032 17.88050330857175 21.051433030930923
Sr 14.192159627437698 22.097096446841107 12.239873376903597
Sr 14.281743174090211 21.39004051357634 18.973689553133745
Sr 16.416844365912006 15.592175817801085 18.07666894250216
Sr 15.795358816999451 13.574403661345748 21.642894908081374
Sr 15.46615856889409 15.475175922934715 13.740504826822146
Sr 16.544201203682178 18.747375945689658 11.408732252241949
Sr 17.772028479884842 11.791579701112292 10.63552261400991
Sr 18.845213931264194 13.815254433275022 15.34956386686951
Sr 15.178007967193075 19.59790079839358 15.255816739890564
Sr 18.17527285040176 9.995073006988736 14.363504697174928
Sr 19.676041832929116 13.229904770417017 20.18254430085648
Sr 14.99282652028616 1.1251115188240308 15.814120648722863
Sr 18.601266818280113 16.954619264260806 21.713652894748705
Sr 17.26449765940398 21.098043939129976 21.949031496367944
Sr 17.812332602138735 19.31453633804718 18.479617411959683
Sr 19.07693269265244 15.473550474044028 11.541277998279273
Sr 18.697559264901678 17.797249115148727 14.81566528557117
Sr 21.39047724699528 12.164133256475052 12.663894244478062
Sr 18.454064231358966 0.3679311269208066 18.218046594106216
Sr 18.23077592442142 21.85563309620561 14.01453614918103
Sr 21.826911012885407 11.947631231875711 16.85499963773398
Sr 21.061542258999204 20.228512838734492 20.517769747686764
Sr 20.80750593149994 16.4704895852548 18.181660888492733
Sr 21.40639840202733 20.255196875228936 16.37552901401172
Sr 22.269378556850477 15.884461260981416 14.41885343057749
