45
Energy = -54.16794154 eV
Sr 18.547632423081684 20.17022763854649 22.330772890975176
Sr 19.040729270132328 17.044856138867345 19.362690011211242
Sr 18.213244314968527 16.123339664929617 0.462175603669474
Sr 21.478033434596487 16.34783135452248 15.924444313722379
Sr 15.339166480161886 19.1137397886903 1.9257489643981631
Sr 20.418899428468393 12.79860815835899 19.564527720732645
Sr 20.988416122620208 20.34875806872185 17.408928917254308
Sr 17.136853819003633 20.683578848197772 18.630444564316125
Sr 22.53360518313595 12.530538984558014 15.60761811313933
Sr 14.160548073523273 21.633788794564566 21.23101974409155
Sr 18.09274745150218 18.39884915476176 15.505739554354838
Sr 15.330710191555136 17.928584174510057 21.262403399702766
Sr 16.29132294628722 14.095338909149014 20.430241354516752
Sr 19.67920351572011 9.782647567293765 16.37677664678259
Sr 14.016782492300035 15.04888030332424 0.7510857824840119
Sr 22.429249613126693 15.087602582860024 11.974666453102838
Sr 21.162006239133916 19.416505881827305 13.081850038941976
Sr 16.58137400091988 10.356973800928218 18.865532580329326
Sr 11.708263595068333 18.543351992519778 22.84785539412279
Sr 18.155973970820888 13.802640797841573 16.55206896940345
Sr 17.944942423781228 22.19535322213241 14.72784624054713
Sr 14.07526135471098 21.322622060013682 16.341051214317705
Sr 20.403922844104663 17.80648527846476 9.169382099032653
Sr 12.97035250213598 11.53086286348406 20.891770693345286
Sr 11.567761892179968 19.204338262689323 18.621492030051627
Sr 18.71457236732933 16.20888948062634 12.402170226985238
Sr 12.758112221532597 9.349315399585285 17.155401201470422
Sr 19.320696160008502 12.20884556809077 12.925682580902146
Sr 17.54431384695917 20.23305263569013 10.989988483752489
Sr 13.963179462806147 13.076068981218516 17.31784570122066
Sr 15.936663315870303 10.6597683683969 14.672237454830938
Sr 14.772911602028877 18.642250556749577 13.288801271664651
Sr 14.281789909440931 22.59516301260803 12.46222546744183
Sr 12.178943852216884 15.452116382595603 20.037595784360125
Sr 19.267863951902488 13.845122927134778 9.182741886496867
Sr 15.326564746261216 14.772810018795788 13.906620879275385
Sr 15.05029899627469 17.06963550495999 17.457868893246427
Sr 16.015615377009528 16.595678209332668 9.592740276801122
Sr 10.07417636081722 12.54662713303463 17.739182289704715
Sr 15.466977373436235 12.53587662996157 10.764356120167518
Sr 11.09601677888038 19.89803328866606 13.711785263951075
Sr 12.127150766666896 12.212921112040858 13.826346714661682
Sr 13.191007298502853 19.69078802764206 9.784180644891276
Sr 11.604873619111034 16.082593508068946 15.653305262629821
Sr 12.265200134817553 15.908223868397961 11.42755628858466
