45
Energy = -53.85393998 eV
Sr 15.257383750960033 0.6253580732867439 12.936311026465393
Sr 18.555675191751412 23.069799099860163 15.400538292965058
Sr 17.80547671610545 20.482965960862504 12.087221887783192
Sr 14.82947290149439 1.2903215702187716 16.961768818391292
Sr 21.678615223193237 22.392930411718353 17.911162128820393
Sr 17.571835146470875 22.85914021592414 19.53538631466822
Sr 13.694686279670215 20.293220743441005 11.582040200122746
Sr 11.861044873264163 22.250510442216456 15.054256321700283
Sr 21.146288175519803 19.704153386208002 14.549659974306284
Sr 15.437771109742776 20.5751470464625 15.490210115866715
Sr 18.80091913204158 19.455734625169672 18.002608985307752
Sr 20.570370784765743 20.767083827390973 21.497286992718664
Sr 16.15270501581818 18.07460044330521 9.212997841738131
Sr 13.702857296831741 20.929035553552712 19.083275982034667
Sr 19.840892290952617 16.789956091904127 11.303629698474913
Sr 22.5923810098375 18.38524049204068 18.40683766815022
Sr 9.965200286474635 19.416205316837996 12.78500594367516
Sr 16.6173694885208 19.043681915622553 21.45617557486616
Sr 21.933941814517077 15.62165173557759 15.191302959277477
Sr 12.099879546560249 16.53216152538041 10.396230899816832
Sr 17.83403158894655 17.114489639015886 14.611894085852773
Sr 13.438076320981162 17.011827197573925 14.061059696110878
Sr 15.988789856185832 14.804593662056048 11.589219158923802
Sr 23.09217599086937 14.438386298365465 19.170370839086075
Sr 19.150090338907756 15.158541940154606 18.047498489174206
Sr 15.7479318421676 13.655733203825012 15.603529206855944
Sr 9.447383675616303 15.665897738828697 13.964799190038956
Sr 15.233982585315319 17.131332040002402 17.910483961835205
Sr 11.103326081715025 18.494649829911115 16.9152726918703
Sr 20.31024790531887 16.747417542598278 21.560867787752244
Sr 12.62675651500086 16.80516027764215 20.769162267170614
Sr 19.153312546223944 13.028015874595543 13.708573394682865
Sr 16.488348938997174 14.867218540745105 21.336728327992915
Sr 15.738627546936973 10.696846130871505 12.688958390342213
Sr 20.08917502640827 12.576204372776843 21.270460885051712
Sr 12.021399842608107 14.456318643718348 17.094121987771167
Sr 12.4587464273597 13.088215371897439 13.127412314872817
Sr 20.881961105228672 11.550904313449028 17.23558186439647
Sr 16.991206713146155 11.664173862069532 18.860806538200773
Sr 13.596622752510362 10.429169854222174 16.404760653195307
Sr 13.364202272099105 12.289884335150042 20.324423300875857
Sr 17.59884533003408 9.14180589719354 16.011012145522866
Sr 16.6240003861992 10.704577459551041 22.66102247821126
Sr 19.293676454950997 8.678330325366566 19.985648145661823
Sr 15.150424233530508 8.240585419461832 19.58607827072606
