41
Energy = -48.3592843 eV
Sr 22.577524580075607 13.67057500349592 19.16176956187145
Sr 19.38782251334422 13.187631736673879 21.898810384923866
Sr 20.20130452671717 16.95620632110331 20.088252505646043
Sr 20.36342770556243 10.396759237009434 18.841141212978364
Sr 17.4585703154022 16.874872484467453 0.9071642212645763
Sr 22.168135145418116 16.776259678795864 16.522043465424375
Sr 21.443255358344704 12.417852076818752 15.174114326102563
Sr 20.72084778748416 20.944673851628384 18.093397599971993
Sr 15.078286068263816 13.400671897006172 0.5745912224239328
Sr 16.891263696904538 19.229123847273993 20.103082995856713
Sr 16.41328707890729 11.205132850220405 19.71245114709426
Sr 18.519068587905426 14.35723446856564 16.90400483562856
Sr 16.583690964398674 15.213584893365804 20.171776441820292
Sr 17.508255139042667 10.316163310953648 15.897012894443918
Sr 20.24817948558128 16.09278709882234 13.01572033085656
Sr 21.770506818526727 20.024403261350272 13.947736998048752
Sr 13.389034257519045 17.260159542850257 21.17018189890387
Sr 16.617388331144408 -0.34426610154443243 17.671107888658803
Sr 18.516741026208237 18.641907737025218 15.9936213639925
Sr 18.565175500335574 0.05575496311746305 14.235148342480633
Sr 13.047258616426767 13.459050130167828 19.44460928544805
Sr 13.368676323174887 9.795983900893205 16.914037104077735
Sr 14.33250141791234 1.5047026682130757 14.856595200529972
Sr 13.790954646985828 13.46751535970921 15.379047669168656
Sr 12.705969557947967 20.474724470585127 17.390301244323275
Sr 14.807619191413096 10.058268648323137 12.856074655586525
Sr 15.254453662161659 20.332868854007494 14.271178214822964
Sr 18.264300072108192 19.47397599419354 11.61496554454539
Sr 14.816279016462142 17.056588593574034 17.284370435472063
Sr 17.73745191927224 12.840962082453546 12.798132089077198
Sr 9.870126860719518 12.305799087670806 17.118805453288537
Sr 10.753572618513425 16.411914020105552 17.606384801640324
Sr 15.478416455409311 0.07019006033218576 11.094565918036562
Sr 16.221430606920045 16.426231112135323 13.518023302895827
Sr 10.97288877567983 10.946633275711148 13.479925497494307
Sr 17.291797450776855 15.733367416246413 9.799522884994513
Sr 11.745330309223151 21.46856154585299 12.877372380280788
Sr 9.586921481499614 14.741536026227362 13.841795603609652
Sr 13.532067587338664 14.133445320891433 11.437801324328994
Sr 12.364049457968882 17.54660060263551 14.099898936896944
Sr 14.239127484911526 18.60406815219934 10.624526997553533
