45
Energy = -54.03142682 eV
Sr 1.024376726098117 15.251386390524846 15.169531307887013
Sr 21.670197014190908 17.4157268815232 11.97326764164409
Sr 20.09125034099081 9.486717377406453 14.591896065399645
Sr 0.47851000797070886 19.44130292122888 15.622621336109907
Sr 19.907146583340886 13.53477153165877 13.287064756354974
Sr 18.940477865528386 8.446728597822592 18.439196523903224
Sr 16.098689670761086 7.846541881094711 15.284081987837999
Sr 20.822444528959043 12.754789942915506 17.61070592488677
Sr 22.021163506663928 16.85943043545454 18.920895189370484
Sr 16.652358219582485 11.081577073770452 12.60574340435514
Sr 19.23643117085473 20.622430749816587 13.83566325784353
Sr 19.841041759236685 16.93175623515854 15.434768093709094
Sr 17.522363611896044 17.079228233941063 12.030065820121889
Sr 17.593948944897605 13.874158346591107 9.687688518055221
Sr 20.419575583085916 14.328931969948737 21.844155430625637
Sr 16.21751817904374 14.669197268254214 14.884732091713923
Sr 14.469415375179846 9.553691600735432 18.79447245348821
Sr 17.612696239148562 11.758450121961088 20.520145853071053
Sr 19.232114990309984 20.00860398785326 18.070550227663396
Sr 17.2297223322171 11.392245169361235 16.558118273623187
Sr 13.31601340541937 11.746657063329112 15.226647549051739
Sr 18.08183853579155 15.650581789612742 18.740848301887056
Sr 14.69443646366272 17.18733984214582 8.923835002822761
Sr 15.932313555754085 20.69686511353938 11.170309945028883
Sr 14.537626941601944 13.71817588443765 18.73776986651734
Sr 12.679527613182506 16.12749321475032 16.204245004200224
Sr 13.792741198725594 14.03226910776914 11.574706115823638
Sr 15.56604557620159 18.77534455201304 19.54678442243578
Sr 15.603200723407797 22.383456714839085 17.342374659500116
Sr 16.044204348366286 15.354592055612452 22.231776545056714
Sr 18.996897777969007 18.301517601317606 21.895365892904213
Sr 15.980292688962141 18.818035832296935 15.49306142481823
Sr 12.13459830142744 19.892444372377245 17.22413129326167
Sr 17.222369935875815 22.110365948071454 21.250500529815127
Sr 13.432354667220217 17.875845724241433 12.654767783043262
Sr 10.519539771758081 13.26768127106502 18.0429519699465
Sr 12.121226914487952 16.977224230138518 20.35259417268234
Sr 10.628543942341345 16.553496422134693 10.13960547874378
Sr 11.872443286352118 20.461652971774317 10.08615594410705
Sr 15.035963728661864 19.24349373200648 1.0670534957467057
Sr 13.058418278537014 21.69911287071169 20.789807457159057
Sr 9.9837139350959 14.567844638605914 13.862545948811341
Sr 13.116380345540911 21.870056702085684 13.874278709851849
Sr 8.96090992815983 17.060721817194437 17.329103589110396
Sr 9.8343988625552 18.967859867821986 13.669414507836613
