44
Energy = -52.10830865 eV
Sr 20.509138931754983 16.7608241878371 9.91417892576569
Sr 0.34918533899854454 14.726990198008698 13.719224373635376
Sr 0.2074185003459301 18.876512885648598 13.468382747270175
Sr 20.429674867556802 12.70176990162931 10.922115588397888
Sr 16.169266354696806 18.158953445618234 10.269758920582781
Sr 16.665308821049127 13.985952888524924 10.969641530705095
Sr 19.271971090809995 20.59331774939338 11.35185838726539
Sr 17.59338807663405 9.902550000277003 11.173064320478025
Sr 12.753370231081156 15.499988189327771 11.377384994215026
Sr 18.665403401443076 16.825212920411985 13.267800390798248
Sr 13.539914398154979 11.14769810537987 12.021148455812959
Sr 20.79127537820076 16.965395674596014 16.878785003071375
Sr 20.842506417395377 10.378077207576537 14.366780206334509
Sr 0.3041863771496151 13.055197517314015 17.552771207535258
Sr 18.82234712915421 13.46907221896928 15.47481766353745
Sr 18.29813946422073 20.143254236671485 15.437383730297249
Sr 14.611380402604803 18.09432094216679 13.987417085537391
Sr 12.326426566648493 19.785704935357796 11.168474328926823
Sr 16.61828502735234 10.116981086222003 15.09209988005145
Sr 15.6712076798194 21.886310759899647 12.767909460018389
Sr 19.057400475722996 10.695831233221348 18.50418278719951
Sr 14.720867358224357 13.883474979606104 14.532741560857014
Sr 12.700565036156442 10.362873008880353 16.22680002840093
Sr 16.755357048263388 16.486996008519483 16.953287632399192
Sr 10.540240675735005 17.657652962344766 14.386750804251186
Sr 10.587220189643913 13.495647724770961 14.486349238184403
Sr 15.683740283226452 8.521078345161714 18.86957221995381
Sr 12.260692927679619 21.509267600241436 15.06211879855809
Sr 15.319823197369178 12.696796182123414 18.328273896265248
Sr 15.8889866872047 0.9338505609222594 17.451581941880992
Sr 12.599863708805355 15.761708020082166 17.415842016196944
Sr 14.283890874826643 19.44575190306834 17.879035306663546
Sr 18.92496105258611 14.61817956874316 19.7705797121908
Sr 18.193913989875327 19.26261845305278 19.501390096838445
Sr 9.674421870216488 12.112052795645996 18.26669568036956
Sr 9.23562062522053 20.067547761463885 17.431251551443005
Sr 12.445676820885746 10.193817064655738 20.50139699015571
Sr 8.740984180023704 16.04320280206141 18.034998422092062
Sr 16.10481953443601 11.939010375883143 21.97777009966334
Sr 12.01934294088627 0.5492012836292909 19.13452456546398
Sr 15.256965709845366 16.479793301601422 20.763870599278366
Sr 11.847068192917689 14.164312633209448 21.086749251067875
Sr 14.952063813180695 20.845800367617052 21.51321924196799
Sr 11.43141465239234 18.430056200362387 20.524929784288236
