53
Energy = -64.82207046 eV
Sr 15.905079454756516 16.65943949294646 1.696912436978493
Sr 16.955856833471834 9.960678051847644 20.307099855993084
Sr 12.880593268402382 11.694709581530528 21.254420658046048
Sr 16.11946853667819 13.971936561516035 21.55819269803395
Sr 12.359119540223162 15.899232054318418 22.79704842078317
Sr 19.24043521053268 16.530156113402267 22.345656337109272
Sr 19.570877634364532 13.452823276904319 19.509131635309434
Sr 17.802556910360785 20.200552347681136 0.41299902951973383
Sr 21.57792775398467 16.959511609679442 18.924626657032903
Sr 13.206105026417168 8.627690713053482 18.51978639178326
Sr 13.5833458902496 19.949059122970255 0.7078284736861361
Sr 21.87153890846506 19.71979246794215 22.285318795763033
Sr 16.627358346662408 8.485107702792167 16.30909728463092
Sr 15.183538910436418 12.079095287212537 17.61980462171415
Sr 18.8416027710787 12.011126933994877 15.964630243973502
Sr 15.477185444878318 17.904064959361804 21.000077210595993
Sr 13.20708792500481 15.221008406780733 19.03438553688781
Sr 10.921743312755725 12.000755519212442 17.667813340710765
Sr 11.734375911841418 19.29774744386001 20.064193360902532
Sr 22.43826908326143 21.314145490764204 18.504277246296404
Sr -0.10018087992373444 13.3354026111724 16.721617892959397
Sr 0.9394599756081471 17.794345130038835 15.968529136499985
Sr 19.72038404278978 0.0712466630979853 21.395009461332883
Sr 18.786394335850787 19.772896150743755 19.670755858073772
Sr 17.024781977036856 16.236579670316946 17.109744602581493
Sr 13.149007135222142 10.2505788424575 14.510328182191277
Sr 20.67288087719141 15.669972369391601 14.836985397291693
Sr 15.517185104349359 21.972886431249375 20.540245306904346
Sr 13.046567203993021 14.390422913450296 15.048957043142881
Sr 20.13825453711844 19.44352189413264 16.012127408084275
Sr 18.308516780469272 23.16075971476867 17.36056949806771
Sr 9.627147100445796 16.12523988497836 17.634477063435956
Sr 17.246275676663604 14.448134795194179 12.969613755884085
Sr 0.8716379363231075 15.065952207159503 12.774941672116379
Sr 20.796024201486688 12.276659304321768 12.450690874382271
Sr 12.893552218078268 18.249303227277323 16.43510165450492
Sr 16.8104544987194 10.507762426717663 12.70847204352733
Sr 17.89611449004465 12.70435273354293 9.333531924620045
Sr 16.145281329960472 20.33693731223423 15.46822308705024
Sr 13.05526934998006 22.367371719478367 17.255240317591134
Sr 18.307332034485583 18.263571976590438 12.753086960092729
Sr 13.955468808833201 13.25327062461917 11.117788429403083
Sr 9.43440405310977 20.207866802802542 16.441943688461226
Sr 22.287674720320744 18.998882657777816 12.508164401790403
Sr 10.216927269353432 17.22943647393956 13.527670211997709
Sr 19.199600963038296 22.193253196741825 13.172995259981146
Sr 15.395590594891098 0.8149489973464437 14.052105493952412
Sr 20.56638003243294 15.829468088900244 10.422758453735334
Sr 14.32723818175526 17.432011496145996 12.74605868840195
Sr 12.361088302157766 21.01918376281644 13.462878842635511
Sr 16.633803136516267 16.71149953600414 9.430114893939137
Sr 19.575554095148096 19.908735655338965 9.39523414472139
Sr 15.836408966837084 20.94227224027867 11.14137182758363
