50
Energy = -60.86482768 eV
Sr 22.297089983352162 19.493073205944896 20.40667449802176
Sr 19.187068971021592 22.542459937283336 19.40732517547913
Sr 0.9078118935232239 18.66409126827132 16.035890750801133
Sr 17.945641271349285 18.926015038774775 21.06580192414659
Sr 15.872413340548276 1.312976665497605 17.65235037663065
Sr 22.120106922005824 15.797211734996859 18.513324270031042
Sr 18.559500763486334 22.52851949951526 15.038442114687147
Sr 20.56401629861498 16.07639595985645 22.30077299904582
Sr 15.057645078545345 21.981848094865484 21.090645389788868
Sr 20.1757857936393 19.382747812545386 17.09243831238854
Sr 21.078381804624772 16.371995814222682 14.623475039017219
Sr 16.240933218339567 20.449504357443185 17.621075355584196
Sr 11.202923971825609 20.808126224020665 21.438779499151895
Sr 13.912315607413737 18.264526695813803 0.5012495536477446
Sr 14.563085592449092 22.120713300816018 14.21001513618945
Sr 12.239391446182234 22.440789276391097 17.797770698355528
Sr 16.563915274397733 15.08495586278285 22.07234420917193
Sr 17.326916297120174 18.433943307247954 14.129108968848607
Sr 19.263713328804826 12.766394568049117 19.96144101226206
Sr 1.3907384441679056 14.469060117197099 15.195847517165475
Sr 17.403060152603885 20.717964150455163 11.033491217787395
Sr 21.25410287401862 20.110475280925776 13.070391419256024
Sr 0.8538090952222062 17.02997991896806 11.987015575965966
Sr 13.8531142388063 17.730311693113286 19.8388214571284
Sr 17.91055390917689 16.078814475672473 17.831857857094587
Sr 12.939416923959186 18.92238671495638 16.224021029866467
Sr 12.639892611923939 14.089768603575298 22.203734630150596
Sr 20.04145606785708 16.90498564966534 10.750770750808972
Sr 9.931392809943185 17.093346008016713 21.853075531635874
Sr 14.555944237475586 13.746410085639214 18.80823188893894
Sr 20.882737568018168 12.605654054784223 16.153634184169253
Sr 15.760275433283262 10.636119435744416 20.68359662991662
Sr 10.350121240293849 20.932507517055424 14.170365198838034
Sr 21.653585056169714 13.24359445334063 12.028864616931758
Sr 9.46920394573641 19.11431327080183 18.036285900027714
Sr 14.582346817959484 15.605076122578094 15.243158740081565
Sr 16.927364506457806 12.155484278599337 16.435313601708472
Sr 17.86835428799503 14.313811426152856 13.304172368274832
Sr 18.825403146203318 9.067712270969528 17.846691284008195
Sr 13.45859303808611 18.66831289644828 12.296496034413783
Sr 16.216066697232463 16.631091114218282 10.242826248140384
Sr 10.932350200178002 15.191358921958606 18.293220872594347
Sr 11.702777022625266 11.02285909796568 19.362654449788508
Sr 10.507095616196667 16.48510098614437 14.323711204169175
Sr 18.907242186852073 10.160281563171655 13.533232401232935
Sr 17.77522087599626 12.678033650074697 9.843830522706558
Sr 12.256598237131431 12.423635774807162 15.473629870483597
Sr 13.248909635362805 14.381060443646831 11.699929484519945
Sr 14.661926810468216 9.127645457397934 16.776449464470613
Sr 15.094915698242714 11.004924688460505 12.89590034445122
