55
Energy = -66.24688055 eV
Sr 7.357358501310304 10.670802187824076 17.204232527731364
Sr 16.503483136696406 13.771533915901964 10.846602067858507
Sr 14.871541483368338 8.036264789733453 16.400412501243196
Sr 10.510319833628031 11.317554355686706 8.077556999769577
Sr 16.594113407652344 14.277859084655034 15.236936199793085
Sr 14.85295606657315 15.444719743578341 5.08859810801799
Sr 9.692943620547592 10.758329502123896 13.672060177622788
Sr 6.774449295588882 11.070088521550534 10.584681979761706
Sr 12.900080116817904 15.100490108269687 8.900111046834942
Sr 14.054940922916195 10.88153285321188 19.538916804685957
Sr 10.284941097407627 12.43154906266001 19.31646885722229
Sr 13.035351833739597 15.20177305959981 13.125547477088679
Sr 9.256100080950963 17.284070823840725 8.783957658850571
Sr 6.010071724246381 15.468765745824937 11.101528333856615
Sr 12.912773565152824 15.308179959663876 17.592113206829822
Sr 9.54097456053521 17.64095292924621 12.941965026751305
Sr 14.39786568208038 11.842821215503704 7.154572711159363
Sr 20.72819740100717 12.080554270798023 9.63948706624578
Sr 17.21441674928449 9.915410381438262 9.405243694400445
Sr 13.288042928977543 11.106808534441068 11.403474518143245
Sr 20.0974195529638 13.29673657900077 13.264598530130144
Sr 17.065607481033307 10.516490092570956 13.729282515772782
Sr 13.22657145367986 11.650577227949537 15.596807739254945
Sr 7.29749979703708 13.847911562467376 7.549215153009715
Sr 17.751344182803628 10.737523685505405 17.77644929571708
Sr 12.509901447894359 18.502034813121682 6.446402994802759
Sr 6.743377548983954 14.625521011036628 18.35614962224878
Sr 16.160042244115782 17.389272525318994 8.461022718033481
Sr 12.828628605408301 18.73737605293232 10.715869654564269
Sr 9.75806509494379 16.27837159259402 20.79490741988377
Sr 16.360346652512277 17.634771144348896 12.65591188594315
Sr 13.059871891870129 18.862622063839048 15.145686424671323
Sr 13.177172638679837 14.448723481361323 21.7378948673878
Sr 9.582074956574912 8.190241124220147 10.433816636263979
Sr 20.189603403394734 8.690360638820202 12.016241921099114
Sr 20.109277925056062 14.180648280901242 17.381807023280842
Sr 10.841209873997142 8.703971351612054 17.2561964208
Sr 21.261289792735933 10.373523930742762 15.657195548507595
Sr 16.48541012981362 14.392778065621474 19.457034434609117
Sr 10.810018579525265 14.73332893089709 5.482362894539098
Sr 19.761348048329115 16.20083216277015 10.341240538683895
Sr 6.060995466040133 16.803894430340357 14.977041018072615
Sr 9.675090745908356 13.918299527712293 11.141596589903672
Sr 7.278335406299114 7.910367517821479 13.981055873670181
Sr 9.551502184198267 17.97071935223243 17.159680802698908
Sr 9.46112391332755 14.285415129243859 15.457247747659965
Sr 5.881614566228421 12.733786914536104 14.219204214094553
Sr 13.324125892335273 18.4202160419326 19.79149171512461
Sr 16.071179176065566 7.021968037801286 12.269336060551895
Sr 13.467778467272694 7.957805530440603 8.98119118010965
Sr 16.603388518927332 17.76025066101326 17.075826838883014
Sr 18.753069011829957 7.176017485667146 15.591743910928022
Sr 12.084256868503127 7.442818749050356 13.460261325502865
Sr 19.91303359154746 17.144907066671554 14.542786164319073
Sr 18.04562406097741 13.877977371647464 7.109096534705745
