5
Energy = -2.87075311 eV
Sr 9.850530000532313 14.274727284828836 12.00640349247376
Sr 14.026034779907087 8.546871965156678 12.577881359323577
Sr 13.216897711932823 12.299072288488256 10.650296340190327
Sr 12.150853527806325 11.90313007758319 14.501355947676329
Sr 13.555443508363759 15.551220736973509 13.168494140111079
