54
Energy = -66.69530097 eV
Sr 12.609088731891488 13.64201571669712 22.93135669134412
Sr 14.499995677540392 13.504872209959213 19.313697931074156
Sr 16.63992209058829 11.836528128508453 22.385260295269454
Sr 10.420113313232475 13.581022770544532 18.721021727336996
Sr 13.019166063915389 15.53393781546699 16.134927498122803
Sr 15.79816410948337 14.504374149296627 1.7806159780384716
Sr 16.541635941658615 13.801332688685129 15.643030830936938
Sr 13.254286169766003 17.620794190806322 0.4633077566336546
Sr 17.44678624285807 13.108481974403691 10.80450931890583
Sr 15.852605141998742 15.839455829548132 22.12884023333988
Sr 9.637190176020097 17.451689626588458 16.36804282547421
Sr 18.806252867384536 14.087804464943744 19.091809002665073
Sr 19.31181558421406 21.901921622811493 21.183257436575232
Sr 19.393076258896592 14.603513254231649 23.501438543272187
Sr 21.443417894418793 17.0619456931615 17.570750215339107
Sr 15.232063622610037 19.808480420291385 21.341508935196345
Sr 11.764172412710726 16.9133483256926 12.648226273327133
Sr 20.19366395268446 16.55266300742541 11.237525341673864
Sr 17.570162293382708 18.416938154486587 0.5841043188504663
Sr 1.33372542132504 16.629183610603384 18.248198695990784
Sr 15.976712479852528 16.39254479050044 12.152528071283522
Sr 9.944730453295152 13.53327660745347 14.468376800079835
Sr 22.534033374858055 15.217390606884827 21.023285651194097
Sr 11.442665792601279 21.095962053424543 13.561558057890611
Sr 13.202222419010624 11.232488489717166 16.295681452082572
Sr 16.869241857743862 20.85471636692222 17.780885029994216
Sr 12.326488237597777 16.905596523945928 20.221355196765803
Sr 20.74713046221747 11.123419968537387 20.68132151147454
Sr 14.569675446998595 23.513476651820348 15.791226928457364
Sr 16.040814815687757 17.108961168748674 18.18446052060391
Sr 16.89992990536029 10.367400702290642 18.37282809711289
Sr 15.049605191914807 19.688267461486475 14.138901836690767
Sr 13.537963007636098 15.021242964777734 9.206519648763507
Sr 13.750968928489437 13.020487222139321 12.745608790718272
Sr 12.88257334770315 19.90256125596497 17.456791962217938
Sr 14.916903431797435 22.94485024782904 11.668763547066947
Sr 18.753383868449596 0.46803650494779353 17.77355115026879
Sr 18.647592302797435 17.9143196233618 14.89894143050831
Sr 22.892234022214073 13.338903771586969 17.422431755179485
Sr 22.971464171232835 19.514083582179804 20.511228696276664
Sr 20.6500176319895 20.93206910083438 17.360676602852113
Sr 13.868493425275082 19.245814873997286 10.031578778384803
Sr 18.291038713730675 22.372171258588022 14.256184323099246
Sr 19.11810331505452 17.9268668693406 20.755767170176203
Sr 16.90714124239803 10.238266316674586 14.065073877952175
Sr 22.779101535365303 23.624197211681036 19.301547715865834
Sr 20.341794995330904 10.34468757569637 16.4530274611053
Sr 17.124784357833366 16.785846490012926 8.256742193730425
Sr 20.163467234823315 13.842631234135125 14.292369456199586
Sr 17.869177734730997 19.90410717229202 11.027644972127407
Sr 21.676119746414447 20.13499230433496 13.267639267863975
Sr 23.445470037940975 16.529392725082555 14.28120420507188
Sr 22.18894226061578 23.912955660038087 15.210431167495939
Sr 0.3295525569405245 20.29645547143541 16.51915825906012
