5
Energy = -2.32270298 eV
Sr 10.32977779092511 11.589973743543727 14.626431512966901
Sr 14.883872005854176 12.28926580990587 8.786597066280542
Sr 12.115406848912476 9.90437627473158 11.061445645859413
Sr 13.126472764967883 13.718220865093018 12.404012269634096
Sr 11.713672320961107 15.367821750982861 16.098333511712188
