55
Energy = -67.1683251 eV
Sr 6.32398635851991 10.710548555636857 9.46137393567003
Sr 20.74660008932886 14.362090552062403 13.089981081801788
Sr 15.676399415149083 10.106169042581142 15.838413962532933
Sr 10.292235928844466 5.631492264231341 12.297582713350064
Sr 16.94125008757833 14.194184260652644 15.05279607382396
Sr 11.068001757116864 10.210936667510316 19.18297045871426
Sr 13.642827439731203 12.95210028648562 9.083337080686121
Sr 12.804326473912365 16.913325161622314 19.04159743262682
Sr 16.379855318313346 8.735169768843903 12.05951112126719
Sr 9.737507028368416 11.963735534585792 11.338734869877225
Sr 9.945043525025422 11.714656443831165 7.376450825523515
Sr 11.486765503657272 9.91471617880256 15.043439288691355
Sr 6.221045624842606 14.946417930011782 16.593471067273114
Sr 6.209214991392217 12.76212239467715 13.06562745851665
Sr 7.741749215489547 10.86056023658772 16.690727320444875
Sr 12.967360490546195 18.987840337409054 9.440100275532448
Sr 8.815542700084475 18.617441051681297 9.389127194952055
Sr 19.080986390044696 15.959537811415531 9.467432949439969
Sr 10.752487793771245 19.490870846244803 13.027941516743036
Sr 13.690895296073059 6.549393966409538 14.096394232721137
Sr 15.36539651464985 16.200202116075708 11.336959988053087
Sr 13.581674723427048 7.2490771328502674 18.07553318705365
Sr 9.644931358535848 6.79370110556921 16.427461753580456
Sr 13.12174538803812 16.5791549056366 14.898828210526338
Sr 19.498104817619442 10.67443788859719 14.178888753894384
Sr 17.41538124973073 12.549199638182108 11.044730434209823
Sr 9.459191449390207 17.649499987909394 16.63059120441729
Sr 13.204422650348752 13.145980905459464 17.337797811273358
Sr 13.704388244654481 12.631562455485534 13.08516979540882
Sr 15.310658834822242 10.63357290155706 19.90132977560858
Sr 9.535241047709961 14.115608524633965 18.977609848225853
Sr 9.818042830561302 13.873789528288212 14.91438819083327
Sr 22.661090016505902 12.581754212066071 16.30163927477465
Sr 18.571537514841477 17.80679530070956 13.313042976830584
Sr 17.091575851819353 19.52348691655052 9.633201447105591
Sr 16.404138356874515 14.746866667318356 19.315433877645432
Sr 16.366777067433606 18.131918654535493 16.861365373765675
Sr 14.925009282757436 19.915674800067034 13.164611107556036
Sr 11.190914215093995 15.740059167542 7.129458287496156
Sr 12.472206938000875 9.211628214815551 10.888735930040623
Sr 12.711060455055426 20.31936978030349 16.656843105793246
Sr 12.373027590755443 8.570038471384507 6.540920445700185
Sr 7.907497865646161 8.8429536843222 12.986040059863312
Sr 18.96011731701283 11.84778244754576 18.01105236477665
Sr 15.841475644251457 9.570380755895089 8.162522027922657
Sr 15.360653651551122 16.297461165677195 7.269034725311475
Sr 12.84303938364333 13.502096836213616 21.426366716546415
Sr 13.67854338327659 12.494913931553565 5.23586320068505
Sr 11.159560651787501 15.764967564116963 11.202267030996966
Sr 20.047292849494262 15.80642454811878 17.000449301607304
Sr 17.615828312027663 12.969003923529224 6.881178861448807
Sr 7.495770328167263 16.757106166983437 12.971419083004845
Sr 9.209291934859042 7.820779050109994 9.026210935563176
Sr 13.791431738605924 5.866362286786681 9.670659019073495
Sr 7.568523225571704 14.662703184637902 9.335009145529254
