55
Energy = -70.22717435 eV
Sr 7.817023089945297 10.587517257889546 17.943575859345227
Sr 10.255431643642508 6.927593183271401 11.761378942473337
Sr 8.132782855412566 10.425382592871506 13.34920490322829
Sr 10.65122848316232 8.095513938320208 15.963115168304565
Sr 7.285288380586771 14.10890038647875 15.623001524482302
Sr 14.10076358867956 6.9377172984174456 18.28532903867639
Sr 10.4928607826504 10.416750553009818 9.146026893387052
Sr 14.099506330933485 6.769779425417219 13.91795979197949
Sr 11.958756428311107 10.532181707867984 19.51354959493927
Sr 10.74698229601325 12.192876662749578 15.895219769884177
Sr 9.850180272709801 14.110970727014216 19.351086881829236
Sr 12.096923845643648 10.235059995071431 12.754459895466537
Sr 14.110285848904311 8.069678412576884 9.909123392802352
Sr 7.811776607522166 17.640307984935305 17.926769874398545
Sr 10.385589354465594 14.100253193829682 11.79097873792681
Sr 14.105395221946077 10.217316396275224 16.14392709576418
Sr 8.1316831209494 17.779012288878416 13.340520575513398
Sr 10.74274257313993 16.015631308216967 15.888640775956933
Sr 14.1148642561492 10.48194745206609 6.4536064522748235
Sr 17.947414355410658 6.9002340347876725 11.771097672714577
Sr 11.963975069633896 14.096728366067367 7.243228804007304
Sr 17.55581009526109 8.091190255699784 15.961179400435432
Sr 16.246261149566436 10.52766840641397 19.512623420510348
Sr 14.103997980362768 14.108999124770758 21.651953167144423
Sr 14.118591529671724 12.173225828412345 9.984708221806471
Sr 16.118167994696304 10.22115591848098 12.761252264390565
Sr 14.104785040064296 14.106901087882656 17.848386923725187
Sr 10.499377152788258 17.7826878638022 9.12747007956561
Sr 11.958632291466243 17.692572801521653 19.50599231630719
Sr 14.103001121240576 14.102154545973752 13.783575738580348
Sr 10.64822045057474 20.11512940307146 15.947053718534658
Sr 12.097342620553894 17.971437891111112 12.749345317954813
Sr 17.719211457023935 10.404636205304048 9.142726378214572
Sr 17.467177629352747 12.193800167157686 15.8928285335598
Sr 14.109771177638313 16.031062721663865 9.977314910824742
Sr 10.253581032091157 21.273641485909465 11.752828379758773
Sr 14.102470906239319 17.99694553682786 16.13682957029193
Sr 16.27471467362482 14.096722716371644 7.254103733388166
Sr 20.077146441197876 10.418534524861446 13.348135754091436
Sr 18.357030802917446 14.111620478555503 19.347071719709245
Sr 20.389429377060196 10.544691702486363 17.937768789994884
Sr 17.82399085547688 14.104102521810209 11.793727631916639
Sr 14.112813844192782 17.711179526222963 6.4418973560936195
Sr 16.24428505079089 17.693355326738327 19.50582045024643
Sr 17.463964347687067 16.02121968588774 15.891007031810021
Sr 14.100618574680938 21.296482439445526 18.262363593988947
Sr 16.116565197398682 17.980884575589446 12.749556210658929
Sr 17.71823591834718 17.79906592042194 9.134057968758954
Sr 14.103400962991007 20.12702430692745 9.892684289973433
Sr 17.551248293642843 20.122030567877108 15.946302126670595
Sr 20.92605106224188 14.106855015709385 15.639947983316132
Sr 20.384679294401625 17.675574977424635 17.930416310427898
Sr 14.099001753387165 21.43853055019727 13.892518530581528
Sr 17.94678969965177 21.298348925182477 11.756566970821316
Sr 20.073467315904416 17.790501328273873 13.33947106059201
