50
Energy = -60.86351752 eV
Sr 1.9624982560367399 19.25114931640741 18.096853111286567
Sr 22.847208105460545 16.59029129674806 15.015363554425965
Sr 1.5721846091261424 15.164208424886427 18.89654792954201
Sr 21.543199570759036 20.361190696150217 16.027675384347262
Sr 19.940506891952364 17.143260773297087 11.229357418457456
Sr 0.7630229428786119 18.056872994823358 21.93629869570704
Sr 18.580396774107342 12.938865864204669 9.70491766060289
Sr 19.99239133056803 13.661936283798733 13.473823726724811
Sr 19.204185258074773 20.99492703747064 13.031690163183072
Sr 21.190451659364374 21.373994996264692 19.98095015595603
Sr 20.78169945261036 13.895840101157217 17.44487627548497
Sr 21.34794759724082 17.540074342277393 18.7920515795358
Sr 18.724037552178444 17.270962598236338 15.284458515940274
Sr 16.779130228735045 16.307810893659134 8.195466522207399
Sr 19.407744700372266 10.333872726147776 15.796318820013614
Sr 18.431180122462898 22.897941128744254 16.77219700047537
Sr 21.10588605618744 14.546834663544077 21.58132069718114
Sr 16.192995101629208 19.271084899274985 11.205958692994304
Sr 16.37584196416907 15.259021191382779 12.073787679705765
Sr 16.247059300907104 11.326026457815697 13.007166649066951
Sr 14.378805641486444 12.912103416479665 9.487537512953944
Sr 16.892863916364227 13.67350530139079 16.294823804659938
Sr 19.58336939400537 18.31482338128168 22.327851343957146
Sr 15.955987870278273 0.5707916156873555 13.305006233520675
Sr 17.63343432453889 19.464508632986217 18.716500828893114
Sr 13.02341357601423 16.984751621827876 10.014584947025849
Sr 15.79949495958466 18.698413942810262 0.05780976270221646
Sr 15.505054902773866 9.834519810796023 16.93015023552035
Sr 15.713612902300158 20.041154970834008 15.261024090539863
Sr 18.36897625698413 11.613330028169273 19.812098252236215
Sr 12.727901008432248 20.88499673033261 12.52352152536018
Sr 17.007186621762834 22.43003843963089 21.039852631523363
Sr 14.326543078195611 0.12216035850631832 17.32450779760727
Sr 17.51548316935945 15.681633646596916 19.7249610401732
Sr 13.48133589551297 17.002915430989844 14.020573625774801
Sr 12.939884780724766 12.979604135280574 16.06461022597593
Sr 12.318008033064352 9.798869094205784 13.802459155379795
Sr 16.998439960449147 14.494444831535318 0.4090564241370153
Sr 11.427808584962898 13.861712897996096 12.448332767537963
Sr 13.763310324493592 16.515869065566097 18.027254032969942
Sr 9.814409203611078 17.98262946818548 12.542010180931976
Sr 14.500175218447287 12.664749294542606 19.90854755521239
Sr 11.592810216214977 9.793792704765945 18.148545470212316
Sr 11.573480477029653 19.810176733011033 16.33951005204362
Sr 13.610011586262038 20.021526060754784 20.018941442629597
Sr 9.114013115333297 11.910659000055093 15.591139958094246
Sr 13.092583486625912 15.970698818662047 21.996442240594252
Sr 10.024845708140893 15.944626084615571 16.014652342888287
Sr 10.563612809228943 13.703141769586301 19.33733036837771
Sr 10.07787265503476 17.815762965469172 19.74314637268843
