5
Energy = -3.17835457 eV
Sr 6.816776066101201 7.579857599789632 6.579649248724378
Sr 7.536163238339261 9.767534421676613 9.889236757393164
Sr 10.446007793438465 7.452163288152646 8.330495746552794
Sr 9.309091729054561 10.906034596281335 6.297456211395802
Sr 7.224243994031601 5.626691952169252 10.235444535933986
