52
Energy = -63.0148239 eV
Sr 13.367612318932583 15.433231859671334 23.25084649512947
Sr 17.65449943762773 15.89474652082086 22.999120934158242
Sr 15.245216328137067 19.27680847703311 0.25153784308868077
Sr 9.617353990771422 15.854445585911266 21.453070869570336
Sr 19.929747571712895 12.457151287853186 23.047471451716476
Sr 15.96643908332391 12.549084398004982 21.23112837482945
Sr 11.797214079951074 19.39192695263707 21.79186873751304
Sr 12.389705284657007 13.57706341901159 19.49474872759579
Sr 18.85668827121575 19.838924397240287 22.065844323435567
Sr 21.460680301474778 16.163781327193416 21.649588905938458
Sr 15.162671037078013 17.65618722792994 20.576384123755673
Sr 8.446564378633136 19.087047138739674 19.233487818556856
Sr 8.825695915268794 15.186797673121127 17.322701067059295
Sr 19.171268890195424 9.72805612092517 20.091445262724896
Sr 15.338907021386689 21.712019338156143 20.505534908381236
Sr 19.181579023912146 13.646235640377453 19.270448253892003
Sr 22.833785125813495 12.3348951339267 19.922888279746843
Sr 16.617919288408185 11.30025848364121 16.889309125815757
Sr 12.005879538102878 17.340423330343068 18.149788356999135
Sr 15.707340369660555 15.206295034323173 17.372544267668246
Sr 11.858411797149408 21.453360961366023 18.061898035641885
Sr 12.394259889007625 13.747576859937128 15.351290728541885
Sr 22.288241513960116 19.67929861008837 19.502464716630936
Sr 18.717625574631423 17.724706880427508 18.763321488052796
Sr 9.614384651762114 19.013096290112795 15.31341725567177
Sr 21.25562149537435 10.334522841918377 16.555418557326092
Sr 22.042438175808346 15.968395733952423 17.620732226102017
Sr 0.4980533473546135 13.313172426944426 16.024228710496587
Sr 19.785995509699784 13.618158958784376 15.232441183876682
Sr 9.449896596538169 15.517295720151672 13.159968983962163
Sr 18.612038731613712 10.514739545155404 13.075793138722426
Sr 15.327479445513227 19.547231948751357 16.975179969470826
Sr 15.958042844048931 13.872976452706851 13.355909574676392
Sr 13.519059174661997 17.57847932877903 13.848012830118366
Sr 22.495749210203748 11.912925858197543 12.731452257057079
Sr 1.0730838733272676 18.416917592917056 16.371450198787613
Sr 10.421143574329841 18.994808432632347 11.283167160566421
Sr 18.941649242379334 21.812802671587963 17.976577009408462
Sr 18.18018392785347 17.106493968387834 14.625239989251552
Sr 21.139474433985878 19.4726061545761 15.592604551369563
Sr 12.634119932189774 21.56005311360422 13.936698559980103
Sr 22.603353907718926 16.280518498631025 13.52094219984308
Sr 15.433231515140688 23.52919946082103 16.41172794608048
Sr 23.326108310366934 22.522294882058816 16.655793073554456
Sr 19.527203051626508 14.524628524113519 11.330866810478065
Sr 12.769609453030315 15.435802865028995 10.616478806340735
Sr 16.709246692866504 20.73184628526147 13.399622108784177
Sr 14.047113927727866 20.206724580282913 10.175487448173069
Sr 23.789659059595337 20.64644811011528 12.91451989372797
Sr 16.488677789241258 17.223827712086102 10.924459438632947
Sr 20.182128780212988 22.945799719149836 13.894787813900683
Sr 20.108900720664646 19.135105850566852 11.579943120663659
