51
Energy = -62.32210389 eV
Sr 22.632244243205932 20.004380721726925 11.2226342329677
Sr 19.22196547231057 22.07043247652873 9.77725382664793
Sr 19.938248315333414 18.083114248849284 8.7004304567587
Sr 20.389111639457354 22.61013256651512 13.828139622894906
Sr 22.481396786491292 19.381236075521958 15.302135396099034
Sr 21.22144127506417 15.91839666583351 12.866133604277461
Sr 0.9293317847726266 15.462021061413253 15.750986428329075
Sr 15.884189771589304 19.37664208028571 9.673255277802417
Sr 19.12095881160796 12.187080020498097 12.37249929924986
Sr 19.001987534103357 19.096094448087253 12.383067650885305
Sr 21.022631387231947 12.720221067547996 15.993822960136752
Sr 16.294910537677257 22.14946416978465 12.890750295322974
Sr 17.375515129725137 15.67964377428231 10.852239904398084
Sr 0.9123065673406426 17.988386852014422 18.971215196303675
Sr 20.61053782522496 20.542438912789812 19.194997890316998
Sr 20.752179039310167 16.65296295768525 17.431807698581398
Sr 22.814866082276804 13.764035647946303 19.479681675760755
Sr 17.651444515280392 0.35998907708938466 16.801016028417664
Sr 17.59296174404185 15.086244720665302 15.089622789546961
Sr 15.153297579224976 18.15215724402148 13.557162340592527
Sr 17.301884294716427 10.947399095560002 15.95465762055143
Sr 15.02324054536684 12.802421891044657 12.575178636598997
Sr 13.132760232004374 16.110544993488755 10.771113390634369
Sr 12.289483020373394 20.299670644857596 11.95782116333589
Sr 17.970705000193192 19.69916125283232 16.248240825939842
Sr 9.477021555000698 17.01010949701037 12.180361233414306
Sr 10.4608301941718 12.817829371853968 12.651175639297305
Sr 21.204796559202542 16.87396108062159 21.59029167464179
Sr 17.65153431402636 17.811612440180454 20.091847443346786
Sr 12.538332423280508 14.900283717743749 15.002222661563524
Sr 14.730445598800472 17.354100271161833 17.447051180400507
Sr 14.066297023994037 21.357027299349756 16.212346613121134
Sr 13.167958762071805 10.338580690642058 15.041282709899534
Sr 18.433979561524303 14.019196382917206 19.28041084069961
Sr 20.450938641902145 12.851662447658056 22.795883956323152
Sr 19.92661448552881 10.348689945254542 19.444831296801635
Sr 16.166706526328955 21.327158297281915 19.880093896403807
Sr 11.06667957145322 18.577411526498807 15.735487386554148
Sr 18.86863201494529 20.072152765543738 23.11970821620803
Sr 8.384779844279354 15.221870098401705 15.607192065832034
Sr 14.399202159617015 12.89209871878754 18.128509311400514
Sr 10.282686455255554 11.982044562589918 17.28838422918637
Sr 14.46548468444844 15.650555383217975 21.05937133136345
Sr 17.77768261325279 15.876047204803053 0.28432177410456577
Sr 12.386800604306721 19.52413506869038 19.83872596885292
Sr 16.260296339016598 12.125060376058622 22.093120696787075
Sr 11.104785949628916 15.703439362850379 18.775932187611016
Sr 14.848051165170677 18.839814139422316 -0.03336488452195432
Sr 11.844890748499797 12.687980859490997 21.54531089640233
Sr 13.960507362705709 14.605152699885908 1.4753969111567264
Sr 11.059040268026417 16.811864029897933 22.829824891191066
