54
Energy = -65.39652516 eV
Sr 0.36424486434884973 18.273247523269795 14.615462918965507
Sr 21.962474766655685 22.28282602452507 14.282844741271594
Sr 23.25971955838407 20.094228649671432 10.900317416247749
Sr 0.5480500222606136 17.350334824941026 18.693336468235216
Sr 0.5512719871845495 13.736077633701745 14.383241547521951
Sr 20.810985383626758 19.702788380406695 17.48888271039042
Sr 0.6191612613951746 13.429231756608223 18.556805094964755
Sr 22.96234029442918 14.980507935446642 22.400614268351926
Sr 21.91420458420493 19.29876528948005 21.684543035088968
Sr 19.85131718241059 22.430373267169976 10.605053059175432
Sr 20.737489922947105 15.745832018011624 15.689254140886174
Sr 22.026111753022025 16.000265352378516 11.534374601691004
Sr 19.88284466996284 19.01013722545131 13.025608979571146
Sr 21.014747780072845 11.641798233335365 16.548415043040368
Sr 20.107891548185755 18.495323324010826 8.85108109426834
Sr 17.70832195127588 22.018706056582 14.225512052676272
Sr 19.920248318912872 12.644974815730267 12.7903703614081
Sr 17.702271448852127 22.47735332849783 18.242619439352904
Sr 21.441937912667427 11.201504587454412 20.59075596640662
Sr 20.20684114379428 15.882688436836434 19.79766928451762
Sr 19.14324660181703 17.008094277483153 0.4202592813124595
Sr 17.16545917558838 17.752856203199126 17.213510637364173
Sr 18.83394983583286 13.099232452060381 22.916271324386777
Sr 17.704995333416335 12.60304384831725 18.77346513022195
Sr 16.65215792708473 19.95377855396337 10.270137874588821
Sr 17.835318373068844 19.543513949753045 20.901909518363087
Sr 17.595185881299113 16.004882697317793 11.42210182074976
Sr 15.316548402352561 18.741649217680852 13.755348345337124
Sr 16.347499647873693 15.749508702010854 21.127666313220388
Sr 14.056543239941965 22.125433085785343 20.75322138048191
Sr 14.809164877761347 18.711841040221017 0.11300399354949513
Sr 15.551824205068497 14.777780481737368 1.4840770775059815
Sr 15.896081616930049 12.056475604769508 11.66432513321994
Sr 14.198615555060757 22.570334333322247 12.143061570985592
Sr 17.19399534304453 10.18250351868705 15.215343724308203
Sr 16.744526482467016 14.205844521259678 15.005968898493004
Sr 14.698661807924248 12.104443620569894 21.735333997420824
Sr 13.712385141812977 18.490368202979273 19.49673492831764
Sr 14.037683640175635 21.587098562367288 16.38040012941285
Sr 12.603589351380757 19.030523822174874 10.768828241624709
Sr 13.274012627330391 15.297017965656398 12.748457905005864
Sr 14.37484631413955 10.031183662905034 18.29473015075247
Sr 13.823868398269767 14.61514342340001 17.952809898406535
Sr 11.90944659039666 17.868830544935705 15.70131599088177
Sr 12.411855393900229 15.487497642555732 22.13669635835857
Sr 13.220965327654824 11.77994032360227 14.91106438674155
Sr 10.898270408888942 19.489831167900775 22.214286363458065
Sr 10.524757643487888 21.05769407911634 13.79212149058171
Sr 10.446176368105935 20.795732783460817 18.239725549255564
Sr 10.950620364435741 12.3142570290238 19.361861078670373
Sr 9.412571632358626 17.141638560529945 12.438332541954855
Sr 9.997624483513293 16.656674490954757 19.137440356369975
Sr 9.946840448022359 14.370650606725855 15.651436698524652
Sr 7.85784364080806 18.255606489405103 15.980383936551084
