54
Energy = -66.38307054 eV
Sr 20.773901335570525 20.351890804767333 9.925381547388822
Sr 16.617710480288142 20.814449206506055 9.467227249086223
Sr 18.402950568844396 22.755700380705655 12.821222220254537
Sr 22.02904768523332 20.66393630596089 14.063421154611381
Sr 17.88405248404048 17.13988251704572 8.99798232151624
Sr 20.541545968363174 0.8483949353731752 16.167792136754173
Sr 22.09538851234335 16.90132877042702 12.257116436163102
Sr 13.9263519572462 21.41307698445306 12.338741090075056
Sr 16.127663989695083 0.34100713338615646 16.15980715669914
Sr 18.505104117466068 18.88920974799329 12.785814734966294
Sr 13.257903212153629 18.096896658015794 8.961373654443312
Sr 22.498079949955006 20.876827460023016 18.243716718816522
Sr 18.85774260951975 20.686775286305252 16.491311314734375
Sr 20.147209302865985 16.919601230588 15.918923254030652
Sr 0.7906580052941347 17.605948263745105 16.224400921003934
Sr 18.40462076426273 14.890557678774485 12.259943827393107
Sr 18.900496372769837 22.73095770409047 19.776826396360548
Sr 12.054272274253853 22.005871797634253 16.13394150873152
Sr 14.678645707031839 21.66357893577829 19.522561830437464
Sr 15.02167579991255 13.94848340243545 9.617157650946186
Sr 11.722216778563068 18.14083862729188 14.135354406213843
Sr 15.23010729578485 19.793821534606405 15.566257709986523
Sr 21.885156406615536 21.02323029532672 22.33463461933044
Sr 11.775654280160241 14.730850583390268 11.965642840475333
Sr 15.0851084584338 17.186484836184018 12.111080014114236
Sr 0.5662299985899397 17.371611436580192 20.718985773075918
Sr 16.0611898177223 15.907568503771621 15.856431562969203
Sr 17.71297054098773 20.084250207684434 22.695784764353956
Sr 20.99715058501653 17.45704049282473 0.7175441209035905
Sr 12.4328196963188 18.156320284388084 18.165347724842665
Sr 16.613660808820633 18.321594456130306 19.10654532564689
Sr 15.047763475244485 12.871734392115991 13.606691286675533
Sr 12.173655114769971 14.10169958229621 16.624323343755645
Sr 20.281490039638683 17.989107479642005 20.113010597509483
Sr 19.122404742563738 12.616217956904642 15.378996493635224
Sr 22.35950520925995 14.209658173977655 18.045960156152102
Sr 18.44886787462041 14.511653241332814 18.90813882009693
Sr 13.781683673553237 18.167297726566503 22.137921044728404
Sr 17.377248283233925 15.956666233299686 22.61879982029029
Sr 12.490599499018902 10.512454654840587 11.901720578660823
Sr 9.374051502279496 12.356001292314431 14.24610866193845
Sr 15.710056289575283 11.960342178627172 17.492532718321122
Sr 8.742785696592856 15.97732695173547 16.582243062088605
Sr 14.57516411734051 14.9820835792985 19.832957567324456
Sr 16.28332141459349 9.136289975427065 14.790316909609192
Sr 20.917437205589913 13.807133039971502 21.917886674909667
Sr 19.487437697665726 10.600468591485935 18.90298844448024
Sr 13.527405773659435 14.054037336482013 0.1397229700544443
Sr 12.35183080231031 10.02163319727894 16.15348721972774
Sr 10.628434708129937 15.118866999729283 20.500071911002088
Sr 8.98298981480707 11.97899734455478 18.24998905925276
Sr 16.701650871135513 11.895628719593095 21.5717373729926
Sr 15.53003494227855 8.41006743243279 19.02139182878723
Sr 12.673234065770114 11.424382281124128 20.18522503045061
