54
Energy = -66.46868441 eV
Sr 16.280242485686408 19.092665482353624 0.6928792975398117
Sr 13.82980423524535 15.152985625900644 0.18974807538732852
Sr 17.716162189673827 15.259146981137762 22.441993133517766
Sr 20.373135736353362 18.231125020270834 21.53539905696929
Sr 16.40068951333731 11.611279008372769 0.2519000497351411
Sr 18.914679610968165 22.111615867173963 21.04118443298027
Sr 22.884885706172167 21.091070067776375 19.497694744934257
Sr 12.515522509552067 18.552769225229053 21.373641435071185
Sr 10.946448925238698 14.403938267470817 20.188263879651064
Sr 12.267613275446614 11.274278446973295 22.60990352209249
Sr 21.39329668265742 14.003337458447678 20.876939048993055
Sr 14.79238813961762 22.499781994445478 21.233396860328327
Sr 16.247716624338146 18.846357912492213 19.91886676912711
Sr 14.764791138149782 13.00930195202511 19.884730973657703
Sr 20.452730140820723 0.45824328678940573 17.054436519698843
Sr 22.692579492313705 17.104335027855587 18.137330301160024
Sr 9.778533569835789 17.916765625975906 18.17437660407019
Sr 18.2478040371924 11.484821073804287 18.964031579352437
Sr 19.55031593222167 19.749039986126277 17.861386524798842
Sr 17.431656305235176 2.779742536763847 19.35449950895531
Sr -0.4803630106171632 20.366631656763627 15.220670577505732
Sr 11.912220199116357 10.4458480058913 18.441870125797024
Sr 15.029166309697606 8.73758516045186 20.748950356007196
Sr 13.631801591197354 16.36320324293869 17.814822959365316
Sr 10.739652917851796 14.292339775462118 15.923136897381724
Sr 12.865641435188428 20.783018498441656 17.93848630947204
Sr 18.645509563356335 15.835545727714972 18.673488266176705
Sr 15.5371910979155 8.182256003151098 16.792392623444766
Sr 16.560097683603274 22.380158498628884 17.6088388051633
Sr 13.757811966624661 2.0467282346026963 17.696770787936135
Sr 21.22464849010103 13.52433138720382 16.51645961692915
Sr 21.312769243201615 0.5841827920323573 12.811268045617055
Sr 17.24707708402404 14.565753153913132 15.51814861464549
Sr 20.05468096049683 17.233093170269996 14.990836116741956
Sr 0.6245955033681725 16.28012209684482 13.984352182874126
Sr 18.30373840793887 10.753044476847355 14.722133987636726
Sr 11.614253732028816 18.83230858954085 14.575032272912019
Sr 14.110426932165607 22.513521631738232 14.373411595873666
Sr 14.311875672958825 12.018849002915562 15.695587872571108
Sr 17.36443038497726 2.2158975723025036 14.959751041972913
Sr 15.851100533214526 18.770779399947287 15.564371215921286
Sr 15.037513319084098 9.238228857996019 12.548910713197147
Sr 18.44156591356096 21.15749646595746 13.917557258489358
Sr 20.317616417461316 14.052153379581505 12.415052001547595
Sr 21.18251163147893 18.761454895187466 11.468128397327519
Sr 16.220909759970812 12.987110843041057 11.980354082138781
Sr 13.861688659709754 15.76736752176361 13.641216245303006
Sr 18.690018117963497 10.451957073934182 10.404142186127814
Sr 14.49451954852488 19.521816804834792 11.567789833944655
Sr 12.170600149620357 12.405904389612722 12.041075319782612
Sr 17.43175230204742 16.90562088128313 12.009565177824012
Sr 14.885241852706631 11.42932098176087 8.703753328992107
Sr 18.132795615099383 14.380894545858132 8.73648836766648
Sr 14.155839280234217 15.597630589326307 9.632903984605475
