51
Energy = -60.64992163 eV
Sr 12.953041689468336 15.468080377419431 10.300667180753859
Sr 15.111968699366699 18.44502818753712 8.455418856463691
Sr 17.085125960542747 15.023515930198338 9.925204955368812
Sr 12.046032385037385 19.250249964074918 11.396616203256752
Sr 13.158920853861943 16.37148222314137 14.555075119312486
Sr 15.09338036600645 13.235170704511763 12.843839434828125
Sr 15.590455904609092 21.677865924400002 11.033998511559773
Sr 15.92475534940165 17.998356389265794 12.416080561733088
Sr 10.031117626229282 18.56293835227763 15.831563120229436
Sr 18.983804653133152 19.055484389957396 10.048810585487374
Sr 13.489825423740035 20.734228169254276 14.75153614097464
Sr 19.007063544892517 11.91396227391186 12.430665631348397
Sr 16.161343963385146 12.587575729779488 16.61954835104235
Sr 20.188611770122044 10.634691489705435 16.307556600433987
Sr 16.085270043239465 16.642762671383686 17.223714893679457
Sr 20.978975479251293 15.386678586734309 10.777940649248293
Sr 10.831893443514893 22.215568806300173 17.847157240509446
Sr 12.198694900624302 15.21694293042715 18.393492278376822
Sr 17.418388552175262 20.461786530760143 15.721062312602383
Sr 15.670591020477142 24.209269603928377 14.257885708068915
Sr 18.338054688706055 15.326358541288387 14.189334399222837
Sr 19.375184284050544 22.323992875528685 12.8911602161769
Sr 9.647306573316836 18.62091021310147 20.011817748918098
Sr 21.06477670906317 18.377930815080187 13.654979764837348
Sr 13.144681488193726 19.024840768842395 18.348908157962114
Sr 22.04638501088077 14.05484466728891 14.50035298706297
Sr 15.135442968744844 22.711854525452758 18.26965351600822
Sr 19.913838871693613 17.80391858522438 17.608982340607575
Sr 12.649348670604773 21.26987978256105 21.573970006035193
Sr 18.85772956381291 24.27081311082697 16.72834551589071
Sr 21.852151765002613 21.250899061312946 16.44537713275148
Sr 12.924092385518685 17.126310353278214 22.06407459581077
Sr 19.81580977415935 14.012046439398981 18.2172988414948
Sr 15.853532101387238 14.274118961917146 20.49148898981671
Sr 16.370446336194547 18.73185539156995 20.822132394290474
Sr 23.726197983565932 16.97588783987106 16.840538133305017
Sr 17.655156149554134 10.592395689342531 19.83546920086625
Sr 16.487031771200883 22.772611622960493 22.226805570465498
Sr 23.9870875320399 12.519754410749734 17.542028717287984
Sr 19.13656724348827 21.352048109949052 19.541520995506744
Sr 22.61329684418368 19.233015949080045 20.253797402837794
Sr 15.0534341180097 19.861891452540455 0.4306702604743643
Sr 16.364953114178817 16.081850556001474 24.07243495084404
Sr 19.926386445287314 16.065525309760805 21.755912299452515
Sr 21.5524959133961 11.396451747545148 20.691724819928783
Sr 19.279814741983962 19.639620867936745 23.56678885878431
Sr 18.493506059715365 12.586454955428515 23.441203816150093
Sr 23.705533339603516 15.167149540414677 20.60508865170748
Sr 23.076257504113567 17.55890254495188 24.02478129461253
Sr 19.830393465208473 15.952394919847135 1.7097794746546913
Sr 22.495236388258082 13.442179932855154 24.200147902392462
