51
Energy = -61.32394299 eV
Sr 0.7076204914740137 17.90375641387668 12.241329325334993
Sr 0.9669791459925783 17.78361931941599 16.334161186325737
Sr 0.3367876629170854 21.75050574587032 14.449717755027477
Sr -0.02005251185179742 13.343286180743375 17.228555295513466
Sr 20.902935571810005 15.305572155938142 14.415421997180689
Sr 20.867680892033242 11.209843341177725 14.080907855379587
Sr 21.22254079430045 20.717945062099545 10.881016158575855
Sr 21.572299503816676 20.651847548965723 18.31170916788768
Sr 20.437124945556395 15.833817449381973 10.459336666816721
Sr 20.62936786454293 19.170655479599723 14.55481137523617
Sr 20.705739558873272 16.55514605764583 18.24157638076104
Sr 21.135830253882908 9.707790244861672 17.93935656565977
Sr 20.517007145095718 13.20253284644872 20.90953337767833
Sr 19.317337124442282 22.82507598214227 15.73223674963218
Sr 17.303154887370518 13.330643501703667 13.122074945315346
Sr 17.430495831623254 21.392925011484955 12.338380095457039
Sr 17.119465467515585 15.649541425193705 20.15614215211343
Sr 18.92769905584212 12.993843035883387 17.232930893528177
Sr 17.561496299423844 17.38984498874621 12.631337373826465
Sr 19.5079050090743 18.563657126330646 21.609166340124794
Sr 18.228239011902957 18.913186694949424 8.699725489348893
Sr 17.00423981285386 9.90740130227182 15.873663653180113
Sr 17.7152844991448 19.236484099009896 17.502566285374403
Sr 16.16662817699068 15.251268529471297 9.419142388360422
Sr 17.71624100100768 10.05307552399898 20.094728989746372
Sr 15.860528577134268 15.733755737311418 16.201048051561948
Sr 17.80433525177216 22.358563809639396 19.90239094879333
Sr 13.794380928453897 15.761332855614297 12.63185751162445
Sr 14.470234585332912 19.015361611697255 10.24269737563778
Sr 15.584342731310388 19.36087286175703 21.619391446567512
Sr 14.810209007630803 12.46210709932064 18.731497635398018
Sr 15.818035926979375 12.562082027200242 22.77024085293239
Sr 15.112057373424173 22.497045349558842 16.70395665941854
Sr 13.309008172142544 12.294176886669248 10.888291242020317
Sr 13.30535058721253 12.585114693994193 15.065201593174606
Sr 14.482128868971545 19.347331596916007 14.359647574759276
Sr 16.030496745971906 16.39992144735522 1.0481801080046633
Sr 13.903360850753531 18.735178729144216 18.325951082678916
Sr 13.227946428176809 15.463062299068387 21.00643987170601
Sr 11.80740425287244 15.886005736534404 9.289427124458728
Sr 11.688069347800704 16.623673468617977 15.901247797493289
Sr 12.589256712869716 21.83927258266902 20.259164131963942
Sr 10.624775659039544 13.665112562270316 18.246910694191374
Sr 10.858574057243453 18.58354206712767 12.447002806345893
Sr 11.920931682062026 11.620234416740592 21.672148319195326
Sr 10.1020102969412 14.29639926686588 12.986863619867124
Sr 11.145405507068938 20.903624566371548 16.30245733907725
Sr 12.491465906270346 14.270010944289044 1.7748723016764387
Sr 11.945554685432 18.354184634131745 0.22108765088241533
Sr 10.157840285021834 18.151173775162388 19.508244245845706
Sr 9.412805729919581 14.995932164768975 22.1619117859216
