55
Energy = -69.10024225 eV
Sr 12.303672654842654 12.303672654842654 12.303672654842654
Sr 12.303672654842654 14.448435967870967 15.771430577875858
Sr 12.303672654842654 14.448435967870967 8.83591473180945
Sr 12.303672654842654 10.158909341814514 15.771430577875858
Sr 12.303672654842654 10.158909341814514 8.83591473180945
Sr 14.448435967870967 15.771430577875858 12.303672654842654
Sr 10.158909341814514 15.771430577875858 12.303672654842654
Sr 14.448435967870967 8.83591473180945 12.303672654842654
Sr 10.158909341814514 8.83591473180945 12.303672654842654
Sr 15.771430577875858 12.303672654842654 14.448435967870967
Sr 15.771430577875858 12.303672654842654 10.158909341814514
Sr 8.83591473180945 12.303672654842654 14.448435967870967
Sr 8.83591473180945 12.303672654842654 10.158909341814514
Sr 5.39136529392963 12.303672654842654 8.031517482581863
Sr 12.303672654842654 16.575826610482462 19.215980015755854
Sr 12.303672654842654 16.575826610482462 5.39136529392963
Sr 12.303672654842654 8.031517482581863 19.215980015755854
Sr 12.303672654842654 8.031517482581863 5.39136529392963
Sr 16.575826610482462 19.215980015755854 12.303672654842654
Sr 8.031517482581863 19.215980015755854 12.303672654842654
Sr 16.575826610482462 5.39136529392963 12.303672654842654
Sr 8.031517482581863 5.39136529392963 12.303672654842654
Sr 19.215980015755854 12.303672654842654 16.575826610482462
Sr 19.215980015755854 12.303672654842654 8.031517482581863
Sr 5.39136529392963 12.303672654842654 16.575826610482462
Sr 12.303672654842654 19.24506960059669 12.303672654842654
Sr 12.303672654842654 5.362274492467811 12.303672654842654
Sr 5.362274492467811 12.303672654842654 12.303672654842654
Sr 19.24506960059669 12.303672654842654 12.303672654842654
Sr 12.303672654842654 12.303672654842654 5.362274492467811
Sr 12.303672654842654 12.303672654842654 19.24506960059669
Sr 14.450481775380505 6.686491291359075 15.77435550359854
Sr 10.15686231768382 6.686491291359075 15.77435550359854
Sr 14.450481775380505 6.686491291359075 8.832989806086943
Sr 10.15686231768382 6.686491291359075 8.832989806086943
Sr 17.92085401832641 8.832989806086943 10.15686231768382
Sr 17.92085401832641 8.832989806086943 14.450481775380505
Sr 6.686491291359075 8.832989806086943 10.15686231768382
Sr 6.686491291359075 8.832989806086943 14.450481775380505
Sr 14.450481775380505 17.92085401832641 8.832989806086943
Sr 14.450481775380505 17.92085401832641 15.77435550359854
Sr 10.15686231768382 17.92085401832641 8.832989806086943
Sr 10.15686231768382 17.92085401832641 15.77435550359854
Sr 8.832989806086943 14.450481775380505 6.686491291359075
Sr 15.77435550359854 14.450481775380505 6.686491291359075
Sr 8.832989806086943 10.15686231768382 6.686491291359075
Sr 15.77435550359854 10.15686231768382 6.686491291359075
Sr 6.686491291359075 15.77435550359854 14.450481775380505
Sr 6.686491291359075 15.77435550359854 10.15686231768382
Sr 8.832989806086943 10.15686231768382 17.92085401832641
Sr 15.77435550359854 10.15686231768382 17.92085401832641
Sr 15.77435550359854 14.450481775380505 17.92085401832641
Sr 8.832989806086943 14.450481775380505 17.92085401832641
Sr 17.92085401832641 15.77435550359854 10.15686231768382
Sr 17.92085401832641 15.77435550359854 14.450481775380505
