53
Energy = -64.67419749 eV
Sr 14.326158694340213 11.043190912047367 11.973986750020922
Sr 12.505456754134698 13.814739708636202 9.383520975721035
Sr 10.663344732477286 13.212035514470688 13.30251332660147
Sr 16.63045717866293 13.85871094418141 9.815256843673314
Sr 17.189768874217233 10.037892317980244 16.619454701060622
Sr 17.522955873588753 12.985890279085702 13.794888668730696
Sr 13.746017021561345 12.047750998946263 15.96726601642882
Sr 20.512510937323178 14.199499385935775 11.488320454100371
Sr 20.752637532218202 12.45652130233834 16.544857890869164
Sr 17.98814995204198 11.973433912957727 20.091167984884972
Sr 14.114885235082461 14.958038998336223 12.874134472334264
Sr 14.714050324544058 17.62291030089284 9.73644061393681
Sr 10.797096937185426 16.98797087671199 11.405728930671529
Sr 14.20976844183392 10.07685971470956 19.634243845721873
Sr 8.626853561967149 16.492439657713597 15.1709006279344
Sr 18.916060188682394 17.146420161168166 8.752925768173965
Sr 9.95447346356462 12.718892064293213 17.51951834822177
Sr 20.13825381085833 16.24292340705612 15.451693935822767
Sr 21.53973776532308 18.125056394860206 11.967664811835267
Sr 17.471255762708083 17.127535102041765 12.63104935002282
Sr 20.477935441689816 15.203058241736374 19.63913401054075
Sr 16.637804125982885 14.663548712328792 17.269319931984988
Sr 22.225320698203404 11.794625869836683 20.514063021430765
Sr 12.249248759371042 15.890524899766497 16.359747134243765
Sr 0.7578647098808771 14.921663409093647 14.055796446537647
Sr 13.23633152795078 13.957595262213083 19.817560223403806
Sr 1.1610578321808505 14.989236132108065 18.123481889526044
Sr 17.612073957871765 20.62310503558628 10.8085248055079
Sr 9.27214700879748 20.29309764709691 13.069124973878306
Sr 9.80840745599722 16.32466353342699 19.5980180765389
Sr 15.330031243892991 12.770558310236726 0.35415022489804804
Sr 0.3456482567952742 18.56273949928558 15.96809445162657
Sr 13.226476762291075 19.07733533213192 14.000753064080921
Sr 19.610335525436593 20.40370723955717 14.713464163686497
Sr 16.35462940949219 18.69436345707334 16.72453067698665
Sr 13.119430235015159 21.41755116658002 10.893213766952845
Sr 19.575578290129318 13.883680531312102 0.45574713319244636
Sr 0.5599500558033721 15.257752817170903 22.379607116612426
Sr 12.943168800518976 16.31702828143618 0.17213692505310113
Sr 16.726513735148202 15.922394055798595 21.14500737044811
Sr 19.918569805073844 19.058274577488586 18.628145271301893
Sr 10.52885843573864 19.713881457193295 17.003509513942863
Sr 0.6185745440657504 18.8159092619935 20.147785026645828
Sr 11.857878191858156 0.0024045091753539033 14.676708054251042
Sr 15.828863028563754 22.144433493533814 14.275994055769884
Sr 22.268169608743694 22.249170979823162 17.690901936623735
Sr 18.069790233361992 22.51040671342117 17.956113322670415
Sr 13.427085217958457 18.080066439734725 19.512137739277623
Sr 16.7671816848004 16.748921230148987 2.0185451420750713
Sr 20.176917654388696 17.922702973968565 22.668097940973443
Sr 13.9809360445404 21.887904437997964 18.02816611653452
Sr 16.76255476150478 20.01622145176283 21.146687386099774
Sr 20.595804218401085 21.891891771033404 21.412303841628997
