52
Energy = -63.59393846 eV
Sr 0.12847521356293715 15.942733023004173 13.724155312378626
Sr 20.830866383177046 13.99488353719959 10.217842171542031
Sr 21.15201856752791 12.351559590754214 14.2221704068533
Sr 21.20141691427646 18.67494701433168 11.360481813137138
Sr 17.80877827728204 17.08746141280514 9.227531657593778
Sr 0.04013634560527713 19.130913862720995 18.550461982823485
Sr 22.45008473008348 14.999328267919717 17.804798885206193
Sr 18.475588960153786 10.454521536817749 11.798151498739491
Sr 21.588216101175355 10.746932084134123 18.087272472991447
Sr 20.30655553842566 18.44793274494232 15.6115931813684
Sr 22.317152945708088 16.94700947782405 22.035830230242357
Sr 18.869474404705603 15.642245704376602 13.070506711807287
Sr 16.243730520250207 13.309076763451966 10.172735584951308
Sr 18.16453160968104 9.783571209381137 15.716332862531932
Sr 19.29839928613953 20.111192160603277 22.113317863259727
Sr 13.502402908868598 16.108881614943133 8.416117927350491
Sr 17.545559403420313 19.453727654169146 12.6675697589159
Sr 14.563358446908387 19.99605225083603 9.860795966965487
Sr 19.888692492359528 21.77077095745652 18.400734718246298
Sr 14.914636104381472 16.595728005045775 11.996252577447393
Sr 19.306342622808145 17.202698892112245 19.39293064061895
Sr 18.714822342792115 13.522792739663837 17.240225776851837
Sr 20.40031177240043 13.358806817785943 21.18476863231616
Sr 20.02553936130805 22.32308899273706 14.16127196882611
Sr 15.874319407311015 13.325549588468474 14.178177004932623
Sr 17.84090978299929 10.321844003982612 20.017888426681672
Sr 17.04773669706583 12.089473151030747 0.8072002699043704
Sr 14.377412734942942 9.930654389012698 13.34458781979554
Sr 14.897807946192756 11.574014054423683 17.486561924832255
Sr 15.994261290045701 0.2517349141545316 12.969425283664291
Sr 16.558214065463257 14.121695483509122 20.470089267582193
Sr 16.756608298128814 20.886325921962676 16.28022864801077
Sr 16.294812591634116 16.867056291931345 16.366044535733288
Sr 17.31607427397198 1.7539141204750819 16.72545925210495
Sr 12.26373973462586 13.562207091154296 11.977975803546562
Sr 11.074967225658861 17.85593158532217 11.517601182172488
Sr 13.668244995870417 11.368288351234408 21.31208154124777
Sr 18.28731216550243 16.16696995099083 0.44135474016748794
Sr 15.693423027130969 22.174540303715425 19.919820226963985
Sr 13.724045446888175 19.936363063362077 13.897241874283164
Sr 15.565805035807378 18.129451019347357 20.952010639831677
Sr 13.153946039017688 15.142266690219232 18.990246503636243
Sr 13.834242499120503 14.947541151646186 0.25474106021224374
Sr 11.162040994451731 12.65271326153178 16.343715721689982
Sr 13.169014952554136 19.19015687499332 17.91374379290594
Sr 13.30573307762069 0.1269282255174573 16.472667372653664
Sr 12.377137703466282 16.293521060849883 15.083902272291903
Sr 10.115385295091187 13.64997118297952 20.976181661596698
Sr 10.101232806923278 20.099649138300162 15.601283515258107
Sr 11.29509680512409 17.844433183439985 21.41547360913195
Sr 10.956836459176708 21.78242669169261 19.792250585717508
Sr 9.523205105505099 16.576258280741868 17.91810107858308
