53
Energy = -63.23392069 eV
Sr 1.1071687928228 16.6040333274007 13.13871617831109
Sr 1.508310726609073 20.22629924565466 14.92717881008328
Sr 1.2225355842030257 16.755651166557765 17.50645693803533
Sr 23.421097380850377 13.577008355757455 15.156338664768061
Sr 22.804888542739796 17.510490727944234 21.160508851801907
Sr 23.7029170969777 20.76756317344949 18.633248611821248
Sr 22.267395321235743 19.533528432479365 12.034601194852652
Sr 21.574636421133075 14.673739886512905 18.41241907540076
Sr 21.85939516459771 18.097987551284916 15.921041473459912
Sr 21.355647471386177 15.503944164513339 12.161445043738409
Sr 22.17506106757377 22.582557451164636 15.041452387045789
Sr 19.802318558121524 11.019371304942318 19.00329561253812
Sr 16.821550801808204 10.190749037635317 12.977178008864346
Sr 19.7163847783433 14.246378946163187 21.965960895489076
Sr 19.396265184773036 12.73279849753104 15.03882335619597
Sr 19.126813935262234 17.6040625801922 19.654877364749073
Sr 20.82747390593011 21.154749725402276 21.703067577711998
Sr 19.380968658820276 18.01420881675709 23.854148100160593
Sr 17.666891375368664 13.907810196472697 11.342489211793408
Sr 16.232042972347305 10.472745248345621 17.00854531419695
Sr 19.6967538245741 21.195807717853093 17.872265273587008
Sr 18.852783194486168 20.603744603426975 13.954478655028733
Sr 16.163844642961223 11.944567508165775 21.139936053794184
Sr 18.369521315349697 18.070292583683006 10.644656203262329
Sr 17.465909808611137 14.217485280642498 18.15892363183094
Sr 18.128374523231013 16.656000421111447 14.656331037818056
Sr 17.800491558650748 22.120914847615133 0.3625172030246288
Sr 16.038024144556086 15.579539841515048 23.206162447296098
Sr 12.834070583288595 10.519024296685583 14.342585503403985
Sr 14.056164343309032 12.06163159112814 10.592081130995105
Sr 16.199739188125086 19.563110384238225 21.545864467475226
Sr 15.097412335109404 13.750442236179312 14.507491832333715
Sr 17.363216412423366 23.390078960318906 20.451975245143075
Sr 15.424256161539063 18.998946986659675 1.5174898706670514
Sr 14.43189839947405 16.14461913003184 19.704129349304008
Sr 13.196775771217409 12.633060510489374 18.381417323657328
Sr 15.24722779272674 19.228273278470137 13.122559382426012
Sr 16.05976623243023 19.424001759517232 17.220741405913014
Sr 16.74446646235476 23.413574645047337 16.05234576315077
Sr 12.354930562681242 13.65357214305053 22.32268601935236
Sr 14.36722413371115 16.135018957949157 10.851489396663064
Sr 9.876038142407506 12.809182483080441 16.21278311391383
Sr 11.16159266740924 14.226018281846198 12.590238118253408
Sr 12.46900726529522 17.762450334155503 22.907809902711673
Sr 12.650226130956574 16.9402864278052 15.831099650189168
Sr 13.648351058916129 22.060379083587144 22.929643809338405
Sr 12.391507980190784 19.533057551435537 19.299213801202136
Sr 13.673461067269168 23.1359097236962 18.844424578733893
Sr 10.32939357570864 15.830041869385173 19.096781784077113
Sr 12.890923037781214 21.35536423202802 15.34836371933479
Sr 11.097881746360612 18.533172804988425 12.498350870378363
Sr 8.335305942439408 16.22131855760696 14.851702066734612
Sr 9.405558834101063 19.701330286250272 16.535463308564612
