5
Energy = -3.17965096 eV
Sr 7.175018041185767 7.91652163575965 6.9119154328561985
Sr 7.854033722228609 10.082642600523727 10.257224523579827
Sr 10.81327034574278 7.8355411560647825 8.667725630719541
Sr 9.598932396302578 11.279110108826831 6.674811910162897
Sr 7.620312777919165 5.947752215446003 10.549889786060557
