55
Energy = -65.33238213 eV
Sr 15.59956056320494 16.112786197286347 15.420558502799434
Sr 8.777322441955318 9.724129815735918 13.943422629338592
Sr 15.49433648757758 9.67739872854354 19.10348116134817
Sr 8.642945679043683 15.995705724753112 17.643981313499413
Sr 15.751913871408865 13.948361190969026 11.72019902044516
Sr 15.475879713694303 13.953437348096417 19.02744677926682
Sr 15.600436413879432 20.278705594617247 15.399265733125667
Sr 15.756928296884738 18.26600883126922 11.725790981680717
Sr 18.91053022486608 20.25418657172235 17.98700101845788
Sr 15.614652543146263 11.78638957895585 15.42947543407976
Sr 15.78472287197324 9.629520548429172 11.743056182546965
Sr 11.97416335369275 15.96956362468788 20.08224875666527
Sr 8.652163644252786 11.878061809322348 17.648245206797423
Sr 19.197403664029874 16.00552048554777 10.65763057133634
Sr 8.586143550875244 13.939319034271584 21.286982410746244
Sr 15.634779508509467 7.616912849187537 15.418199734446109
Sr 19.205587469783033 11.898649082447948 10.664588580398853
Sr 18.967590184635725 11.8184698673176 18.014773324292257
Sr 12.059239848570073 13.945541076584718 16.492816181929626
Sr 8.840470439447971 16.066747439887987 10.230348348261854
Sr 18.94311932967437 7.662971627395813 18.002682137466607
Sr 12.044842537909062 18.240200504228255 16.548717142870643
Sr 8.845335722651512 11.808015707515764 10.237852556169916
Sr 15.465236125880688 18.22624132852107 19.08758608274926
Sr 12.055722779255488 9.641039600480777 16.560409673052
Sr 12.322930190141934 13.936001239689304 9.106522049909437
Sr 18.953967682526837 16.106463411699412 18.0073827402003
Sr 19.13685017334384 13.957698086658908 14.318338312168674
Sr 19.313656505344017 13.949430264290738 7.011420960272675
Sr 8.947441989672164 13.921687068371678 6.525209968702097
Sr 19.018558934673393 18.164834528607074 14.335200273447178
Sr 12.271774117704727 18.193191901956443 9.165226844800873
Sr 8.999455071917511 18.111791097483152 6.594769297033298
Sr 19.041972214881376 9.745479214556484 14.340431602427351
Sr 8.896938661183668 20.214771463752637 10.273407943043
Sr 9.031831407463983 9.741049418273969 6.605023036424802
Sr 12.202325694034446 16.086473499918224 12.788705970259127
Sr 12.307488833943825 9.693263065065173 9.174663616136286
Sr 12.442364163746795 16.003993086953486 5.472534016114758
Sr 12.206910638580625 20.251243013984798 12.81651238352599
Sr 8.928981288542744 7.645054837853869 10.298572914495171
Sr 12.457136940288729 11.858899302531697 5.480941267316185
Sr 12.205730985985022 11.79435468464797 12.796541970746526
Sr 15.88002115068827 15.998663445963839 8.019506947121606
Sr 15.923534926365573 13.941798179994196 4.474763422150973
Sr 12.24110001684037 7.626077807185944 12.843165322452432
Sr 15.886497722843638 11.891001723118142 8.025028789667193
Sr 18.860348306980097 13.968034092237001 21.69767037218139
Sr 8.662087890687502 13.933525888455238 13.935108918523511
Sr 11.984536553113914 11.932074977457148 20.10067719894829
Sr 18.782077242157918 18.159863068421565 21.661534191732944
Sr 8.758270155144974 18.14782859966509 13.91956956590681
Sr 15.315433572523103 16.00384503886567 22.72662125329998
Sr 18.8098317008286 9.76739730823571 21.66916115668439
Sr 15.325992773836628 11.907401289117931 22.736103003323485
