52
Energy = -62.50805023 eV
Sr 22.675311311042435 20.239192383292938 18.41846767174321
Sr 20.84080677155666 22.58765466578185 21.31618013814375
Sr 23.004910712051398 16.183875744812045 18.629171308128363
Sr 21.228604981005248 18.584294752353575 21.79915186069522
Sr 21.209669173533193 0.43150448429347543 17.37899679504163
Sr 23.013638230669883 21.25821435286017 14.689415465508242
Sr 21.968082664675347 14.7726167619125 22.661904197928997
Sr 17.489298973746585 23.48856051299083 19.250261415837343
Sr 18.51489674080135 19.690380912372117 19.189577099066668
Sr 20.039629323069192 17.70829543771939 15.921945898039823
Sr 17.459053772709254 20.39444157426031 22.831469348226015
Sr 20.558795459699443 0.5090186906305363 13.057903036164493
Sr 23.424256312998537 17.159568254890125 13.96552661069041
Sr 17.46746829379849 1.6550612164023148 15.528277915451724
Sr 21.84327350318013 12.034798980539849 19.591002029854316
Sr 20.191790549570367 19.838105906873675 12.010626615993315
Sr 18.06235747786025 16.48524300711517 23.423983074354204
Sr 18.863195004797404 21.530169807267434 15.558172088453983
Sr 14.513179207854074 21.007314453610036 20.22507847150742
Sr 18.566859354793575 12.680855182244516 22.074045313714134
Sr 16.595469100550034 18.682696162612377 13.369267763705405
Sr 21.121408991025245 13.755056402500925 15.71865745894549
Sr 19.182373833954774 15.375783244652151 19.32778391890652
Sr 16.607607614466723 22.4943776348005 12.257858037508141
Sr 19.449683006189357 15.740638013856458 12.390645686923904
Sr 15.715257957423457 18.215999551286966 16.955733450192163
Sr 17.168488976058967 14.793874461893475 15.829484443608969
Sr 17.021287504342745 17.64216688152425 9.48488136158888
Sr 15.602727288068683 16.858443903270324 20.39292465537059
Sr 15.928446827569955 9.813638125051908 21.69809229231361
Sr 18.172551478488476 11.107834075264032 17.803532716917903
Sr 13.334671543404232 18.199869277311713 23.159724770565038
Sr 14.929754551784804 21.92614297351547 16.264654276104366
Sr 18.08699764006342 11.847228308232985 13.176989649979484
Sr 17.36262510506618 13.5465110649674 9.395918425760973
Sr 14.965886020252508 13.016931462633336 19.05111266510917
Sr 14.669258357517284 13.927582912965558 23.03132832230835
Sr 13.382628966996991 19.005046939304837 10.631928526479575
Sr 11.897284974730074 18.691039231542483 18.529739446127703
Sr 14.905572194569942 15.178549826095574 12.489068426053363
Sr 12.54471798730129 19.083752350386998 14.593632056503397
Sr 13.080173187732065 15.318477161107875 16.154927626165954
Sr 12.01614573802504 11.090061795606285 21.281203525125573
Sr 11.720707613813644 15.138785631639228 20.177857472618857
Sr 14.63757514524618 11.601992549507353 15.131442485406701
Sr 14.039289077133033 9.026969961145323 18.197191176258386
Sr 13.122496569039926 14.866329391138835 9.186530320535388
Sr 14.399280647252859 11.166026153749572 10.99063686554966
Sr 10.459674268989298 16.58256993495741 12.246127390808045
Sr 11.0604325211747 12.041808652571788 17.2847879395147
Sr 9.309947841482185 16.07855410920787 16.33116175889007
Sr 11.24622259518582 12.820406283544525 13.18680550466525
