52
Energy = -62.62531296 eV
Sr 19.636684816758855 16.639904721120583 1.0878509400441374
Sr 18.45350256452829 17.95976486466026 10.825935910556279
Sr 10.396319723087206 16.703864789529305 20.97982704588686
Sr 10.104643432327094 21.599291171195418 15.684362080547276
Sr 0.1767242632688251 17.920815892195268 19.22637463835048
Sr 13.699193232601706 14.10577065388094 19.00767020069087
Sr 15.631655725448805 14.93218301712824 11.073649153480961
Sr 9.391615519385791 13.52511381282707 13.429335163856834
Sr 9.62066080896257 17.72580791078026 14.272932068681724
Sr 19.55297414511627 9.962109449191294 19.060459563259776
Sr 16.488139090159404 17.06855768897052 17.843948974383977
Sr 19.967006758845645 20.109297195617476 18.578565308880783
Sr 19.115338416281556 23.228358496295826 20.814436505078103
Sr 13.215215182500206 11.890440473973404 12.189193849121914
Sr 0.9976428545502581 19.81251278171324 15.783825844193766
Sr 16.573470033535116 21.64582340614883 12.003276323840444
Sr 21.676271837950793 18.36530307084605 13.268136376960193
Sr 17.709609702064675 19.413307556362536 22.119457667758653
Sr 14.670440663989005 18.759095029910473 9.255423764013452
Sr 16.39916709312139 11.09005394125498 21.917301366610037
Sr 22.43483297559315 13.641102006528707 19.04558484291498
Sr 18.038658030031357 23.468938758158604 16.601583507189805
Sr 15.893226769974994 20.99359519491562 18.940722003703463
Sr 18.10928517864118 19.670785935368837 15.11599470266047
Sr 21.355503044574814 22.139438646374973 14.710610753452706
Sr 11.985442434769109 20.55561434198893 12.019063065043781
Sr 16.509523953946953 15.245984132605606 22.07629138510979
Sr 11.719876411799307 16.206098138320563 11.015259079860513
Sr 23.024240458399376 22.465085877595598 18.834866695271636
Sr 23.307548589896026 15.74546638042952 22.84274332966953
Sr 14.868640715996012 18.11008207031936 13.272544301776628
Sr 11.569023853462536 21.28937314095193 19.667976877703122
Sr 14.214935320376776 21.55268227065621 15.463432641083116
Sr 15.440255267715466 10.034994810915219 18.195358426891158
Sr 18.21562943964729 15.66816796069244 14.003899254702203
Sr 9.715525458193566 14.889969260757 17.371553209189585
Sr 15.91071338137293 12.733525185585693 15.305179049281056
Sr 20.033441855160156 12.926200501805953 22.384349402768134
Sr 20.414738793257325 12.564000216216908 15.498609044410802
Sr 18.055284120214715 13.455697614822679 18.762393839508796
Sr 12.813730777096893 15.10851176579337 14.710795793357011
Sr 20.66767628307287 16.607106640993987 16.81887121660119
Sr 12.330836399091769 18.247080494397867 17.341391637160516
Sr 0.5501396798335787 15.524791214731778 15.292540584061292
Sr 17.942478541093305 9.130722462912916 15.135038471062533
Sr 21.329753749254227 14.596089796380165 11.807950790677157
Sr 11.991489084656758 11.437869915847326 16.124699643576697
Sr 13.97689661394665 18.204722351905886 21.08438582466236
Sr 8.340785400277268 18.82343224979253 18.157584756133396
Sr 21.75748476733419 19.931907077998886 22.31658420629624
Sr 20.087529423016683 16.561883738004646 20.707495502129614
Sr 18.12408409477206 11.916394407297009 12.040235387420935
