52
Energy = -63.30940232 eV
Sr 1.1100771619143857 19.42406295408025 15.872202411338188
Sr -0.2386841451124607 15.34608324772773 16.124942452076734
Sr 22.203240143800606 18.31816140793974 19.096549393192262
Sr -0.1369479591234311 17.42371236508937 12.290847079415212
Sr 23.057262787719267 14.532095038887622 20.411016852441218
Sr 21.16748192689342 21.83664837497813 17.45713961828648
Sr 22.29797059482068 21.63570192480146 13.254918167342888
Sr 19.65185163269538 20.905821768244504 21.45316292289301
Sr 22.40169195452778 12.458963405754945 13.173437090995023
Sr 21.727224262188404 11.651525580339506 17.627112801590577
Sr 20.754750845204438 18.391146265688775 15.107682143132154
Sr 19.71024108961524 16.853886769504104 21.93809578686058
Sr 19.630076357215227 15.467380760281097 11.82671902574196
Sr 17.631946164129893 19.247255740825803 1.5885013898257696
Sr 19.373060139614775 12.675049813508013 21.558376712163216
Sr 19.287313037009515 19.452863697879767 11.312829289712521
Sr 17.984432135833814 18.910507365930762 18.09638474629341
Sr 17.04228163678099 22.75033332701821 18.807872050389026
Sr 19.710299600247666 15.146240666810744 18.153333286041946
Sr 19.80004448147506 9.219617644377317 14.798914249633572
Sr 16.026509210921656 22.526760702592735 22.951085770181198
Sr 18.242144567925433 21.708562772216418 14.648063494377848
Sr 18.944280414738753 13.10085915149308 14.91709819873546
Sr 17.58635196476257 11.101184068462695 18.201533062840483
Sr 16.744793787968078 15.119316975847294 0.6727232724289268
Sr 18.689278852804676 11.366740814433394 11.34014997415981
Sr 16.362830707981455 15.062467448856742 20.126357342006894
Sr 16.0103913733061 18.785930505987807 21.530859346023163
Sr 15.751656776198697 14.052148835111977 12.586935781815576
Sr 14.890573363419978 11.850199587476569 21.618350761839178
Sr 16.86567340803807 17.609336451291686 14.29885512196188
Sr 13.152695377232586 19.55793628123785 0.6183229435346422
Sr 14.537955833615895 20.9390007454308 15.97209760135843
Sr 15.192729955794508 20.660189214661457 11.863568758832631
Sr 13.483510326849226 10.45672411789974 17.797069481660703
Sr 13.231211126881444 21.222985257778024 20.039833849044054
Sr 15.80881938053175 17.093536168080803 10.112699090204892
Sr 15.770478365340727 10.496347814816795 14.373187185807398
Sr 13.711848898490217 17.5804016164609 18.120745145406893
Sr 13.180083245560855 15.78303156821154 22.453103109968218
Sr 15.33084579404544 14.109010550711536 16.547900309300925
Sr 12.001582478503604 13.986999243245133 19.076378486281552
Sr 12.743331335698604 17.386378746618245 13.78089134316377
Sr 10.473715221827124 17.99866560007862 20.48058821921185
Sr 12.57340914505355 14.40474846101391 10.26607221313739
Sr 11.536683215368384 21.82897312591856 13.176054981335758
Sr 10.627339246575195 20.227631025754672 16.87256433661247
Sr 11.503599184568614 18.626463979728992 10.247123455001738
Sr 12.01189524339727 13.079397666255723 14.53770267636414
Sr 9.748594996969961 16.293587198281056 16.470259808355795
Sr 9.272575549439093 15.421626497007402 12.330215337655869
Sr 8.559818458208875 19.155884019286948 13.527502584154625
