54
Energy = -65.89582109 eV
Sr 0.5177754622643217 21.873448698402967 15.505560360359086
Sr 0.21758788350115543 18.26225990531425 17.71614002485741
Sr 23.638616227626965 22.146026066371107 19.668358876969986
Sr 23.333315406866486 18.519553600521895 21.846037961295426
Sr 22.564103901009467 14.870770968119391 20.001942867959357
Sr 22.721927742882194 1.1500018043182896 16.66597675908041
Sr 21.715608531224465 19.107636179280988 14.265012826672923
Sr 21.702324293827584 15.257969075660766 15.884624994733176
Sr 21.032270052217424 11.62184988676362 17.615539028637063
Sr 21.446857892629048 23.11139964255908 13.102393144098286
Sr 20.974771347618326 21.881623744220125 16.905630042100356
Sr 20.506608110013353 11.918819384874414 12.764006742876964
Sr 20.642673440801513 18.245816515214784 18.70372774419691
Sr 19.59919806396769 12.36903829800536 21.859500711005992
Sr 19.7906388973232 0.35570402504596127 19.651925068413068
Sr 20.001699831942258 20.948154541996352 21.464636534701977
Sr 19.527576011711023 16.625029879251752 22.607170136783335
Sr 18.535668215826327 9.10685170954453 15.287893895304977
Sr 19.496753633411572 19.971919677251687 10.655444919368621
Sr 19.81241635902934 16.124855250451898 12.250906327274086
Sr 18.585510307263846 14.818001002398391 18.901624197462162
Sr 18.60735673816754 0.7255930873858571 15.699955124401136
Sr 18.015687241231156 17.441256702286314 15.676273369174188
Sr 17.208194773730757 10.856317835388765 18.7743490320722
Sr 17.999895684173246 13.306008950587799 15.288962749690416
Sr 17.7826523678555 20.240099647619356 0.6029364734550118
Sr 17.380377825775536 21.000045516108617 18.171270171814818
Sr 17.87183441737751 21.202053741585956 14.116903723255366
Sr 14.436474861446799 19.42244247605975 15.635634844944583
Sr 14.628571458097012 15.281912625967001 14.462347552779082
Sr 16.824027950210887 13.928576056252812 11.045713537108188
Sr 13.480367094934737 10.287264071290858 20.4607691789118
Sr 15.51414782713357 13.990238621642009 21.405506432089574
Sr 15.541868931468672 16.740712782175503 0.49530071176150225
Sr 16.40513520277846 18.695931488595093 21.318108910300158
Sr 15.494803033594632 10.958792679865743 13.293286139160088
Sr 14.016323059080737 12.377620588176873 17.008017307050537
Sr 16.30512500621062 22.90886659074503 21.57752848603857
Sr 14.031413265929784 21.783979838971792 12.469052445186733
Sr 14.334023299276415 8.469562788424547 16.562687164606334
Sr 11.43121701715583 13.96574406499999 19.566308205172003
Sr 15.9544362829652 17.98834885574297 11.8485557426581
Sr 14.717835659933243 23.455512644804095 16.44054803849734
Sr 13.74294642074389 20.540978887883973 23.849469758593262
Sr 14.781809571458554 16.441057837798102 18.303733574404024
Sr 12.595089862350756 13.826375284887641 11.483579756471036
Sr 12.545536821995785 17.252400699791274 21.695119483924326
Sr 10.456214988034835 10.4322134319419 17.661118882581853
Sr 11.613189108791179 10.432485348786757 13.813751345809331
Sr 13.30732510612684 20.691269392816945 19.412622346154606
Sr 10.72573685332767 14.177002353918779 15.369929566516507
Sr 11.084747164170803 21.471445219626947 15.577210543070818
Sr 11.699829818241529 17.86311278263118 13.175245731740285
Sr 11.04448654132825 17.669859713770908 17.499860687521995
