5
Energy = -2.86811777 eV
Sr 12.19916771297724 11.733299114922644 15.170473893092657
Sr 12.70997518664737 10.08441766758653 11.409619468123603
Sr 8.932655727520103 11.035272855149248 12.820008216100865
Sr 11.641563470916154 13.95248320067583 11.72697014877125
Sr 14.37275762367992 12.876727865834404 8.587776942714829
