6
Energy = -4.10350609 eV
Sr 14.58224464724471 12.725214074754883 12.499669489834888
Sr 13.183311042672484 10.94095186037993 16.027531026910754
Sr 12.957611593074688 11.246475237090284 8.934269023425829
Sr 10.866814337567584 11.376628624917931 12.558895278006222
Sr 11.669598228210685 14.876863543534874 10.54614668857188
Sr 11.787891499129477 14.684241325812087 14.825776326985768
