6
Energy = -3.808531 eV
Sr 13.073431386757557 9.98774353220558 7.648998806554157
Sr 13.494719470398497 13.215761453162624 13.910198757336525
Sr 13.508708681936692 9.47543794842133 11.939972285496646
Sr 9.823322595915943 15.13002186557314 13.42256325268928
Sr 11.381499494626564 12.618525362736062 10.491356941555138
Sr 10.15552017051339 11.007039134047211 14.021632830776419
