7
Energy = -4.80568405 eV
Sr 15.774416828859378 9.573396577708392 10.505479187353357
Sr 13.404080322070797 10.89050877655271 13.596256435031634
Sr 12.384442379264238 14.629680324069657 14.670909700761067
Sr 9.435739075368726 11.485578753227943 13.733675412416376
Sr 10.721431887847299 14.144233862899211 11.13834225734754
Sr 14.734122717563066 13.527323582893901 11.015368095085284
Sr 11.76859569941226 10.378445474070181 10.065456621506039
