7
Energy = -5.51748684 eV
Sr 8.149187704658905 10.631065850013337 8.332149242123984
Sr 6.7327172618142805 6.949714104246435 7.196078055562119
Sr 6.183972502134321 8.383850686887193 11.149914687523747
Sr 9.920117292535275 7.437714223217789 9.73629742603749
Sr 12.21759126932807 10.723699580309436 8.862955496713504
Sr 10.461300858533546 8.396761622342124 5.781255491100298
Sr 9.574362610995731 10.716443649604601 12.180598234455166
