7
Energy = -5.52386523 eV
Sr 15.372201920419108 12.333287651706591 10.334132274887342
Sr 12.453087107369466 15.408736617375201 10.363226208574561
Sr 13.750746979207653 8.983942400570323 12.362202904165514
Sr 11.359335265142375 11.45153610367023 10.107193717287196
Sr 12.812984701050201 12.811660677741445 13.523830869630487
Sr 9.832080904198548 9.973628418555515 13.632833727819309
Sr 9.026457209453623 13.947408539336758 12.393904595874593
