7
Energy = -5.52009834 eV
Sr 12.464991432984093 13.84903455563533 13.544795453792863
Sr 13.851712658525662 10.198301868558667 14.785001372705144
Sr 9.289463613844918 13.576680204166738 10.971802993629627
Sr 12.33620069064241 10.842328165672656 11.030473632259628
Sr 13.16155396781437 14.584648394177139 9.570316919798701
Sr 9.721706387833583 10.866971758587537 14.190067380432554
Sr 15.984368106619337 12.489322839643924 11.935606730380295
