8
Energy = -5.97437742 eV
Sr 14.145797281916163 11.710708402618929 9.756929088092146
Sr 14.78959036825549 9.826729232782299 13.452292426803991
Sr 13.750321904630587 15.803959624322943 9.408983291564763
Sr 10.961575989303757 9.506348808820299 11.715046487199306
Sr 7.726195527256918 11.634825488955652 13.154911015688207
Sr 11.416628956063683 11.79756694298231 14.99693879075471
Sr 10.78201107445708 13.686383305003874 11.299649159638012
Sr 14.588429985345972 14.019498372075406 13.033267022636432
