8
Energy = -5.79455474 eV
Sr 9.087396247738036 14.784574487818862 13.627910969778942
Sr 16.424070515817142 12.994619774510992 11.620582425916835
Sr 10.1532595914319 10.893685725499518 12.72282416564573
Sr 14.397893461701415 9.823828601220304 13.933623809288614
Sr 13.011363300751215 13.52119184629572 13.548949467279801
Sr 11.196232551884378 14.31404484616479 10.121983065256623
Sr 13.307116824200987 10.90762513788957 10.204400375870376
Sr 16.449971463651018 12.923283669362695 15.740523507745039
