8
Energy = -6.10420262 eV
Sr 14.903064611563783 11.349052233890006 11.490338017807323
Sr 16.940346452240348 14.830728796987549 10.559929043670925
Sr 8.781458819264126 10.329781260201367 15.177168288574615
Sr 13.555959537562492 14.792523666142626 13.08958311770999
Sr 10.787123930793133 12.115310647527492 11.916107529919108
Sr 12.805554147579178 11.293951159667829 15.303506970916779
Sr 9.992621557793179 14.235746974575203 15.395645136129865
Sr 13.22004434390038 14.103936831692296 9.008569135685942
