9
Energy = -7.65556025 eV
Sr 7.874710412169191 9.094930650508868 8.8102270079864
Sr 10.279889973580886 6.0384689057719445 7.702990252582826
Sr 8.38098828913818 12.587203949005941 6.803606487226089
Sr 11.549590706500174 10.000226862687697 7.73261622974655
Sr 7.375077997798179 5.596519024475687 10.805750076530547
Sr 10.734551731660643 8.067594803327902 11.314204136811616
Sr 7.002248055435279 9.354206291767401 12.762962501640393
Sr 9.702638485574447 12.068895689921408 10.838298215354861
Sr 8.731083169108146 8.822732001567655 4.8601235921211074
