9
Energy = -7.07333176 eV
Sr 7.511951665144971 11.965661956302585 9.329763954767843
Sr 6.429083007222954 7.929560394089749 9.976609578409686
Sr 6.68774558320035 9.5501460329848 6.107000913419192
Sr 9.5719844754247 6.990021497819374 7.665774783288694
Sr 9.757713894990644 5.677276017153459 11.501368442133812
Sr 11.507090060146453 12.661601737235125 10.354917907590183
Sr 9.30368740738093 9.64919503140619 12.167830737118843
Sr 10.587162596440754 10.8156934326684 6.808977099838947
Sr 12.470877526669172 8.58813946709863 9.915052583432937
