39
Energy = -84.10090502 eV
Ag 11.267668386976347 11.420145022314093 7.527913336961769
Ag 8.863761848394168 15.025140952512272 9.761844940521785
Ag 13.338432934038853 10.480965798686077 5.911102771932712
Ag 9.320203382726534 12.315071693739617 9.334937850139767
Ag 9.13650759184986 14.469415834060552 12.591039059535753
Ag 13.091335275537565 13.25106989415356 6.417148539377787
Ag 5.562495745608523 11.274156001060947 12.343237795738766
Ag 7.865897257328196 10.408620069434866 10.974420989684438
Ag 10.244504792293034 9.704173173157951 9.644206144972488
Ag 10.963271304365007 14.191000419438348 8.013783738232297
Ag 12.661849030411501 9.116454388056189 8.331458416823578
Ag 11.34868689959688 14.313478213620572 10.825661130427408
Ag 7.203864158922779 13.132937302768926 11.051522846550832
Ag 12.27603184788539 11.622108990469293 10.211391911642657
Ag 14.34875693276844 11.478905156677389 8.278438527493806
Ag 10.15375541468675 11.725784942819962 12.024414850429107
Ag 7.86899680605056 12.078648893313419 13.661651890373014
Ag 7.2625812300303485 9.289787855477002 13.455149990329621
Ag 13.591531296406247 14.08919588451155 9.055881630650044
Ag 13.993832391725018 15.031545335589033 11.674828538599611
Ag 14.342664576193462 9.663016413377692 10.479486826013177
Ag 12.040085625999039 7.767092215386497 10.75461278025673
Ag 12.227093772747875 9.873099523992408 12.65564471438559
Ag 9.804789877348654 10.050927945495475 14.36000077422508
Ag 11.699665048716605 15.273334584571016 13.507052863386464
Ag 10.352263954306606 13.003945904764517 14.624621205690406
Ag 14.976015395574002 12.435428461576292 10.90284378479597
Ag 9.614999801580261 8.452717434091618 12.062895261954093
Ag 14.23105379975525 7.806079073598776 12.540585326423269
Ag 12.72198596334002 12.643851211465169 12.831393483669903
Ag 11.599992488457639 7.4469702357487755 13.766085069793624
Ag 14.34327433850276 15.913662273126919 14.290192820710027
Ag 12.173073564782683 11.074984653523197 15.338633198599759
Ag 15.006836410726658 10.591218669135458 13.057919004604457
Ag 12.984668067187775 13.747643961678582 15.515686826122325
Ag 13.814083757907039 8.921231624941914 15.035088436998864
Ag 15.394038290573176 13.364705330584139 13.534325021229394
Ag 14.88195252907627 11.547248709443371 15.689657532062434
Ag 15.635461594169858 14.236388953449469 16.15508456708907
