19
Energy = -37.46583343 eV
Ag 7.402817283568176 9.418499539241672 8.353991823475514
Ag 9.749420271088583 7.911946448602364 8.646870457831563
Ag 12.748197044635635 9.07932101577492 12.476401354282599
Ag 14.085937610268985 9.607887550575876 9.891764805600467
Ag 7.95026189518937 11.688865166244387 9.866816768783124
Ag 11.768162056805387 11.416849849408939 13.920599348353285
Ag 12.45402357836315 7.375009426614166 9.091995741094808
Ag 11.938112986570756 14.058809929377759 10.719765791872502
Ag 11.368382204820085 9.63823915567885 10.10706309749984
Ag 8.490778241962255 9.125584369062572 10.891782178428162
Ag 13.224728999016467 11.687181710903166 11.52057817305179
Ag 9.890951040839091 10.724300466671126 8.003773063634345
Ag 10.672011241455968 7.318679726890738 11.415626427551349
Ag 12.32809567783556 11.913032829466175 8.881271763571892
Ag 9.949707324228054 13.374668194712296 8.889683406318905
Ag 10.051403542493393 9.446093098051485 13.130374327167264
Ag 10.426681623296318 11.85661055873196 11.499292164373376
Ag 8.003987107349934 11.291774064305416 12.681777961869075
Ag 8.716047750148562 13.926056178811098 11.379534305485372
