33
Energy = -68.82546961 eV
Ag 8.722705482745825 12.881000052158168 11.10147718844599
Ag 12.234154153070238 12.986483980444712 10.304480854550865
Ag 11.113569646827967 10.514987239148011 10.381632744749789
Ag 12.845556171204178 8.368011250826944 10.928186988792008
Ag 10.358147859843625 15.025438688460744 10.42476687143695
Ag 11.562379812350846 9.311937514507559 13.212099872754802
Ag 14.76688724961278 13.574600150065205 11.56128716695631
Ag 14.525397989781963 13.250339809970386 8.681224612000248
Ag 9.885256941949653 8.247394323927134 11.22876873073617
Ag 9.88583203531645 12.50787105968423 8.608315180286287
Ag 9.321261189340689 12.14803496608261 14.952861960325672
Ag 13.941338307089369 12.762604294305563 14.14262305963435
Ag 13.351721230459043 15.494503970170788 10.00928480723241
Ag 14.259835231688408 9.7410592229794 14.28859589906155
Ag 13.57619460735024 12.739442462720278 16.872964957209373
Ag 11.840018842130007 14.379167214094215 7.904877884931477
Ag 7.203484995372611 12.829392176111226 13.355836221873528
Ag 7.186179794607147 12.727527937279927 8.819272680766472
Ag 12.321124003396417 14.804232755211212 12.592236127431802
Ag 8.86189542337318 10.468459657599881 12.694999495502762
Ag 11.182758180534066 12.222026740741592 12.826414604849251
Ag 14.931440477617995 11.268180929746496 6.832990211056005
Ag 9.554800544053021 14.471239659901832 13.254673425907132
Ag 16.111204597081404 11.491816793887715 12.925549039702695
Ag 9.693436814461327 9.37331608260339 15.25230581011583
Ag 14.331394397586797 10.31063187930519 9.33789370267787
Ag 8.378363047072593 10.366913749816005 9.84729428860337
Ag 13.533399569173886 11.001521849231231 11.901010513469114
Ag 11.555348462881241 13.857558623331144 15.20917153213387
Ag 11.986483733296017 11.05651889469924 15.44337748412682
Ag 12.3189167106826 8.344489217881904 15.757492479513038
Ag 15.505596355835298 9.086291482336467 11.642481036781668
Ag 12.348225098943479 11.546880318362396 7.801154329333815
