53
Energy = -116.75135195 eV
Ag 7.853985262297355 11.173323159998153 16.865332089190623
Ag 8.289253536380352 8.872762472927347 14.966187734257053
Ag 6.813415579838731 11.164831586646716 14.20648728655454
Ag 11.02119766882308 8.888862410063842 16.13081907522834
Ag 7.4492326379517895 13.569553579658788 15.370771579873113
Ag 11.796808812042384 11.4917719767679 17.086042499468853
Ag 8.399393510078786 10.12835281175171 12.25330123637928
Ag 12.204046870925554 6.950035233484139 11.820996287433196
Ag 9.789926764601232 11.18507500029683 14.95225323420144
Ag 10.579846986908999 8.66088177015996 13.346280742077164
Ag 6.795198270039546 12.629057564621665 11.760775623990753
Ag 9.75821396564551 13.306177880042988 16.950207184515047
Ag 13.195670673784612 7.921724039645457 14.308693872114443
Ag 7.348555835448939 15.318616826757772 13.112938326348338
Ag 12.610623305568657 10.629738439738267 14.583567756129243
Ag 15.039826739883502 7.715159847797977 11.808302714498192
Ag 9.10166252403259 13.2363435518662 13.02641695743443
Ag 12.954831591111546 8.173128734620978 9.498473550569447
Ag 10.517645638940268 9.283908095318118 10.48585268129833
Ag 9.10976117498357 11.901204220173943 10.183057512631583
Ag 11.50325346224042 13.458651279912608 14.467701808086202
Ag 13.135231946209704 9.625281218656728 11.964324015049545
Ag 10.98628170657302 11.349771529727015 12.346529925473302
Ag 12.44134519592457 14.407049455863374 16.847338652313653
Ag 15.231895538836365 9.989289894973792 13.7706031624262
Ag 14.240964762024118 12.353288451313741 15.955021671453965
Ag 9.452223394480395 15.460435553477826 15.220196612330554
Ag 13.461684275670656 12.659703530285755 12.613043817323414
Ag 12.611656641610674 11.29871497991921 9.850263190380607
Ag 11.239083538828236 13.754565649295666 11.03346237898674
Ag 12.034910520062011 16.310630985019788 14.684634610742755
Ag 10.584300166781562 11.006144925101765 7.9679935328353215
Ag 14.264791256137405 14.715504892796337 14.490463084049045
Ag 16.121313654245355 12.596149751794622 13.921228582889306
Ag 13.219079703044454 9.97232442329281 7.43951424899323
Ag 17.2117611543707 9.576633201437977 11.781451807362178
Ag 15.460806561054923 9.232787749509214 9.399869142729399
Ag 10.261238427017906 13.847722713142828 8.372527835302343
Ag 8.509921814430552 14.682309332933736 10.578048932855962
Ag 10.162073889382146 15.98195879399538 12.616986349868029
Ag 15.390198875471889 11.539032871560265 11.066030283349592
Ag 13.03491514181038 15.707052206170921 12.036212340725612
Ag 13.851187831719288 13.763781140696944 9.925101296537227
Ag 12.692510063221954 12.767163447552996 7.2948639779832085
Ag 15.697341226890247 14.58457712343405 12.0142581949013
Ag 10.837146177078607 16.27562986236082 9.971515426251289
Ag 17.90807969547926 12.469024569046656 11.82579576408269
Ag 15.22851019546343 11.760261874161507 8.112423332146687
Ag 17.650024818383915 11.04853542131659 9.400129586085631
Ag 12.578735260431788 15.48645946451226 8.040270724773732
Ag 16.742197555719553 13.78568681997265 9.551219527577222
Ag 14.984120545004725 16.20041858471225 9.720832375061713
Ag 15.039646911461825 14.475891015494936 7.399112049717865
