39
Energy = -83.40231214 eV
Ag 14.376860032994168 9.60972283694925 13.993705837841462
Ag 11.747113667317981 9.41610778815273 15.113300517870988
Ag 13.382465091861373 11.868659202504519 15.156432823065956
Ag 10.172255745103303 7.555436965416868 13.635998081165559
Ag 14.625684516350573 9.60763963369386 11.283113886173762
Ag 12.655104706925192 7.99868679727576 12.4981071436001
Ag 14.583393309407557 12.168446540825153 12.547481857720923
Ag 10.693651017330204 12.27943538173687 15.034368330296283
Ag 9.047321896924256 10.023524458361688 14.496323916344082
Ag 12.034694447055745 10.894685663960551 12.771783306914886
Ag 15.417337885018268 9.410173817384898 8.63747303773752
Ag 10.698334907896347 6.835312823989162 10.890233396191675
Ag 7.595365332967347 8.316586631510186 12.800058167250583
Ag 13.206206481423928 7.7383105929464495 9.679063138278378
Ag 12.48604028466892 13.872482148347448 13.447173816699088
Ag 9.953871124403962 9.446606836619479 11.50182512459566
Ag 14.652150099792584 11.96275955402181 9.727420530636158
Ag 12.195417317032978 10.338023776170944 9.923497936363253
Ag 7.96486667619613 12.729255470318005 14.86606830632099
Ag 9.430232610526122 11.993585511804328 12.377289505262727
Ag 11.698008997047465 12.879996775677622 10.7686039544795
Ag 13.029037123008248 9.52672831570214 7.353704221052673
Ag 14.01468442201999 14.464153990132015 10.921042979147757
Ag 15.141780355353028 11.580108447812377 6.960803194772984
Ag 12.581103952016372 12.358439143913282 7.855235831465395
Ag 6.456763331639684 10.760425738665157 13.750654620390007
Ag 8.599269218805512 10.405540390916055 8.73589372051284
Ag 7.132228590453683 10.46016625751708 11.082621190602644
Ag 11.516551663952622 15.657111175795189 11.594462385266409
Ag 9.69374224612388 14.549797217796497 13.509043712848712
Ag 8.188513037272093 7.946541109585683 10.020911869700214
Ag 14.651800630056183 14.2253988221479 8.070992728874451
Ag 10.642130476345088 8.401024856275644 8.531024681811145
Ag 10.562238407298665 10.692605396998882 6.857048903388705
Ag 9.182986576304558 14.455286102861912 10.719556654167041
Ag 11.973686871717499 14.890240386050282 8.911021110427622
Ag 7.01202348476105 13.251629374275176 12.27038468039434
Ag 9.908101943929001 12.94242699335184 8.43042159706427
Ag 7.359659688918081 12.74961524075617 9.538531471522479
