10
Energy = -51.52603268 eV
P 6.374135792803262 5.970345696449455 6.633849250355183
P 5.838208068467581 7.998345617826898 5.951343741664696
P 5.700258515670215 7.479420195906971 8.146682187609269
P 7.9656376823425505 7.320759866326241 5.767097635943314
P 10.490753345927969 8.329147678652381 10.42051337250266
P 9.985513963644499 10.35453265804708 9.710434859899658
P 8.370448402602152 9.029710843212792 10.580677073879315
P 8.54439243244268 8.791862948957462 7.380162582919566
P 10.645021283137698 8.822056316741092 8.217566705982147
P 7.798615486508151 7.535668669135578 8.981831006662121
