10
Energy = -51.51472236 eV
P 11.451254938213408 10.650581657246438 10.992356942254942
P 9.764602303303407 12.006974097013536 11.400701389571676
P 9.793136433812023 9.662642563633504 6.584518830483723
P 8.79735179351044 10.568240756084796 8.09226648103175
P 11.495563889965062 11.955388522005093 12.76335291678696
P 7.569400985450766 7.2293942060373215 7.939698579877371
P 9.548724803308978 7.458076142308905 6.938644229503938
P 10.101130210606883 10.252553447077593 12.685217393673886
P 7.969961329855902 8.903609231772174 9.357077431105072
P 9.413325627158368 7.216991692005739 9.150618120896599
