10
Energy = -51.92367025 eV
P 10.866318914102772 8.132753255536452 7.430694452119636
P 8.862541547401518 9.106138418104045 7.119298334653327
P 9.692291297245221 6.283083372926086 7.874349123446732
P 7.764423183199796 7.569232838086667 8.306947502531964
P 8.943117380652678 10.90063016600728 8.373052252530384
P 6.7410893314050275 10.729550986091159 8.391490912505503
P 8.927319074034042 10.096506090261027 10.50652288922087
P 8.777868029061331 7.923769902518425 10.266270652012855
P 10.80898413123919 7.352884280802846 9.484659615913115
P 6.726057551947022 10.015461129954735 10.356724705354337
