10
Energy = -52.57053942 eV
P 8.991092006819427 9.351974450531502 6.582909181342803
P 6.780793473517498 9.436841786588667 6.776975432091251
P 7.885531503906223 7.633777122379448 7.472857970734395
P 8.051068017542002 10.836834534345885 7.950082831195642
P 11.422913171684534 8.919932607405114 9.51029619852769
P 10.08483469443538 7.205437239795326 9.984233588291168
P 7.974164312049061 7.82003192059065 9.682095264189009
P 8.02207497390851 10.008931245392729 10.01003466133209
P 10.133873364017862 10.394894168154694 10.571699663290094
P 10.804483203194525 8.542173645890884 11.609643930081138
