10
Energy = -51.65032318 eV
P 11.182149386939379 8.681733639496239 6.744078720477658
P 9.642602972042422 10.195609622133821 6.377376843497744
P 9.127656516782883 8.392290859962817 7.598104029690406
P 11.202826014460376 10.57011381479889 7.959001487034572
P 9.91403630172083 9.469677072395994 9.430038384946316
P 8.19505679354853 10.703125488089533 10.11783466155192
P 10.915594899529438 8.469865471802311 10.966009234176136
P 9.40054392114994 8.878807189550532 12.488131116499636
P 7.3854971039507555 9.244626956521017 11.611205070272435
P 8.608898213176126 10.969012008548845 12.283082575153587
