11
Energy = -54.56519261 eV
P 10.329614329087851 8.54186461654492 8.4539726591529
P 9.208730991881843 11.054609626731345 6.088258245422557
P 7.509457395439932 9.388671547735894 12.864058012293688
P 9.401105587659336 9.482080426790306 11.970483990245144
P 12.122602036423677 8.512251051911512 9.71559986024798
P 6.02808449753961 8.69850646249369 11.49675914246387
P 8.83984927690864 8.796487359610932 10.070671984676787
P 10.402531969856353 10.625975780485916 7.669329515916626
P 13.024563966572229 10.364125351685736 9.528357554262426
P 11.962039396887322 11.829803435898697 8.419164519215446
P 6.867846834098561 8.266191360658167 9.62546423295735
