11
Energy = -56.93862772 eV
P 9.194953651749975 5.685498635589578 9.819498236721769
P 8.723454443953573 9.019118951366769 10.782980807884071
P 11.241239560586292 6.773445141706503 9.832673785706614
P 7.7129352675631315 7.296148403008434 9.939944810156943
P 10.73032491075027 8.899311754552675 9.970746445413171
P 10.637819773998086 7.931881918376443 8.005536370852607
P 8.60262672357021 6.838660948612461 7.988369819539405
P 7.613563715865225 11.259689806775858 8.9101271776881
P 6.688411473939517 9.942727294173258 7.411489654348961
P 8.70963735564513 10.750985149272584 7.073538242990401
P 6.953145831616649 12.080692080943471 6.946857575355437
