11
Energy = -56.93832023 eV
P 11.881163566740554 9.390660622882855 8.234672783695828
P 11.062943706358364 8.740144810542482 6.277923143838046
P 10.747685198302776 7.480633996833046 8.079226743995587
P 10.270498642874768 10.586251470872622 7.245702371036934
P 9.395886244200703 9.652620949797598 11.521873001348482
P 8.653746241217538 11.07085180629054 10.034156844837629
P 8.311439340888322 10.009834883277543 8.110449961059604
P 8.570944666237677 7.700233956567583 10.716726759770678
P 7.204138384728713 10.351306228958444 11.570750558003951
P 8.605735380463784 7.837504770945463 8.530726072516506
P 6.489217925977906 8.373355801023186 10.871191057888117
