11
Energy = -56.59708778 eV
P 11.349951286773814 11.7197132930155 8.626179649876285
P 9.893647200216057 13.381130853016362 8.708645093180667
P 10.136421820190252 9.93695700644775 8.11112826473049
P 10.555151691565873 12.449617887616759 10.591607728229919
P 11.177231576471728 8.639939930556537 9.600742436461395
P 8.41871769429944 12.235313076446026 9.972317297551292
P 9.95160031856507 6.753321147765516 9.58167198334287
P 10.177576422837387 8.883316604487668 11.61403380004568
P 8.161016061596388 10.349454657783735 8.937756751336783
P 10.295823174710089 6.643704086185146 11.801518329181217
P 8.455720480836757 7.580389184741845 11.027256394126535
