11
Energy = -55.04811972 eV
P 7.145174582043736 10.119858263865897 9.125727849463122
P 5.547065291472497 8.548152738791503 8.944917686483894
P 8.435514677115735 8.759994906425042 10.371083788175588
P 6.3896050442545445 6.674980969291399 8.484303785617191
P 11.903787653875247 10.187691533018246 10.357755168434919
P 8.175869830274683 9.506295075689993 7.234463959637812
P 10.266642910805478 10.01542673119879 7.6699911765415445
P 10.809399328886716 11.558016738575835 9.223289980977206
P 8.409296940514844 7.492928536065993 8.586994542718488
P 10.342731933161282 6.617029039768832 8.879812018559907
P 10.502500125749986 8.72630323049701 9.45203403623596
