11
Energy = -54.41105867 eV
P 6.490466556140989 10.595264215443338 8.334692164355486
P 6.641153754605351 7.5775593459919595 10.377377069672923
P 9.40959533584319 9.035373134317773 9.199735154899473
P 11.861883719540259 7.503975965715115 9.360428143431065
P 9.79690665318985 6.906637694266048 9.07464179194632
P 8.172915756485075 6.214119944498366 10.46054229154962
P 7.899108140348464 11.226660356103949 6.991276222604245
P 9.816072461243177 10.207810920275431 7.3943812802234445
P 11.3263987457206 9.63535288029448 10.01884340695952
P 7.484447198764723 9.630580284711078 10.071339448684974
P 11.291212508141115 11.319776195900294 8.632986839232744
