12
Energy = -59.16003159 eV
P 7.631338294948896 10.93058085682942 8.748944627088914
P 10.890717701208226 10.321485653767098 8.342400755356438
P 12.546205884544381 9.154654026252695 9.137213250641794
P 12.566861048234154 9.674051180194288 7.138288796978177
P 9.009403753371869 6.236422706724706 11.4343032950151
P 8.65699079840535 12.789863890312555 8.955062143953072
P 7.999984482417925 5.629680648140372 12.9322690320478
P 10.77095339138574 12.364070910135815 9.166874020114099
P 10.671465956434842 11.781349523860673 11.312742849708876
P 9.447956484450668 10.168264482462366 11.76148378303013
P 8.284602207192606 9.213271111070034 10.218460128149589
P 8.97223131784881 9.310894096562242 8.058752617913703
