12
Energy = -61.73051804 eV
P 7.981391637447794 11.937470693154935 7.143493822367025
P 11.489133868396253 9.403453074351106 9.864421696654674
P 8.913386077955549 10.799699539205488 11.18975044736815
P 8.129390211326381 9.945107310888659 6.259767609416901
P 11.848418739932631 7.308171286661524 9.572547813802835
P 10.694853578332886 9.625954083832168 11.935807375318777
P 9.920687787144775 10.811105921871397 7.305837323208334
P 9.210526657104241 9.80831535063623 9.193183659505316
P 7.108842248076959 10.207039705837646 8.229195836596393
P 10.020229568706839 6.297331331945572 9.736159280832894
P 8.703759746197704 8.688188513613198 11.93836359923931
P 8.445101366646051 7.743311510614604 9.902165511642055
