12
Energy = -62.41462226 eV
P 12.370447036264485 8.573773157465036 11.031972480920684
P 11.831427118211609 9.768176629193174 9.25610905494942
P 11.467556267050805 6.5784778439091225 10.623677270353541
P 9.808438153915324 8.95117808477371 8.678844166526844
P 10.51299304562304 7.9556430765982205 12.093053794307265
P 11.256792232886095 11.706604874552099 10.166549430700403
P 9.441401199880078 7.412240603124973 10.219272248404469
P 9.871258842645172 12.128140798767681 8.431071967639156
P 8.478213730654257 10.600446917607027 9.346205720305857
P 9.406160102277882 11.134329812704763 11.335746022782962
P 8.591464541638633 13.22439723919471 11.33177690748999
P 8.89317153517922 13.895914768335356 9.415044741845431
