12
Energy = -62.40498175 eV
P 6.483836352034003 11.65882120582647 10.061664977366773
P 7.926810713629898 11.635924933306 8.371809942492291
P 8.666878114985819 11.808079190528503 10.463488370938279
P 6.689585717668824 9.838052092374223 8.8040586416726
P 7.831858252361938 8.461392087069626 10.106644834731744
P 11.28776410161781 9.831209755968583 10.370338689298283
P 9.208298076072799 9.789966440195325 11.19603821125307
P 8.769042539110414 7.335426124712728 8.410670425620996
P 11.885986480650988 9.414504820653734 8.3113549996456
P 12.164161580242332 7.883905293103657 9.956334795416375
P 10.465528881353942 7.991034534847497 7.20252258940245
P 10.705194429261228 6.436628760403252 8.830018761151678
