12
Energy = -62.52994514 eV
P 8.204207863803996 11.285018293734282 9.383916389627109
P 9.23624812693103 6.974105869521326 8.103338403559187
P 9.999039705531315 7.499096242088176 10.124026499100166
P 9.923061292315941 11.025586275389857 10.795967674053506
P 10.55410271713316 8.016652977222401 6.7047139126282085
P 11.155334040856017 9.404484295386208 9.932440014540695
P 8.116461143808268 8.007789878893995 11.191399427768935
P 8.32192117427061 8.53254927940846 6.856798676791641
P 11.082229722077352 9.976383789379732 7.795532624972101
P 8.477477810633783 9.914754472284969 12.199955257788279
P 8.970291806604667 10.629808741052857 7.42678060225895
P 6.960734569898569 9.734879859502577 10.486240490775536
