12
Energy = -59.52577858 eV
P 10.80601674076549 8.030125076137931 9.355485988534122
P 8.39020221726343 9.466332508750513 11.713363663673608
P 12.372878455704065 10.875713830248252 9.187132404917998
P 9.6588271742015 9.050311480581716 7.725845190516956
P 6.827421858449358 10.02092862632613 10.160079088649987
P 11.14507551922798 10.612659602800985 7.341433525294573
P 11.589655114158823 9.522356429942157 10.759293024363833
P 7.614395263704943 10.006314445386844 8.086416675973048
P 7.758571498613694 11.775521365753365 9.306657341919017
P 12.501789341371202 8.961221003428165 8.04570707053742
P 10.228369296258174 10.352163328387963 12.247072901894331
P 7.745346413407034 8.349552337334417 13.25850123055317
