12
Energy = -62.42819368 eV
P 9.23400807095586 7.892743350967078 10.302869315548527
P 8.413106434292498 11.622763450041262 10.491377352182734
P 9.511774880854121 6.081323592345914 9.283048954623679
P 9.074742742942158 11.100110584616944 12.510323254355024
P 9.107214065258336 13.23878528624892 11.78077248623201
P 10.06979763229376 11.36593608052859 9.06761288886266
P 10.337029408768615 6.389060456451989 7.348102259636787
P 9.936905534738084 9.178267342238382 8.803867937820181
P 11.433343811022024 13.155508018101424 11.659366051101367
P 11.870093649535526 11.481440773517166 10.333411502529547
P 11.359128744844455 11.018981655805964 12.406180948103474
P 10.613945792790997 8.436170177432809 6.974157817300443
