12
Energy = -62.97675365 eV
P 7.48588567472887 10.655651461275811 11.317923784548473
P 7.398467796825725 11.853066721835747 9.494769928150347
P 10.546796259236494 10.53376310718357 9.60547963193865
P 8.81751522034337 9.359836633103349 10.32170028606736
P 7.6032239710364715 10.606596206715276 7.585305977441955
P 9.361855721562831 11.853363092207358 8.317609317529964
P 9.629769677288959 7.722579694599378 7.5932190712434835
P 11.387526664346295 8.971997947475096 8.314324868019188
P 7.838505902021535 8.62057677304321 8.485533138693816
P 9.775370629618235 7.528834736583575 11.143437767288884
P 11.715042194225951 7.528261147116629 10.02594032927031
P 9.946538028514713 6.271970218610582 9.301253639557018
