13
Energy = -67.96367451 eV
P 9.958335918879785 11.215247019294056 11.431940932614747
P 10.23606740183072 6.85879313923471 10.923758175597861
P 9.049511929897752 8.283608827044468 9.618745548756248
P 9.001778495773669 12.281318585449192 9.769071547699658
P 9.77184920607086 8.06603662839275 12.743062208898984
P 10.78109720741302 13.59669875027056 9.390526605685887
P 11.716686269482844 10.311446851115686 10.430557172657089
P 12.477936871949755 12.14444718567984 9.417165313245839
P 11.29052590184416 12.364312552188004 7.538623435270344
P 8.548075262615576 9.519994927506836 11.506970592656664
P 8.46331511122214 6.4196724144342205 12.129237497172646
P 9.505959846652656 11.062128371116673 7.93264422760809
P 10.713210041745036 9.390644213650688 8.682046207513617
