13
Energy = -66.99999379 eV
P 8.289499077268331 9.04173952912651 6.658091664632572
P 6.230418387660947 9.11410082684294 7.386013405108841
P 10.659729247167899 6.588727575810236 7.205045822901486
P 9.482416102914607 9.862659760855514 8.35623823934976
P 8.547107473247255 6.840415446552364 6.641237490570254
P 11.259992056787933 8.527005746806067 8.238827392906964
P 5.951808008019398 11.298407458766269 7.586451445817056
P 9.01509859269706 5.753178913256983 8.52309965257576
P 8.461738978944792 9.0813454358589 10.195256943150053
P 6.341415091926662 8.975401083228153 9.646183236199857
P 6.012285772815224 11.17268759869116 9.653393591581905
P 9.127651787979174 6.987642091084675 10.406084793993612
P 11.25839438280713 7.394243493356499 10.141631281448744
