13
Energy = -67.53431571 eV
P 8.350367255059789 9.494554532807001 7.1809168169959054
P 8.819748540020203 11.138500569726977 8.5677938561028
P 10.388708665279902 9.064040458511474 6.398997511614628
P 7.054784886608634 10.864298930338203 9.89753579082969
P 6.867081446914597 8.592709510645497 10.17425988990376
P 7.910061700609171 7.688407411517098 8.443625423265425
P 10.627690034724179 10.51067835847917 9.693556818839546
P 8.138174764941573 10.944184791782659 11.841405173392689
P 11.844281398770137 9.753247079630784 8.004770685959873
P 11.338118247061242 7.549204136520732 7.764974857540223
P 9.86359555371775 7.063392674436187 9.36190861921018
P 8.420875202320095 8.735149317840559 11.859277300963306
P 10.395597801061035 8.620717724852232 10.83006275247002
