13
Energy = -66.06204823 eV
P 10.7460301787282 10.354201398875711 7.282572634283668
P 8.819657719116536 7.281048158243399 10.64101865755875
P 9.091315461653553 8.080858840243746 8.604080036128588
P 11.357368820315918 8.318634147399754 8.008459859411518
P 6.729280588939922 8.336735555666808 10.246057793812898
P 10.670756024191592 10.208906199678882 10.749663627855126
P 7.5710217846556445 10.377760360819122 10.682486631922185
P 9.169172205355489 9.517108255836023 5.958969981794916
P 11.690138360401885 8.378991499313798 10.132666917257112
P 6.917315523360655 8.065374393130497 8.029295161149665
P 7.522798328994829 10.11053276888009 7.252521647017338
P 9.135195187319995 10.255681371514969 9.008818852207378
P 9.05230745696553 9.186524690396944 11.87574595813542
