13
Energy = -68.22264031 eV
P 11.617361372886103 10.548549300525208 11.276835135870003
P 9.351714812596825 8.206559666346255 10.599865195906018
P 6.212984769110042 9.010392973617153 9.306898483552976
P 11.42537783597655 8.641694253560635 10.056057613120126
P 11.53657461890885 11.770453885260135 9.361523061508407
P 9.818965124683436 11.696526820188769 10.737966371737977
P 8.900508291772761 6.781197664969822 8.999527033900485
P 11.311200237883137 9.86335823370721 8.145401800620341
P 8.361443242737032 10.024581391891543 9.785470223715947
P 6.638040999358725 6.8524952037303715 9.20399766487617
P 6.50029754931274 8.112708159877386 7.318761678546512
P 8.761977304497458 8.020815644265372 7.101983377336969
P 9.173947142914107 10.08106010469805 7.716105661945577
