13
Energy = -67.60551486 eV
P 11.108228673581932 9.333513110188619 12.214428187763499
P 11.727254060831847 9.45609694909326 9.538991413271102
P 11.073109004614386 11.125303081742656 10.897476030889441
P 10.32720060053978 8.030290292972833 10.589007688884303
P 8.9370409186295 11.19103038588756 10.37376558210085
P 8.412569216082995 9.021969049821973 10.173811186674538
P 11.03414345045986 8.949786367070145 5.6921913689931465
P 10.66893307141362 10.446866520300258 7.259738301527282
P 9.07990025132131 9.016946460164714 6.712710281645076
P 7.573828332394402 8.992493595101543 12.280535920618357
P 8.083996373184295 11.191878799412628 12.478864984577958
P 9.290642795735074 9.64835670433569 13.516612780363376
P 9.616126343188345 10.593907856676998 5.2681368498558
