13
Energy = -66.60961024 eV
P 12.806290241020617 10.697070464642668 9.102675128167801
P 12.000167557199381 9.103344274186668 10.385255972797195
P 12.820017314321081 7.725259967987874 8.882803040482914
P 14.190007726462278 9.266828566108662 8.357440722662496
P 7.270075948250248 10.82648075894713 8.54728112442588
P 6.566887516778924 10.283840971328354 10.576181553720438
P 4.913992950057139 9.184910885573085 9.509542056093162
P 6.531653568870721 8.06203880916851 10.605324229912847
P 7.225424929819024 7.451184107123519 8.592539036679108
P 9.438807851967395 10.232471185619074 8.3377001012393
P 9.720207630020921 9.134851370128787 10.253039389145213
P 9.41016182210158 7.9913950599037715 8.368454670386779
P 6.205258790555351 9.139343747032171 7.580783142036999
