13
Energy = -67.56007787 eV
P 10.59741776728676 10.873746828958575 12.465386490235844
P 9.165405156627092 9.236435265613764 11.99745745751634
P 8.542402816685192 11.377604824552307 11.78514644067316
P 10.981700689765809 9.49865137324933 10.755460431401607
P 10.609525825836055 10.934813410266448 9.108982672115852
P 9.377382879523738 6.62497290088597 9.046423185138583
P 8.609400702018695 11.77231449604293 9.59203215902474
P 7.124150951840488 10.21195379267366 9.186490589390457
P 10.868910916758262 7.725519004936962 7.813853620923701
P 9.439731122464497 6.319111324676758 6.83870511281187
P 10.104541510757395 9.722871676418148 7.268302081368706
P 7.657643226843116 7.252668524784204 7.783690646086038
P 7.883732571631624 9.41128271497967 7.320015251351568
