14
Energy = -73.59766714 eV
P 12.992864161862517 12.285962045694776 7.22971820733869
P 11.017591432385803 12.245722950076056 8.209736468643138
P 12.2650096450347 10.432092171122868 8.168105952513388
P 12.847349369892653 12.142835063935559 9.425467744221168
P 8.961062986037307 7.373939818756739 11.99870325617152
P 10.694192955325864 8.555406210957578 11.244110310507516
P 9.548292174391227 10.46215350778448 11.20294238488785
P 9.595983398218538 9.225733334398676 13.05500827452409
P 7.530592349892363 10.088622644540251 10.35314140015043
P 9.022178357476147 8.070927048473875 7.759974427428088
P 7.152756226193938 7.967438906889565 10.861264565846797
P 7.561493402982536 6.895621016292678 8.962502986057046
P 8.021920479443507 10.011188168592296 8.188809691098964
P 6.842050058573951 8.295694110195514 7.393851328322492
