14
Energy = -72.10876869 eV
P 8.89534860632337 8.888747436388833 11.008062413911793
P 10.260904221641026 11.273983175188238 9.092278659592461
P 9.783172182570363 9.827095738165427 12.836974880907421
P 12.43384762280952 11.744748882876266 8.876794741984948
P 13.117087153682803 9.50721204250765 8.536674371008168
P 11.416313118159168 8.256295277789599 7.943716981637703
P 12.691515517718505 9.138955422479984 10.713212718107602
P 11.091204468750947 11.659842750542436 12.428002945077617
P 12.89216183496415 11.322895373773814 11.027221386183577
P 10.703553040820278 9.174551113820542 9.723687076888195
P 10.115623388737157 12.748776590601755 10.80066788704487
P 7.9346273036347545 10.53454454158842 9.895911697324184
P 7.9706368370293905 12.217213271988005 11.332153993515174
P 8.15298145340971 11.164113632038616 13.24361624681628
