14
Energy = -73.22565521 eV
P 10.387833462942295 8.342546778136999 8.756878226581174
P 9.716590146274317 9.462933409195003 12.046923930087393
P 9.541733749024216 11.63432833641978 11.546249530817535
P 8.221404812609418 8.35557272934443 9.033628510557323
P 8.913996498265261 11.74394402132261 9.438805712301162
P 9.949322489161732 13.549994809265675 8.762653246488984
P 9.338782427719044 6.4139026743608945 9.204156871836012
P 10.604700781424212 11.482718855947903 8.092370800578841
P 11.887164182174715 13.635290972753866 10.035714673279802
P 11.172664919471698 8.297217301379973 10.891153280215141
P 11.704278160658122 12.00036926353245 11.464959438535288
P 8.003840734826852 8.318823916502893 11.31394281925482
P 9.62587040490302 6.751914969186068 11.487949765616756
P 12.452755072133998 11.531379804240363 9.445551035438532
