14
Energy = -71.16209554 eV
P 8.079569343741358 8.460382227502205 5.022218991403606
P 8.501080748116376 6.4280614267353755 5.774018804635841
P 9.831271289443643 8.761749291085671 7.415953607543912
P 8.800626583383414 6.872779894930925 7.977152193526331
P 5.973659635552942 8.008932196635156 5.534463918456489
P 6.348106467834156 5.951943735505552 6.332152711686949
P 5.927319939076398 8.973065662327063 7.513133962245132
P 6.512258589462033 7.043935261899592 8.33335351889996
P 9.098723356523296 10.481148986240319 8.645074007196284
P 7.694461495199225 9.68390112447471 10.172342369094546
P 11.013954207826785 9.55467058947459 9.184681757595905
P 10.546021393054902 8.331327613063932 10.973325655461286
P 8.427566809974095 7.674069179306831 10.804766561857955
P 8.948002679646027 9.476655349652733 12.019984479231033
