15
Energy = -76.75108169 eV
P 8.619144697527812 7.682434219367814 5.49719238338101
P 10.367691189871008 8.871585740533718 6.274687138123006
P 8.610995307455548 9.916155321480854 5.4061711540766195
P 7.788258362133317 7.438966135750083 7.595666991762572
P 7.22147116586335 10.613100977332515 7.112909765150192
P 6.022069502594497 8.7962687992054 7.576107112846146
P 8.67123714038706 10.656459516100893 8.75918225531222
P 7.605811597606605 5.4786538526571515 8.384121052432178
P 9.597051747574502 8.572611317048983 8.413444650266772
P 5.621565525744052 9.080501838540169 9.686379756413796
P 8.83643790633647 5.935998357873071 10.107752539036253
P 10.545507705259277 8.518752381166308 10.504643462327849
P 10.610823222389536 6.658416801393339 9.081232073163369
P 7.460396349962738 9.946703199901584 10.48383920559578
P 8.56260149935348 7.974454461708118 11.257733380172242
