15
Energy = -77.06991053 eV
P 9.932345701290341 10.705513321109427 6.0694746613464705
P 10.859948673841544 8.628152504829073 6.385940914832903
P 7.015720062791265 6.368198635028812 7.962021608644076
P 8.908255639340744 10.651691415263278 8.069690319579102
P 6.230149898335819 8.443281834149216 7.831220515409989
P 9.95634773723679 8.648711661812676 8.407528733484973
P 9.069673325262398 6.677076773090228 8.801204963706745
P 10.746536822049714 11.867044403750592 7.760237795489567
P 4.281407719782818 8.240389209912156 8.781174993191788
P 12.186145594252428 8.90510977518973 8.158683796656588
P 12.496214148017067 10.938083211389044 8.615285994140839
P 6.546481497070674 5.627015292694087 10.066293440796246
P 5.92004478436131 9.180145677714577 9.885667026774101
P 8.427718579466813 6.635007108713784 10.955698143410052
P 6.410592335356254 7.472161693809913 11.237459610992389
