15
Energy = -78.5616545 eV
P 13.099320648548215 12.258915697526646 8.93179030892768
P 10.348601326360031 10.761630748560776 8.637179770896598
P 13.536899740497264 10.067904111791531 8.613109159481256
P 11.620505565503866 9.03222720869465 9.133968308355728
P 11.177365623664167 12.25559878950092 10.080588973886922
P 8.486800055911933 9.785826541396096 9.385703747419218
P 14.607562793930297 11.240089295315784 10.212733357748279
P 6.417567416504447 10.61061492432791 12.055565407778293
P 7.314060383412529 11.46408881630384 10.204264024159109
P 11.358394002572364 8.941608784316267 11.343828783701863
P 13.760792860684395 10.928108616086977 12.17109567141198
P 11.60301134698748 11.058029713336852 11.916371865944376
P 9.13085687817573 8.647306482513244 11.208438594482818
P 8.368863148880692 9.903073987851466 12.870061389811648
P 8.137107290001671 12.012685364112723 12.203009717629019
