15
Energy = -78.30058667 eV
P 10.029945328855485 5.351090110529376 11.961322144744763
P 11.787213090426016 6.597678994830029 11.551211838354359
P 10.426100129201545 10.17850355077091 9.837636225879443
P 9.885295395208695 8.704679365514746 11.403517228392893
P 10.738157731926153 5.635902326419173 9.880299268417422
P 8.978460256699508 6.805809853690439 10.588841813236241
P 10.029430023574571 9.429810587593638 7.781341982890064
P 8.164670526696767 8.253356031405152 7.9741211276524915
P 9.228083273312196 11.365200114882638 7.129181503379511
P 8.387370248676968 10.30157727795957 10.818224919752032
P 6.975460180170057 9.633241600774884 9.227933712189172
P 8.297387319137739 10.559882912895583 5.247856852502956
P 7.260316082943595 8.728271124201267 5.97919315246541
P 7.187726897546854 11.498971259192505 8.093020448213869
P 6.241932496546803 10.693073980695864 6.2160724070095235
