15
Energy = -78.58116768 eV
P 11.922209482792546 7.508468264070038 6.256938951148264
P 10.15059780003485 7.896396474241741 7.5077642573967776
P 10.672847726374044 11.844541165872306 8.99959730478174
P 11.653276059842092 6.424429884398289 8.158438805571674
P 12.135560987341801 8.57238600918278 8.173979007555285
P 9.650379909027428 13.69928516146828 9.73945413711021
P 8.549574846713119 11.749628323082362 9.592577737744968
P 10.730413499306843 13.457851660967625 11.6961943051059
P 8.567889875243138 10.802462358890546 11.631707729811538
P 11.852859542267973 11.628553884653927 11.139460296280843
P 10.538715417631536 9.870940620529678 11.453140056566824
P 9.031125637302724 12.639194383248416 12.804048182229318
P 10.219068714136661 11.642454904154881 14.432528501969136
P 12.243554345249008 11.439197296352061 13.579494863397006
P 10.907425956621054 9.64970940877233 13.66017566321533
