15
Energy = -78.62329843 eV
P 10.38334526967545 10.147837573382825 8.260093053892831
P 9.456661752348563 8.62684394154603 9.60941157473791
P 7.313575546249934 11.394570566848355 8.686048289935718
P 9.436138664733507 12.078263718726806 8.710439580049853
P 7.344719363519761 9.192410396437461 9.240113963054347
P 12.294324500149429 10.928674990698974 9.068000081240502
P 13.517841608749583 9.16244913733242 9.587409016346054
P 6.782613816864546 10.776153024399795 10.768230659953348
P 11.895295474700418 11.669342854078208 11.1390151081092
P 9.832467678425576 12.560832499838515 10.875763478645368
P 14.486985709137674 10.063750842841944 11.330338385202944
P 12.972241307218614 8.521187920746634 11.667249581594723
P 9.47731676410614 9.095355084944762 11.792207362016601
P 8.586987577978693 11.088665799484458 12.040792092253703
P 11.434545424274095 9.908722106824507 12.439948231099033
