15
Energy = -78.8600234 eV
P 7.480096202166786 11.040612990591875 6.5567970460628535
P 7.9763565540622166 8.846851042468924 6.490057899596975
P 9.947650065941254 9.48024074690306 7.303978255708613
P 9.154823316468548 11.395216135796874 8.120452415055485
P 6.472835531242047 9.596157508871023 7.951581455064229
P 10.112839205191133 8.083664077270948 8.993552528593439
P 7.656075931675492 10.57460056778892 9.563503991602154
P 11.971848155758806 8.796370338467536 9.986795443903373
P 8.428289089869908 8.680731659218603 10.397339240558635
P 11.745662329876339 11.016709496207422 10.172463337254326
P 11.324355046032585 8.076951123854604 11.955845736136903
P 10.180781078125055 11.333942121303782 11.700319750825603
P 9.50633915220234 9.284277198497128 12.275945239277902
P 12.32591745305665 11.364097673323096 12.309442451725555
P 12.649082799196648 9.362529230301597 13.154877119499345
