15
Energy = -73.51145807 eV
P 10.103460442243803 9.685339056924771 6.34978727670353
P 8.802272032835003 8.54667261624569 5.5536731298184225
P 11.888510331751883 8.795388926836294 10.957503793403342
P 7.144083125034713 12.07640324512938 10.029798791582833
P 8.838165277934994 6.936634685746462 11.436493139319905
P 11.07769274175679 10.16071225469533 12.583230688221857
P 9.204799078156457 5.310907235781042 12.354072843591268
P 11.305255714553338 12.264041648010975 11.826202605865069
P 11.946809402233402 12.269884807440304 9.615059164122204
P 7.398674042134395 11.92266154218187 12.075444359239276
P 12.526936189274721 10.079860502170442 9.293036334063753
P 13.843468633829765 9.74952993461738 10.973119963836854
P 10.118832233117946 12.656341945160907 8.57763445404419
P 9.42722427775523 11.18823736726712 11.57648245479705
P 8.98683469601885 10.97040245042346 9.41147922002101
