15
Energy = -70.53587737 eV
P 7.290280391603656 10.900890695526128 10.85985474175849
P 9.632770559339018 14.157718200787825 9.34133919434218
P 15.941346584441762 12.912174095945852 13.904805451451628
P 7.778908847530212 13.716683311286149 9.420127827917597
P 14.013792333943044 12.693393353985508 14.333104748893163
P 12.786882213966598 10.044036245794516 10.710280211410634
P 12.380369590377835 7.7680016292345835 10.583434800554004
P 12.977634994675922 13.669159751950296 12.534627308261172
P 13.28137864487109 7.348778936152035 8.624987943605989
P 10.463591679084653 7.914445065560302 9.503397228040162
P 12.07408235109397 9.176904738794445 8.682014368833347
P 11.352082547579814 12.26705353337532 12.248669733353644
P 10.75292372197443 10.44801228017561 11.383175927033625
P 6.439291863187243 11.014528692847762 12.565572720045466
P 10.803329198950074 13.936884991203634 13.273273317118711
