15
Energy = -79.09011096 eV
P 10.261406012477577 10.716673639583405 6.570275506640465
P 11.974087922846971 12.17213406619951 6.671994295822211
P 11.312365739863305 9.676344998992167 8.230223490451184
P 9.908367228132331 12.784625553985608 7.31689305639307
P 12.46533410094357 11.481908037891724 8.833628596496387
P 9.686745633575153 9.436925587043683 9.693338912817932
P 10.755607917549277 12.804657169072613 9.37147238815174
P 9.280683261679169 11.565585922460746 10.437829009465716
P 10.835838330882028 8.495179290554976 11.328555904690797
P 10.173231038680388 11.614136210772168 12.456755747923214
P 9.0652364651498 8.263636230771835 12.666512273490511
P 11.871629153647326 10.243022895924682 12.179517709361647
P 8.62000425489043 10.311454155126784 13.39102193193326
P 9.860147914162566 8.939829977224559 14.635485125310382
P 11.958042243672725 9.52261348254846 14.245223269203205
