15
Energy = -78.46034682 eV
P 10.057272404962422 6.063178752713709 5.98053492750001
P 9.566694953037436 8.268893186038891 5.838296154321637
P 7.5378810550665 10.977052224864156 9.109991762881508
P 7.5980579245587725 7.895187865924115 6.9489040255939525
P 11.144523249476169 7.530553029096653 7.166719302964558
P 9.648537221513896 10.73633108323657 8.507767933720936
P 8.172715197406422 7.0248606725728004 8.869418762487822
P 10.33543728646667 7.262995735243132 9.191948884794162
P 8.073590302310835 5.697767721984596 7.134762219848728
P 9.107576967448185 12.404333196020138 9.849034940222962
P 10.668983032040524 9.341580113605007 9.915255299086892
P 9.485863348651243 11.613619964158927 11.955890152792916
P 7.255324597429395 9.63073992243268 10.884852757509675
P 9.33748196282212 9.440737608097118 11.646701027605234
P 7.287759913790815 11.38986834099211 12.277621265650092
