16
Energy = -83.80935478 eV
P 10.11844259311324 6.5448771029416255 12.201323796386479
P 11.561184836009662 6.472710433703127 10.437965023654627
P 11.773552692316441 8.024943071631768 12.04091393249956
P 8.511019299370492 7.442877877112135 10.91502909567004
P 9.82682712944732 6.991904155201517 9.144664165077
P 10.924560215645624 9.969514247058983 11.45676805915409
P 8.797975156317671 9.441682768722815 11.820368067256041
P 11.564357152200492 10.135272662111687 9.284244661810527
P 7.310884436757735 10.912502806347879 11.164247529435757
P 10.413569162321132 8.780862139522842 7.9285442130499595
P 10.36095781484401 11.991066195779325 9.3210077033534
P 8.283281598293582 11.203103556451119 9.33494313929767
P 8.356640152735963 9.570784903633944 7.808101604555078
P 9.961277852920883 12.706895883236886 7.250025664451456
P 8.600412466220323 11.197213998788474 6.299070212963579
P 7.755242290774614 12.733973047044781 7.7129679806748825
