16
Energy = -84.82352641 eV
P 9.409671982139791 10.340638512294754 14.084603275889226
P 7.553615024257999 10.45884105965552 11.7195169224751
P 8.799119492146758 8.79891215038486 12.567649069348223
P 8.786011157711497 12.057361778161313 12.642502875272687
P 7.984556453482779 10.906287490974544 9.592115290112531
P 10.873308952101034 9.551976337945215 12.574043551322033
P 8.016135493904988 8.890362826849524 8.684061281280295
P 10.757462885604 11.610598880274793 11.711297214666402
P 8.509536877380164 9.509726713831432 6.637849073715389
P 10.175088102425493 11.583442631953492 9.5631058794529
P 9.979516573210923 8.143409413632932 9.39174985391009
P 9.102619182924807 7.4387746485105755 6.006443913908068
P 11.29376538500566 9.83266540797099 8.795149685864427
P 10.692729014531807 10.111116012158293 6.704871607095306
P 10.416096496234388 6.774164139888546 7.6894694222958755
P 11.293808201889675 8.042720276407843 6.075369438371309
