16
Energy = -81.89433237 eV
P 7.781985496599771 6.716545856602155 5.353816479691523
P 5.547660670933473 6.29575355197268 5.4997995938603745
P 10.01121091394264 9.568789149379032 5.754575291486963
P 6.851605859214969 8.68588772997307 5.619026140976131
P 6.908646385181164 5.341529250004349 6.9619261748378465
P 5.142633510271234 8.049317894676411 6.934624868637703
P 9.663592520652815 7.943385146165383 7.106301926681094
P 9.980956006717223 10.658280333377057 9.25355936492403
P 5.921011509150083 6.6177269984517 8.4091055959448
P 10.98258187373842 8.759487400229272 8.807102273222677
P 8.33208019671541 9.67571459359499 7.084257965236151
P 6.434353255894523 6.909729294730742 10.462955520782774
P 8.40179662849744 10.228217355188649 10.850923346354644
P 10.528027072645818 9.802953877319327 11.289085963397836
P 10.286613170475198 7.61238236098806 10.608582978550253
P 8.163303617912636 8.072357895890368 10.942415203957728
