16
Energy = -81.43987315 eV
P 11.7914006584253 6.908160401222176 9.755276121887254
P 10.229948047257544 13.600602534533637 11.121854432445488
P 10.302543208307936 9.043817631345087 12.419072673448689
P 10.274212641309756 10.55333730993262 9.582426879209493
P 10.33903529731178 6.995676253401778 11.487061431254523
P 11.703300952056983 10.530585658385798 11.366810081029518
P 10.264752754917483 11.843850622010367 12.482080376895835
P 8.855001819543004 10.50034832101782 11.370893552563688
P 12.712735228318166 13.209855488110692 10.75108711556669
P 12.567672174739254 12.832680575797694 8.786306457748571
P 7.748072792329987 13.099197251240803 10.75412387725501
P 10.240031802993006 12.716179996324696 9.111329592171261
P 7.9096623715489045 12.747262258636102 8.785548096887055
P 10.366973085057502 5.461885843938004 8.790675206400186
P 10.328587137693871 7.594863849323426 8.2106381930059
P 8.891336340692837 6.85620820285509 9.754883699040867
