16
Energy = -84.15163448 eV
P 12.1297728753056 6.537331940721675 10.49068670921998
P 11.883249463358347 9.662577568907096 9.259859369789591
P 11.992923865048528 6.56863666919582 8.265021978093994
P 10.774996653571716 8.414658160172403 7.864975291010016
P 11.572224973187096 8.5847479966598 11.192519792655713
P 10.422067272823744 11.387564001721614 9.093143095375606
P 10.268096526240113 5.769176514915552 9.491217723027523
P 10.117991043149054 11.862176744400521 11.244087634729983
P 9.056843110060747 7.648856204244867 9.099111441808429
P 8.74688509594622 10.192608400423582 11.902814343305339
P 9.431229143381398 8.161307228010031 11.20806228434963
P 8.335879021851486 12.732504540845719 7.753797707837383
P 8.038629527234706 12.79022832101419 11.151219831160278
P 8.378742613106253 10.649530992786715 8.547319779210918
P 7.2036160194040635 10.8422988358242 10.428884027000125
P 8.176169348104876 14.03219798745757 9.347811393328458
