16
Energy = -84.43529364 eV
P 11.05695411574066 10.317991432424805 8.962923434880468
P 12.73389560481442 11.649004303251116 9.71035824129632
P 11.284608130309076 12.66201207641659 11.121076612973352
P 9.62211139247014 11.320598198019969 10.360480704958924
P 6.557289740958297 7.392770886085935 9.158245536674972
P 8.412845022318132 8.630012553703914 9.091808261445168
P 5.374835826400215 8.634903116742105 7.7283448063913385
P 12.798794731014423 11.228383115872395 11.893654240912982
P 8.267163449281826 6.7230352838468415 7.957324049570077
P 5.68844604242004 7.711189193257014 5.725817648790602
P 9.56026508249016 9.916672055783279 12.058169488443735
P 11.69809231122335 9.305730301993544 12.147258691658285
P 6.805193596475157 9.54564522160778 6.290291712909086
P 7.9021530652308725 7.6428457466751185 5.9539007928174765
P 9.557427071752057 7.9503301997508355 10.89270223835856
P 11.61238168481773 8.496402484090243 10.07904948113877
