17
Energy = -88.60828395 eV
P 13.479193115148727 8.713988117903341 9.334851874266086
P 13.075217666745358 7.353966855882356 7.6019821858718375
P 11.761363847317847 7.283743523089243 9.390760799819544
P 12.563332904914168 10.695468671642507 8.940518976196739
P 11.26031550198196 10.172132117267266 7.235290808953264
P 10.951409194034527 7.964531809734293 7.437930761878885
P 11.182685774345998 14.267140068584867 10.571863062698014
P 11.784704748102836 12.462201325660399 11.738399390610715
P 11.1275355755778 10.637710470698794 10.675355479291843
P 9.36682912174289 11.189935284724971 7.585695713986808
P 9.934335479888247 13.579852417947416 12.281857321513279
P 9.248706211557451 11.347276921511892 9.739998533801787
P 9.126755548330683 13.516096451138488 10.213245123119307
P 8.014381576369965 9.888948535864335 13.01327993097193
P 7.633057014437765 8.20041477662039 11.659684155902626
P 7.648179387968903 7.880562975725415 13.83947919944656
P 6.0015459596837 9.005578304152856 12.899355309819304
