17
Energy = -89.26231248 eV
P 11.681631910236192 12.451681199861612 6.661894310463201
P 11.678337428926651 10.206201431311342 6.301947255742631
P 9.841160414575777 11.237041852376692 7.0389071736223165
P 12.867890614501897 12.15665355434158 8.547992934936719
P 11.147847110245946 12.545882853590493 9.850468247031113
P 12.86441538630562 9.919682395352476 8.185838534692625
P 9.772330520663461 10.906097115505379 9.254628153221848
P 11.166654093190388 9.179585352288427 9.362130941563795
P 12.179782357980788 9.524671170361376 11.29394247881048
P 8.486318491093353 11.916021173559837 11.992418068594741
P 12.03133616790203 11.754909622357502 11.719676803082114
P 7.489365797856102 10.148630171921104 12.746632377127515
P 10.90245009734948 8.552288145878855 12.82416351749782
P 10.302389709935202 11.997110270178554 13.155375539319474
P 8.679366341953608 8.295056354167818 12.47494205669506
P 10.64638993663344 10.14496854386671 14.346751617980704
P 8.525402264724239 9.32658743715426 14.50535863369216
