17
Energy = -88.60086398 eV
P 11.821557368155677 9.602696501807712 10.863621899492331
P 10.478269017252101 10.817059595342004 7.3289707987962975
P 10.541800409476917 11.403445605097653 11.092337366131447
P 10.755954858434988 6.22434538103326 10.969169825632084
P 10.558059717422045 9.872055472739827 12.681775890284127
P 11.055746624029583 7.930678535274449 9.543305475417444
P 9.90296408548908 11.08737059122027 5.207619906288193
P 9.610013087827372 9.11676509508603 6.185000980454777
P 8.807891256927235 11.967397940545485 8.252732293942291
P 8.91266876951405 7.890333084302297 8.995809522588868
P 8.619969083592725 6.0087218630895345 10.195715838942794
P 8.437066017231025 11.262107975153343 10.340606808101425
P 9.01218676475288 6.652892758626194 12.275581839835022
P 8.544800971139445 8.822547575027631 12.407625054227735
P 7.743676327819416 9.165240886417358 10.380039334019875
P 7.819751393631069 10.280739578115135 5.531612935108447
P 7.003928014784794 11.24886842702165 7.291385966668253
