17
Energy = -89.11963208 eV
P 8.42377670583578 8.23774849511188 12.478323750525453
P 10.185227717283613 6.993593785375359 13.241991216971867
P 10.922805697298903 6.684821924223903 11.116685949569998
P 9.032332536194694 7.6207861171423605 10.370680828365417
P 10.146779387383768 9.172519088797987 13.469243113879104
P 12.439551385860511 8.282276184578665 10.885251037155387
P 13.438865401265975 11.134358049902414 10.03283742875521
P 10.122949615037133 10.920819822569129 10.605489374802339
P 9.722295597035504 9.351838466064564 9.105080260573155
P 11.620027177377183 10.060409213854118 11.981237196668118
P 11.739208234732626 8.493009541354795 8.790292754440763
P 12.679364394465495 10.437552646691126 8.114451040532849
P 11.585504455694275 12.01038698738821 9.26705699137932
P 9.088068440216391 14.619185281160412 11.165124645159846
P 11.097778455682146 15.502323648441829 10.989548479506418
P 9.860008222171096 15.223571808828586 9.193582135805606
P 9.3127689845617 16.757180476657545 10.679743078587284
