17
Energy = -88.81495658 eV
P 12.278265274750611 8.056382459406116 12.814890025935167
P 12.011706323059942 10.19358023817862 12.322873293298079
P 10.294753104141728 8.817896960258565 12.236395096032934
P 11.89699424628191 8.657077195673653 10.73212864089599
P 7.441711449582278 11.47512336913115 9.38662544332747
P 7.495176630524216 11.967361357732994 7.173826956039807
P 9.735451300736734 9.571929992919918 8.078810260210789
P 5.694117605240378 11.04666077769381 8.107482575536908
P 8.005498275276267 9.227163220274123 9.422823907723842
P 8.697687164666695 10.308443777524765 6.269431716059883
P 10.314627478723386 6.429953701967085 9.032945331578155
P 10.241966674745633 7.620343615047893 7.186379153569337
P 8.320489152223043 6.599793306154447 9.795132845086247
P 6.27931799747281 8.789059736326621 8.127547304494975
P 7.091415126945533 8.799195823814191 6.066764708432108
P 7.052334713601636 6.345699770403594 8.108547548715087
P 8.293882275298365 6.91003344319445 6.299430484533786
