17
Energy = -89.11537007 eV
P 8.598913623606574 9.007304619605712 9.317171136246857
P 11.954458578496048 8.592945021627258 8.19231407910505
P 9.995532414657067 9.43428625868124 7.6168761578671935
P 7.389347212605324 11.220656812841186 8.116334396951013
P 11.359371324349873 6.657922311096466 9.218900361863355
P 8.943902690047594 12.748943928039004 8.113478239657647
P 9.531971838683223 7.179502693358321 10.309459611608473
P 10.799971877791375 11.4524817360655 8.053688951019355
P 12.362207294112766 9.49423607455676 10.199772778996339
P 7.915846806950335 12.185010724491239 10.015665602772858
P 9.122474071991132 10.479559227752908 10.883573277069805
P 11.444315111095074 7.6877543518524885 11.259020752641646
P 11.053949393632507 11.331954631510163 10.256642209984735
P 12.13527674316934 11.65343824375756 14.544477522471396
P 11.191546403890111 13.497294529561945 13.801110884506961
P 12.268934019716136 13.508817543154032 15.721717621241933
P 13.383727841831607 13.319638538673697 13.831543662621158
