17
Energy = -89.14162376 eV
P 12.842119355050784 6.527888437341314 12.146970952140688
P 13.990755327788102 5.663605653338427 10.477012749137884
P 12.109231837882733 6.739895512481336 10.080092642034614
P 13.892773164384598 7.850221250635635 10.734527233072221
P 8.581359079314309 12.466917121738787 12.468513952649225
P 10.483809522282026 9.873937448771876 12.720484331171333
P 8.38393851532541 10.29247532293608 11.950559806325643
P 10.497050179570882 11.997901488552385 13.569960271266753
P 11.899398660946256 11.410101589169692 11.985755607145101
P 11.181823821968656 12.207182055515558 10.032731375735159
P 8.26409440247705 10.288413373630933 9.696088040067275
P 10.384374545644262 10.336797011342238 9.137557769762086
P 8.065449340949632 10.723741434623184 6.6392761823735835
P 7.723909277589205 12.440457686795385 9.473224513062313
P 9.364026917848303 13.395857184507124 10.629395745850864
P 10.125558488600472 11.285196900506323 7.121503528874838
P 8.457127077537956 12.74621004327436 7.383144814491057
