17
Energy = -89.2803204 eV
P 15.68040829137877 9.425305137370604 10.677500978909292
P 15.990446137214464 11.54295743693275 11.451735386033912
P 15.134203341577878 9.962407301832167 12.772900472875435
P 13.89902411557228 10.12954106102432 9.504537467705335
P 12.456887846505007 9.232265858054006 10.895703608245627
P 14.206420928395472 12.23620860432789 10.270079913490429
P 12.92880271080674 10.324410314190771 12.776752057121458
P 12.926453187576046 12.39840058759342 12.033851219980534
P 10.812384649265196 12.404872111808075 10.980561667843942
P 9.79523117998524 11.532901698453369 12.773000881365629
P 10.715339176486063 10.303443208547424 10.0550042239108
P 7.98499789695669 12.727386472949693 13.195376222923407
P 8.727686603895782 12.880757266215754 9.719364530351065
P 9.012254255293639 9.884868309219295 11.491727638822715
P 7.573891906649834 13.899838834117899 11.326262998609634
P 7.624183984433742 11.008847483456279 10.171335938583448
P 6.419706342153149 11.993910868052748 11.792627347373335
