17
Energy = -88.02300274 eV
P 3.4887468151694594 11.946067013138748 8.838993325672748
P 4.085662273091061 9.84253325871231 9.118758584820906
P 5.550199184953059 11.312254006106924 8.389186726481798
P 7.585539327259187 6.924139803108346 9.779125200244785
P 8.856848783925972 8.042308792734334 8.368583746041349
P 7.602469036142909 4.773193525369434 8.996752226711104
P 10.269769571543804 9.268099743768257 5.7407647392464085
P 7.244701878337893 7.953313937046958 6.8655128854731275
P 10.770183204712941 7.124202826173969 5.692296997129844
P 3.8944144956556968 10.670952109897007 7.089075171814244
P 9.127914057784007 6.262962103231001 11.238102978148811
P 8.898377273343137 6.700609676550362 4.47912978053262
P 8.252439393457232 8.848337729187085 4.9730372355995405
P 8.920357765840784 4.841148903562269 7.2440767532578585
P 10.31783580103789 6.478217627861674 7.7823855272864275
P 9.120632832551154 4.311641773823031 10.544205003256609
P 7.4506769929434045 5.904468084372369 5.979793762906602
