17
Energy = -88.77562168 eV
P 8.089695677660384 11.42550494028195 5.979673972522491
P 8.994686935334146 8.373436434108408 6.914880894178314
P 7.21529577517917 9.679190401245492 7.014221129484873
P 9.897952117759196 11.746726686750158 7.255173563409806
P 6.998353002413553 12.575378359914046 7.6516717453422345
P 8.650882503766317 7.04070637583564 8.594146252877819
P 10.751039762866814 9.67871641478249 7.546818038151198
P 8.693774041199086 12.170940954484308 9.087992436264372
P 8.84033172829469 8.482650542130289 10.202554288840762
P 6.982072037943541 10.743316840190854 8.978228290102175
P 10.564980360534351 9.824401953595533 9.737579248437614
P 10.15789972221923 7.315567239237902 11.627526394327335
P 10.041064783030919 8.553990113969194 13.45915917573344
P 11.262255208001674 10.394219324648134 13.22761268256153
P 11.899719388809416 8.1829420322004 10.539216092799922
P 12.897657570069102 9.357128881194463 12.11805308132511
P 12.175651759172148 8.559951906556444 14.07902072176844
