18
Energy = -94.48977986 eV
P 9.513746864644201 11.498279105060481 15.009067257516403
P 8.626129351372517 9.533285269952035 15.510116352547186
P 10.791201162784748 9.716588292375311 15.125178319176216
P 11.735917893468931 13.248818962978522 13.420358155099404
P 12.758597116773492 15.41418845952865 11.86646697389046
P 9.357236882862157 9.933507233346011 13.471308168800384
P 10.761086462073477 14.527091163764686 11.896393102189515
P 12.405518593342194 16.538887274602867 9.912327222532122
P 12.910266321194849 11.865895510242066 12.415327786855428
P 11.459035504004904 14.970974487805902 8.636708485981691
P 14.048035744365045 13.921899766820195 10.753358941153467
P 13.680005451416543 15.074663459640757 8.817185803515642
P 10.769126726944226 13.338191718354976 10.035590068509428
P 12.97210586086845 7.589337739680335 12.057203268001617
P 12.695904508371527 12.282350580802788 10.246818890906562
P 11.607717576387447 6.119074602946083 11.146678746507295
P 11.501807300251878 8.237353611660993 10.55302473044057
P 13.226707412860968 7.009759494424888 9.947034460363655
