18
Energy = -94.47015682 eV
P 12.64156023231469 9.251848627589322 10.485772285381191
P 7.745225203788848 11.51813880187159 12.904347943542957
P 10.051556498145239 8.929044456333697 11.204023488932911
P 10.847999892157882 9.983964735217954 9.395681525423882
P 8.822334900053399 12.685456187950589 9.742272837985569
P 11.20688842143667 11.960420769091225 12.219482281406666
P 8.141121116500848 13.340470245585406 11.733355560510926
P 6.303950873828016 12.107715441381025 11.272277770589032
P 11.676540362392661 9.812764748555463 12.464381452298328
P 14.738228628233172 11.393477244731669 13.308550333449363
P 15.535442152526903 10.060799521298975 11.695655231062647
P 11.005189259712672 12.128293135473516 10.012521523890097
P 13.308679084096509 12.833994252957213 12.383860450040686
P 7.963575273110378 9.752033657626933 11.571523046842472
P 7.507825445163022 10.876783084549366 9.72589822087632
P 14.326675081230526 10.528320231272565 9.912375384940015
P 16.07958777435507 12.242233052480477 11.711138059385652
P 14.234947700953642 12.731569659521563 10.394210503441274
