18
Energy = -94.32651577 eV
P 6.383897669647163 11.756240805529309 10.44229231929776
P 7.678340537441307 13.427852588834254 9.548803227359931
P 7.876866647151719 12.737914088116272 7.390987224375608
P 7.067491662106765 9.874487884738071 9.483198465758834
P 7.821515510238181 10.400322977521991 11.506232433779779
P 8.057024632541733 10.550557798787647 7.580403570297023
P 9.804998524868013 12.871825947112516 9.81022575500977
P 9.889738918968595 11.718033055143565 7.847218653889512
P 9.440360972217842 11.885238089747519 11.729702989676053
P 11.704557692264911 9.52212169578307 9.32049221925545
P 12.892032428558952 10.549520458937288 10.845191401389158
P 11.325383555002018 10.867646501833843 12.456859425621072
P 10.389430137722686 8.168974492481254 10.524771269596055
P 13.102631970839186 7.80274477622687 8.865631145853035
P 11.022091064285167 8.624183490171427 12.581597833659009
P 13.227516744298825 8.84988626500442 12.261985223474245
P 11.787877493225777 6.4370048462069995 10.106253240945158
P 13.733312483651162 7.160512882853691 10.903222245792266
