18
Energy = -94.49455036 eV
P 10.895639407043392 5.363940955728595 10.913999006039163
P 12.838078855681132 5.977332466360052 10.728258939992374
P 9.887306652331635 8.551066898423821 11.07773587505413
P 9.657746366700298 6.786888871947463 9.740666694347237
P 12.067705570277852 9.223345417103898 10.798157070941409
P 12.866640826406163 7.7134442544498265 9.351939446641229
P 11.049427480969197 7.354366278020113 8.107316392060422
P 8.994388241349112 12.731260801779664 13.476225935535535
P 8.785895628521038 9.571087735854219 9.448811703467026
P 10.386384650321885 9.517173313774954 7.831601157307832
P 10.41217614268083 11.886892721494215 12.186191996339476
P 12.086614105633062 10.454084227594103 8.935352975435043
P 11.277293620773703 13.543242042761078 10.928848674391565
P 8.022537065785235 14.133413594564987 12.122038056101863
P 10.946120124377336 12.36314651096108 9.02251724972972
P 9.29391149274369 11.597778408753594 10.214865428808261
P 9.40394147207756 14.772371614357715 10.509500794826623
P 7.807794787738266 13.237583852744395 10.070807905092515
