18
Energy = -94.60637661 eV
P 11.215224221938687 7.305720354264877 9.579876188786287
P 8.735259565809942 6.264439694023143 8.39851219232154
P 7.824536074689118 10.794438102468689 11.58282356047421
P 10.726533681280136 6.629510176261537 7.505814139178359
P 9.068047885435467 8.954315465214485 11.532120820920282
P 7.458141334515416 6.4220530833010265 6.6441963715775225
P 11.167407091224463 9.760927849777273 11.379018969451476
P 11.804268360030827 9.416940081922801 9.25743818261873
P 6.75187732700126 9.020888054882484 8.97553931484222
P 8.954597873281672 8.268371496675144 9.386278768410481
P 5.765279325816103 7.644600713378539 7.617184115346774
P 10.863897209728954 11.945895298258739 11.337924424118903
P 9.888466303568649 9.910257764620553 8.198732199376707
P 8.867780398620829 12.406330742299525 10.464727671018192
P 10.350061382572877 8.622998633624347 6.468987711742878
P 8.266283549358196 8.272491911306968 5.6650410759189045
P 9.113660617929215 12.262762052899424 12.66978418314625
P 6.75042356391693 9.53253764611777 6.830560536618088
