19
Energy = -99.48252977 eV
P 9.990282328025314 5.8722246918525505 10.519321079988593
P 11.488450601462416 5.910068486277471 12.289752973208614
P 8.242879299433064 7.111586491510228 11.23957296493862
P 8.005762405961017 8.633006827117635 9.637615046064179
P 11.129900389955406 7.810542394859856 13.298883231205089
P 11.41312318996741 7.267736809392844 9.592905095321667
P 8.973576515268578 8.279930144539943 13.033801687209344
P 9.917902232124097 8.409457145562678 8.50854657292986
P 12.440441760938413 7.866376711994622 11.543045674264615
P 9.248372850817804 10.383705319940033 12.57013677111285
P 10.841097613505115 10.317933471098488 7.905598460360068
P 7.812422498057934 10.436227512501855 10.961718325102277
P 9.30459262690138 11.156092156179227 6.59702934027571
P 10.821587841752269 11.732076866251095 9.608183602978134
P 8.69973058717807 12.226755468397167 9.961512575699416
P 7.90789372981525 12.346446476143026 7.930382922767731
P 10.555364302341403 12.985192684852487 6.257715476348323
P 11.181845591767052 13.526088238527349 8.339582555389596
P 9.166651235153209 14.177496308479585 7.601015342717175
