19
Energy = -99.50847566 eV
P 12.698074120638317 12.742182315491382 12.347721340133628
P 12.961926271239559 11.063710180645563 13.70113073418734
P 10.863787859103843 13.815561465767338 13.121444086831104
P 11.386917759570101 11.900818424242043 10.789237077378376
P 9.599318691051707 13.49449844085907 11.272621957574724
P 12.625430156391534 10.355721813022829 9.604316750662436
P 11.807194217465781 8.723692561802423 10.888173312504435
P 10.925635238973578 10.332154580587483 13.869879340825328
P 8.458234150687039 11.921379748169324 12.276124293048918
P 10.262929680744223 10.259655741619918 11.765544087112607
P 11.278809188810442 10.34399803015633 7.835357463741059
P 9.670536309182634 12.184247461271132 14.158802548365623
P 9.235566434640319 10.631516250374375 8.62731357432741
P 10.488891472285422 7.503977441601545 9.540499955134239
P 11.339887646364248 8.16048295711185 7.585389100434775
P 8.672341603951399 8.71255567215104 9.641855276948096
P 8.29741430124673 9.835784489718733 6.727555029128557
P 9.49176326185383 7.984180536187182 6.335699390742926
P 7.776041434065933 7.874581687487223 7.752034479184621
