19
Energy = -99.40292423 eV
P 13.836603421266163 14.380766912358975 8.909587241382104
P 12.435895158116772 15.189344151093042 10.4355746944407
P 14.036255536073922 13.784402222193014 11.02887857000903
P 12.848836618944299 12.596817343884235 7.910042797846036
P 10.685847241921849 12.896014926695505 8.314146352816673
P 10.958309635364873 13.39473140848653 10.474732355945603
P 12.437568935418513 12.009793307165767 11.27956739622965
P 12.962045926611095 10.923758083376276 9.413942417064963
P 11.229329461876834 8.389035615706211 12.225025302128548
P 10.945426378101729 10.6606233702291 8.394297148880232
P 9.127214548481355 13.110814047336257 11.642233421707045
P 9.877044428117049 11.130257061719865 11.576498106082676
P 10.657507125255739 6.547381697903421 13.229518644075416
P 9.32682791837205 9.973484958093714 9.775540359747984
P 9.852825228351167 9.749119731633176 13.288821678884938
P 8.022683355061186 7.568357314877004 11.183113378095026
P 10.065876715982396 7.967466018100023 10.37135965159507
P 8.456211608018057 6.599641525218148 13.149625195948026
P 7.877278179305568 8.767777724570044 13.037082707761042
