19
Energy = -99.50809925 eV
P 11.086671125122557 6.996632929633842 12.483834594331473
P 9.35455282308703 8.326861716912008 12.930336433219336
P 11.26882062286012 8.72935734033579 13.882665554666087
P 11.871044708247092 7.714098119432279 10.484367246244986
P 9.720291470702739 10.179729273065014 11.416645631213404
P 10.10518136573588 8.793536801299766 9.703450620955765
P 11.655726312364656 10.531268858832528 12.34321758294278
P 13.164580257160132 9.354909585248324 11.179129676290591
P 12.6379077721253 14.976720372647518 14.710516602304127
P 13.309253757924065 10.277843289158609 9.18217047968236
P 11.504095161738396 16.80589921175711 15.179329992103469
P 9.847967205473243 12.393449523963653 10.385151118556582
P 11.274494724833108 9.918604131241333 8.204175104188863
P 10.510852513037019 15.117763232895914 14.171653258795207
P 12.000217226113982 16.315779286553497 13.088671149537024
P 13.306602758665898 12.44258934379156 9.71267488696978
P 10.284586107841296 11.919510737104064 8.258631505845987
P 12.043731736518652 13.219276371165888 8.100662727373818
P 11.80065657442571 12.733404098938506 11.329950058755237
