19
Energy = -99.24153723 eV
P 12.040534146024237 8.855822524696125 7.020769027715312
P 12.292198381005257 8.730874653200022 10.634306276135655
P 11.238360377043128 7.954941584195293 8.812594711895835
P 10.438075995434268 8.663975333793967 11.861206810465209
P 12.532456217577801 10.860245463582796 10.026448529615529
P 10.372285597434033 9.69373216329773 6.0529356907014
P 9.108133227557504 8.567821560259379 9.0420949191105
P 10.835316495953856 9.313977167419637 13.889432618576828
P 8.628820781947521 9.657979304852752 7.223123475005546
P 10.42232251048502 11.568864360425604 9.631513749075157
P 9.124053641260256 10.070935876818767 10.705393298886474
P 13.047643028094832 11.660231149318692 12.027980617604904
P 11.297287889227325 11.311639372705129 13.34433753839538
P 12.498042486881559 13.698942044833434 11.469868554904608
P 10.322120659027917 13.447238303515254 10.898069608860213
P 9.53441748427066 12.529777220913402 12.71418247691421
P 11.844429251899788 12.792305481813422 14.936773491663894
P 12.277970053091671 14.508606477708337 13.563465247531669
P 10.171403263569916 14.13796144443666 14.171374844727614
