19
Energy = -99.12193811 eV
P 10.166077959302006 12.238845621607604 12.785446385560299
P 11.564688632741186 12.054151589271873 9.521148066255472
P 7.461788249546524 11.257425912944539 14.58617591042236
P 7.420116824575659 11.55313229080485 11.200643502118988
P 12.02920203869985 10.304356118181733 10.780476785535535
P 8.34191594885015 9.427469886730975 13.872777882332743
P 9.670722524360345 11.569680932110526 8.390850128203768
P 7.9628025244042355 12.775972835404135 13.056457740633832
P 8.4521577563956 12.886016603638026 9.803232329640368
P 9.09603131021992 9.521333804871867 8.956575020977224
P 10.384010760101969 13.395141167931957 10.940197752711649
P 9.090394925250585 10.383878627592045 12.130190759527473
P 11.165564328465923 6.68639906471232 8.1471941383814
P 10.355065775964034 8.582237870449855 7.351029834235174
P 10.227090770252834 9.011850465339204 10.797399206810475
P 13.012562501557285 7.172027718726975 9.304012433975902
P 12.349336696124425 9.557972673805597 7.201304468955122
P 13.306048281924182 9.359853999496885 9.19823505143968
P 13.025778968148886 7.343609593263904 7.058009379168282
