19
Energy = -99.05014523 eV
P 14.380143154241187 9.803884908258157 10.308462133412174
P 14.01538458467295 9.818516093344277 8.28949378582027
P 12.625156158457665 9.317446448129079 11.578430062676558
P 11.938113513604067 9.263610337551183 7.7539263343515765
P 10.829513990900384 10.858406848856756 8.815841591630958
P 11.64839624791545 7.380055322984412 10.927842218141688
P 11.277378902475034 10.972957318096551 10.997403429024674
P 11.745132135727266 7.23666211456024 8.725554233968904
P 9.619806193103376 13.743566482507175 11.334020744306695
P 9.741415256746187 9.91831783298874 12.219301214778135
P 9.693908781634766 6.900226291240795 8.076894617425513
P 8.217005534064135 12.738545776770549 12.746470798834133
P 7.455544755167885 14.26539213649792 11.30920417716232
P 8.799820981444842 10.030761797343475 8.457640618155985
P 7.445768363933667 11.290933981875032 9.71192805187174
P 9.494711672730139 7.854366126976232 11.405861529088877
P 7.739222003618868 10.765394644496872 11.86845202163916
P 8.461097232545402 8.060607556027822 9.447292001007048
P 8.384039713657874 13.291907158135299 9.53753961334489
