19
Energy = -99.15132737 eV
P 5.913982372111079 11.501828134538238 11.786326196719173
P 8.965333839448459 12.31267707681047 13.419066096529797
P 8.311667123252619 13.88069376224056 12.056584740638094
P 7.189733243840202 12.767073800322779 10.489775676612203
P 7.666634843888522 10.649022723210447 12.916043175150952
P 10.380531794315925 14.350864237925956 11.162060094408695
P 7.598818871246327 10.580703641440284 10.690108618863315
P 10.444481036664499 12.809553413726368 9.563568342958561
P 11.258995430806843 12.319779856848704 11.533378656214499
P 12.647064030292054 13.019264303413433 9.888545028967792
P 10.786619123992027 9.312887638882112 10.368306559118137
P 12.628340812505579 9.293985570590925 11.63007609583764
P 10.766221205615604 7.046869152736698 10.27551280785734
P 11.591819675330987 9.73518690594414 8.357286522257466
P 12.620727208835842 7.024928903127511 11.571468629043071
P 13.287518888253537 11.175392892333456 8.780070890971716
P 14.229756343426827 9.647381888833525 10.154779872204896
P 12.743693913632598 6.5774271675748865 9.393937257055162
P 13.43765170856353 8.464070395522866 8.432696204614539
