19
Energy = -99.56174232 eV
P 11.520650528615539 10.6028563634846 7.080972985911901
P 8.609184950478998 9.590258371967684 9.11793318286196
P 13.735938563216868 9.988331195627548 6.74423592632697
P 11.399883744249328 8.505627665246893 7.8160308053314775
P 12.45862783733856 11.770077756388924 8.703166000190468
P 9.215842424385778 11.697280771615226 9.594545464940365
P 8.030932322150111 10.528985148054298 11.06026975052777
P 10.311278248669074 8.29779764931963 9.753154978305743
P 11.194300577256563 11.628635554855984 10.562275198053497
P 11.350080323154879 9.546200343768929 11.255922982276461
P 14.202467283035773 10.413713026792314 8.904919012843054
P 9.470859372786583 9.40909227137855 12.376689434702902
P 13.548586229498403 8.370962012314603 8.29532187861497
P 11.475129581917235 13.643260752567334 13.290116816494816
P 9.41204337392632 14.096106870112369 14.008011054573668
P 9.59546507697762 10.72191671451484 14.253600582839864
P 8.209465890718024 12.312370538865874 13.737152815789116
P 11.587240366660176 11.702826684938467 14.35413558008487
P 11.043678105669022 13.545355108890943 15.463200350034054
