19
Energy = -99.16049749 eV
P 14.729001567360035 10.681269903272538 12.246900871482099
P 12.704592427396745 10.034407684455987 12.839597010536034
P 11.645679209821594 12.001493628961779 13.026783869313766
P 12.100844792114827 8.92086056861145 10.99916907574187
P 15.317474934688828 9.423240083994916 10.494333617083583
P 14.559061371177297 11.489382777660477 10.164855371546464
P 9.758293980874221 11.037179420355507 12.560394856592952
P 10.08103457692917 9.85080452506046 10.697789190590994
P 13.405024844243746 9.76835363161485 9.400598418571567
P 12.042649380602393 13.6051607938853 11.438877802725045
P 8.552472472605833 8.379506080170346 11.336609289525908
P 11.425466459599072 12.857214803828109 9.496118104517773
P 9.276183625663656 10.734967310275454 8.73354576985273
P 8.553424643957314 12.678619689498657 11.69479435406595
P 10.035885178813087 14.076667363218602 10.62195822387299
P 8.310511177565214 9.06558990155391 7.854834527359001
P 7.232722819730376 8.206588592508096 9.548695946503065
P 6.831673118817467 9.79630899536508 11.070461386301835
P 7.629977789539165 11.584358617209439 9.965656685315949
