19
Energy = -99.23248432 eV
P 11.066217159078281 12.14082973004463 6.118892187473875
P 11.946659971074455 9.874742269240723 8.25073766515888
P 12.246151092187944 12.02932870024622 8.062287237133274
P 9.520724569111483 10.57343913543975 6.286258029272646
P 12.037294660572467 9.736004782011682 10.485290020057741
P 10.644626382694067 8.018824825200275 10.32900083885638
P 9.806866685743017 9.280386353626096 8.217946414634184
P 9.173726067311359 12.467372340068005 7.321181258786524
P 10.512311873636262 12.801964819362686 9.207648798400388
P 10.78454813576328 11.550725039764174 11.048734304442318
P 8.680185184597404 5.697703885909982 9.230569517449993
P 9.481352938645422 8.670105313560269 12.05626960188157
P 8.173011248467231 10.33888596333837 9.349412734969244
P 8.760669175220054 10.689337766439065 11.44163984591791
P 7.170846297391111 7.109914526815829 8.417821204282312
P 6.500871137842023 5.324223448618327 9.56195190165439
P 7.845465050886903 5.733081732745815 11.295825513482129
P 6.727917882234284 8.706461708258379 9.882644766639421
P 7.430269144919097 7.8344598779450045 11.83230010928778
