20
Energy = -102.49371175 eV
P 9.604587681834998 8.79236069150212 5.319380312366145
P 8.899744329409794 6.424947031915495 7.520196454467154
P 11.516758001179275 8.0721031200842 6.3264789313513505
P 7.806760122557281 8.144502798464071 6.554373381921852
P 11.173187127021903 10.256450271449108 6.104566267343177
P 11.108053976573858 11.345629735920614 7.942957979976333
P 8.315913105301881 10.694121011334728 9.409584047690071
P 6.968723261447195 9.38156940374229 8.275250849840583
P 8.475268227368081 6.303380044220035 9.756637747032235
P 10.348591266173951 7.88795632862735 8.203399226241407
P 7.125772728921789 10.664500628595931 11.239400567910483
P 8.554226428326073 12.186688677749082 12.049457117769077
P 10.4103865457829 10.088263850369524 9.618404608780367
P 6.898679865210729 7.8338853445976495 9.938847268771502
P 8.830208359744406 12.893717050430542 9.924024395466919
P 10.510344624040405 11.961450594088136 10.993440775391432
P 10.726195239650968 6.775365469205461 10.086589327868339
P 7.484325376094537 8.61155770480754 12.04555393862385
P 11.04149700442754 8.608671555756073 11.241502609183092
P 9.497638344483542 8.369740302691326 12.746815807555903
