20
Energy = -106.01549773 eV
P 10.80113753794423 10.067940085181549 16.63469246002714
P 10.291764932505664 12.286344236005714 16.77920900139048
P 12.751239237326208 10.586938288164648 15.660445912723034
P 9.303231993493604 10.983455965528165 15.253315618284594
P 12.24451094074431 12.795198655923084 15.80425863338264
P 12.102705400943647 9.990116886352602 13.643353218728254
P 10.377945848169016 11.35513682379407 13.340328424989968
P 11.32920211578138 13.288470230735694 13.863230009405568
P 13.838406378258059 11.028038781087817 12.752546246339367
P 13.2744669758468 13.248436754319028 12.828204776482636
P 10.917029591641782 10.369480060057851 6.503549479647698
P 10.194317164367137 12.530228711470631 6.609664881279896
P 12.833586539254854 10.972447413792665 7.495825278041583
P 9.371315908106403 10.983102552055673 7.997657984423242
P 12.112054577372772 13.12127057714489 7.607581771604401
P 12.293855662848548 10.101718139508503 9.44398262879879
P 10.456071479083061 11.249163149345275 9.9210076493403
P 11.205820873953396 13.31186729138741 9.606806182033099
P 13.906323075913505 11.176242162227576 10.492238564775175
P 13.196740552430024 13.35613002190189 10.563828064286866
