20
Energy = -101.91906234 eV
P 9.831776586510934 8.826415154324428 5.737909065807732
P 10.52037394972377 8.535477937912978 7.805185346392776
P 7.774662555605475 8.8341407397839 5.63879293954368
P 10.210939128915518 12.212409590248809 7.266517219251947
P 10.856887763463968 13.559749981452631 8.692520346310758
P 8.764858850186663 7.5093101282908465 8.837284472039183
P 9.896070260240815 10.49724070082041 8.635193019799997
P 9.298944100817783 5.6694287226268605 9.732917399232806
P 7.031568482048868 8.481367003646193 7.650313350342201
P 11.288430271827165 12.335985178410288 10.519166524680942
P 9.397664978853557 12.233215444317016 11.669526801566887
P 7.711738371382164 8.697183725007456 10.357433404192365
P 10.084601126031208 6.677149642150736 11.520401611035949
P 9.137058057631764 8.69631371135592 12.044784314336628
P 7.677334294420017 10.341967949290853 8.809098650529679
P 10.891243501763352 13.791511678528812 12.196888688909507
P 11.05079051733993 8.62244997676585 10.960334914699454
P 10.652416877748589 11.969080273297871 13.464305101723792
P 12.644874658628902 8.97284152638023 12.438137460914978
P 12.565188699486127 10.824183968014129 13.31071240131461
