20
Energy = -102.4494937 eV
P 8.122607299650479 7.87190007500795 4.774518750883639
P 10.689170478819648 9.611182089489164 5.486493051434481
P 8.92013650755947 6.046669282353155 5.857678909218024
P 8.490020310741127 9.915970917569622 5.45957486226417
P 6.749267464148228 6.673406596511994 6.050391105054157
P 11.003157716775586 8.769054661032298 7.361585028030918
P 9.36041992888483 7.10570604790258 7.740415469663028
P 7.96601745247942 10.620630831544284 7.465430674327728
P 9.68047411288237 9.715946774208204 8.994699806713657
P 7.162137123908365 7.204878307859576 8.193425031469395
P 6.4259139620665255 9.30793065735714 8.358518440142646
P 10.249270036923939 6.106235758706511 9.553199905336458
P 7.688190967812514 9.670448742903709 10.214789040587256
P 10.661962905991643 8.104468495473641 10.4826307242886
P 8.064916610193556 11.909608581838068 10.603416634917059
P 10.257071058446728 11.516347132178863 10.248475455821888
P 8.699052783699353 7.238701769412319 10.737645147559597
P 9.300098632961875 11.069265803711914 12.21048086501144
P 7.58358185926061 9.320661960614295 12.461177278596422
P 8.019978285779517 7.314431013310498 12.83889931766538
