20
Energy = -104.49847406 eV
P 8.56781211097812 11.362561178759282 8.517735840309989
P 8.59102982397639 10.067890437821347 6.676805951011356
P 6.401093228190093 9.894499615961234 7.265032976722187
P 10.28490985139371 12.42365766003017 11.274821419676277
P 10.574650473905956 10.755963382501841 9.499983716927096
P 11.182620865803479 9.42157494247626 7.782417710488072
P 6.7696608001336545 10.274972226697097 9.437199374816284
P 9.53517015162252 8.099173440997486 7.18697993480521
P 11.799518212268913 11.716076394767027 12.682528485895068
P 12.978899283195664 10.897215498496164 9.472935681469918
P 9.831167294572488 10.697263290992812 12.605629208873937
P 5.602155957065726 7.820417420816808 7.215231033305354
P 10.12542643915394 9.157594066405949 10.931462019070702
P 12.848849701844475 8.72020282649239 9.057425097957875
P 7.307010256625471 8.313866207392408 10.27992464034161
P 5.513698727070777 7.2373040100201385 9.35909167008003
P 13.260972261078606 10.320643932142595 11.580054750203217
P 8.714973279275695 7.1419280444286475 9.014695378046147
P 6.948653254243407 6.204105056153209 7.961288934347368
P 12.154202475020776 8.385689430523886 11.251937483222791
