20
Energy = -106.49840048 eV
P 7.462775541124608 9.625396336256555 6.485180402986085
P 9.48787483356826 8.888718920556522 7.147496335255749
P 10.219497014549168 11.00533030527169 7.273006634561382
P 8.094274093057255 11.771567792380061 6.992593617673789
P 6.668509903895786 10.6525034046541 8.261920185044078
P 9.058456452228896 8.343614056254976 9.23771633818387
P 11.082157411058708 9.009050098893585 9.870367587330643
P 10.934546081339748 11.195657658046272 9.41147857318929
P 7.735762163341934 9.948188153694172 10.080050169852429
P 9.065757002767421 11.708119501787488 10.442626300824552
P 12.591607092495435 12.839334477708109 11.83248125236288
P 13.68806978376058 10.9150257623597 11.518380496984726
P 9.5179352122429 10.959154450713422 12.468782173409727
P 14.054972002010334 13.443003831373764 13.438225482515406
P 10.682900081507935 9.010184802653802 12.043407743054955
P 15.179462060221981 11.490200218747722 13.10389999246246
P 11.024564537798842 12.373087780695842 13.307529696980755
P 12.723423492605708 9.452245283152648 12.852770017345323
P 11.984004563009803 10.756738093855775 14.475796090128181
P 13.909303503800011 11.778731897329553 14.922143736239647
