20
Energy = -104.74083345 eV
P 12.815085197334206 10.040515717263274 6.992698165544378
P 12.31705225773363 11.213175671754517 8.845454085222773
P 13.856452477905338 10.367327036085587 10.198223647065667
P 14.10784832371001 8.341004508088705 7.705967732138805
P 13.761386416753995 8.138303066043383 9.907735778783865
P 12.988083299049844 10.981084474283945 12.203192138931364
P 12.161203205154639 7.88546533483357 6.783815803977175
P 11.687929842340838 12.577342969348168 11.35163732968609
P 10.396421573599891 11.400788769825294 9.988534166664996
P 11.613704996688368 7.857914489308725 10.17901884051719
P 10.504273381178258 10.866277338665107 14.2463100134561
P 11.48271970916174 9.467267310544099 12.75030510135727
P 10.64649231206127 7.825399631873439 8.378437394913746
P 9.77742227475281 9.754566506451841 11.345886484464055
P 10.319851585889552 12.774118248698214 13.108439907681618
P 8.782458298520584 11.183409082864962 12.828787038513575
P 6.185640558974202 13.461983883464994 10.899998450713406
P 6.371139975035064 11.54129868146243 9.842841148735245
P 5.227174652680832 11.660740683008168 11.720685148739905
P 4.433390805075576 12.589660013283742 9.88679803480467
