21
Energy = -108.96125369 eV
P 12.182024108663004 7.138143114522641 8.237712275450646
P 12.945489063172952 9.229501827897487 8.78027193428453
P 10.50982000019238 7.379453304815805 6.808213467688947
P 11.196958175389478 10.456638179721512 8.13701360271468
P 10.602052158036372 9.573398133826975 6.260753836382509
P 13.378720561203078 11.465264700911327 11.528289722683592
P 11.813194509951028 13.002120226633282 11.671322122869864
P 11.995123904659177 9.18647507808125 10.756546360077248
P 10.10322511182649 7.220319341846596 8.955932652374269
P 13.805863812649454 13.4509720980091 12.505475366065857
P 8.807542858922316 10.805267940712676 6.829449732193654
P 12.501401176086087 11.957156403824381 13.479838841957658
P 9.922468608256489 9.406224466440293 9.751547543756779
P 7.87867231469358 9.50016510562318 8.170118059949097
P 8.818741598690854 11.639989590450972 10.156623338780193
P 8.59149890131447 8.45448380545678 11.499229234165854
P 8.85631574231449 9.896403719732108 13.159786017492786
P 8.447729169977299 11.938580459321123 12.283659788882707
P 6.851386556851327 10.903610747249205 9.59128361796828
P 6.5657990456993 9.254277869532105 11.093052563251064
P 6.736077829560626 10.651659093502024 12.85398512912019
