21
Energy = -109.87080723 eV
P 12.798806574351692 12.525519698640354 14.425844607470024
P 13.984650574999675 12.659697726373805 12.4717449828947
P 12.579256069024167 10.287331352549733 14.13716965853932
P 14.017863268033722 10.396903851139152 12.431744569551293
P 11.899833218298062 13.376940866417963 12.609306813316456
P 10.57847584401088 10.165719997910584 13.205354951993115
P 12.86226243329697 9.575633882768194 10.692650573132006
P 10.435843548926105 11.917938818203515 11.79385897190204
P 11.48367551069182 11.15185286761066 9.961704021311984
P 11.180386529694601 8.5041474512169 11.822203703363227
P 10.06787569153342 9.386628960288288 10.106523802412886
P 7.895965930112852 9.34739884766756 10.658933127354583
P 10.229218261599105 8.042769298817772 8.35520844229936
P 7.993297789548571 7.194558105119178 10.861419203390017
P 9.069491564185027 6.378237609349683 9.204533118407424
P 9.3270218265249 12.412741388222296 7.768662861405363
P 9.444985584493761 10.754909948612818 6.293596967309103
P 7.066530578646248 9.668042624289553 8.625638993109066
P 8.579510520470404 8.892774009886873 7.146899070107484
P 7.272861426212432 11.861870342248466 8.439234867934758
P 7.708155822032966 12.146819516959892 6.272755562263329
