21
Energy = -109.63706944 eV
P 10.848541627212656 12.20884317916872 8.631763926869837
P 11.48961721385395 7.591564864737627 8.8062028491881
P 11.521527868619419 10.868916392965588 10.262450618896747
P 12.844446059197768 9.220164799018114 9.670298777125232
P 11.59195646832791 5.977958595206046 10.355495016884284
P 13.008636159622913 6.590934912026123 11.923766265402755
P 9.304814365212907 11.212610524979334 7.3936357408434965
P 9.613151403284318 13.172225665096434 10.185998719025887
P 12.955027117714023 8.84900651060979 11.86223783299433
P 9.473406192050717 8.483423382003489 8.95866174440291
P 8.390901972838176 13.236028958655455 6.849288970868389
P 10.746844474882284 6.54640198581265 12.315688542836225
P 8.271760088585257 14.311527727355122 8.816228895278874
P 7.551917490378991 10.875028004021447 8.740264391787191
P 9.664524195157274 9.670263422851553 10.844634275568243
P 10.827894503183286 8.786618069895857 12.585331106938547
P 8.121814732457665 6.907057468513137 9.943059020443279
P 6.651469956204546 12.892516341904157 8.218591658251265
P 8.245085913886989 11.486355560907848 10.741267649408542
P 6.33748259841296 8.157203597392819 10.149506599535007
P 7.707996538852295 8.155312653303193 11.736119071747627
