21
Energy = -109.71670043 eV
P 8.158091285698061 13.220076542270697 7.211593115726013
P 10.396183169889486 13.31672978120707 7.003151901964722
P 10.482554357987508 14.639688361376587 8.902879010621037
P 9.404513597304845 11.466095447463589 7.606382591581443
P 9.585725681604465 13.43089881991737 10.469067228026312
P 7.454829623595053 10.928121072024966 10.446672534904538
P 9.64772190250392 11.314336219685043 9.814803229734961
P 7.362828497200794 11.413563990522807 12.606034430127913
P 8.231394750905874 14.499676197067371 9.136885609786528
P 7.3825867685873945 9.287633282922858 11.938685661804657
P 11.872533328582806 11.147948147913079 10.760734153986762
P 8.991015345096223 10.042036293592348 13.294883187159702
P 10.82656577085196 8.307217192642804 9.021849825162338
P 10.041359064707615 7.412673355251015 10.911684754958342
P 12.631683263993665 9.422302389827012 9.612425187090729
P 11.179087400476735 10.264392935239941 12.719645104822039
P 12.000178370275227 6.428618654841407 8.595043103289461
P 11.436887005189563 8.071727577466088 12.489678637935619
P 11.189529497361939 5.516504900914994 10.519653683099731
P 13.323770653426562 8.246934124046954 11.360679705539905
P 13.301093631709676 6.222024487865665 10.393285458244241
