21
Energy = -110.13268526 eV
P 10.284611917513269 7.186494726604595 5.89340226217868
P 12.136266905093086 8.070594492522279 6.756886199832698
P 9.705654260980019 9.583894745488495 8.939900571891009
P 11.138133788456818 12.684173210828343 7.759178278755164
P 12.060257852140555 5.898827502730982 6.297116450189068
P 10.014649245412764 10.986188563859681 7.027207058834315
P 8.880074958771761 6.63560372837173 7.511770764103398
P 12.265330806796696 6.578639806578825 8.405053704110555
P 7.947223792111632 8.596239880710941 7.970078439088899
P 8.94048885588344 12.842136052996427 7.272507523221643
P 6.685332637416788 7.690297413607814 9.538835018376794
P 9.275335521264484 11.162032581982483 10.459381723443393
P 10.263098910807868 6.210688780375501 9.257826489118779
P 5.494585762296368 9.387181745637935 10.299274198582642
P 10.635854341155936 12.821503044815143 10.044826564024138
P 8.451854387268893 12.958518227169176 9.553327398059047
P 8.074928721589071 7.222447447323494 11.24664708067264
P 10.056608532957501 7.947831590590148 10.591461608519012
P 5.209505802249599 8.768593101994712 12.419987934082348
P 6.561813257617212 10.467697261712685 11.92584161113029
P 7.402062046213215 8.614912930164945 12.818758483578923
