21
Energy = -108.86271846 eV
P 12.104250195574846 11.820039409231562 7.566428481804981
P 10.410519593458858 12.195008999662445 6.21264218140916
P 11.300828393052099 15.807253332580958 10.612795686086189
P 11.945387306341116 10.71197695768905 5.670161081230962
P 10.704200737210217 14.4377717115259 12.099407887625079
P 10.538797826518984 10.292223139329803 7.3102309352790655
P 12.498901103951406 17.068344157821905 11.771686307087602
P 11.40467955689497 14.674723542162207 14.074395027620978
P 9.610749344689415 12.805701724725346 11.273037209530269
P 12.54250102460552 16.412471994460912 13.799728715567968
P 13.37271256229237 7.9995371441446705 10.41857414987584
P 12.098350044757943 10.59819130131524 11.721073234114346
P 14.060288544573616 9.562974085999876 11.839681718107228
P 10.933805943642161 8.83442904436001 11.126460464552023
P 9.298683772581306 11.473971141811036 12.994795266064491
P 8.841404699128582 9.620505817799128 11.809914940483226
P 11.3410394876776 10.976153887818155 13.757868185036463
P 13.55904439601551 7.446000740406828 12.442597846283538
P 11.176246889709581 7.533685478657916 12.92071646196831
P 8.95148994682978 8.315901618377461 13.53271962796888
P 10.838032060197248 8.94504819982288 14.57699802200718
