21
Energy = -110.22518188 eV
P 9.891713224015982 11.356942427034852 17.230520524148286
P 8.846487926933682 10.557142858916247 15.434955062633746
P 9.386001263214103 14.765897855433353 7.54704911658614
P 10.36821672855661 14.407730614599908 9.544851581982646
P 10.11233986584029 9.218315025839708 16.682229468501923
P 10.032064229124376 11.369585730626932 13.769689396596414
P 11.181467926389576 16.053149190881896 7.350445654777039
P 11.881362708304625 10.565110947387648 16.607784424370927
P 10.418467524276684 9.48365090221677 12.604792004905445
P 10.108002121240093 12.72794721370507 8.107468618077807
P 12.133581591910671 11.33345529921899 14.561645610124758
P 12.446128238254866 14.813315924173299 8.654870358625768
P 10.62767953186353 10.455328780914357 10.634681505856761
P 12.279884225369956 12.849021301041727 7.539690169252451
P 12.55650454643948 9.425501318848756 13.439672767611642
P 12.34449300234361 11.80371171679946 11.01018586789729
P 11.55778604125689 8.706219922000269 9.643197768673845
P 13.415800930146533 11.747500805266279 9.089201544562622
P 13.775396830424667 10.361077404947489 11.858890446558691
P 13.223212826541653 9.601851494001094 8.480146453675061
P 13.643515258350403 8.62764980694402 10.43813819537902
