21
Energy = -109.01558944 eV
P 13.981774351075147 8.267281693555962 12.12895421324294
P 13.612905395944743 8.798605835936065 14.290449726792298
P 14.428685132069253 10.334898077608942 12.888284521502952
P 11.960205002945234 8.33076114255119 11.118142628938731
P 12.591116272457962 9.495542350964186 9.315765087525516
P 11.424591558542033 9.205020447438192 14.485574005635653
P 12.707639777305603 11.628680509121322 12.300988575545711
P 11.269019656208055 9.928235842995324 12.427141185112122
P 10.88804004986498 10.68659939162676 9.075988260317507
P 12.145586376161036 12.615854936204004 14.158059420121582
P 11.379271380800926 11.156361481158326 15.497278447119248
P 9.150325275867461 10.45600041668212 11.99689559622488
P 11.629567294427028 13.3342010411151 7.402457792613263
P 9.008169436668044 9.725543020029546 9.887083623695677
P 9.334077981437037 12.666754728223943 11.747580355459016
P 10.550487349684985 12.897262904834202 9.78061730445348
P 11.228884685942756 11.196052728293667 6.933178669940274
P 9.7694193955669 12.852142814003663 6.537225523180636
P 7.511273403309021 11.185941223284248 9.188098805454198
P 7.404791379542604 12.797286624546125 10.752992945204783
P 8.645866078913091 13.062670024560546 8.708940546653288
