22
Energy = -114.57891597 eV
P 16.259380113714748 13.489148572999364 12.396924305290923
P 15.124304419256228 12.42583666206188 10.837995923327243
P 13.495448223092028 8.633727990507733 10.36035635985325
P 14.594171634111017 14.495855875843501 11.364135124750874
P 12.471929130492393 8.328617277495445 12.367972452097638
P 12.392973083266632 6.763794030544161 9.629067804936462
P 14.183336421305286 12.864555091560373 12.779993706940733
P 12.090980159141573 8.69916654545435 8.660160215862671
P 10.97525055654124 6.891465295631031 11.44943800086929
P 11.323749665796589 10.162461816311666 11.817212252714501
P 9.89263849910816 8.974022873131679 8.98028596036612
P 10.855799149901062 12.427230338322966 10.063868359711815
P 9.425498826480544 12.331301793705597 7.406098091990377
P 10.121072885373476 13.90003461272142 8.607867717692807
P 9.731945358756366 8.728129109162852 11.157295122683694
P 10.402625929070235 11.420566142417753 13.424683726795076
P 10.297066332508239 13.234176167479465 12.083882704684777
P 9.293059107197944 11.110492676969956 9.195732791041472
P 8.275548156275054 10.82102303521162 13.578343599922738
P 8.13218682380815 13.58422513807091 11.889604980917158
P 7.220169291923514 12.771598555764555 13.758367876620474
P 7.109133619859617 11.610837785612134 11.858980307910482
