22
Energy = -114.96857174 eV
P 10.118270409391947 8.165548129443787 8.28599125916081
P 14.942802718171391 8.64283990175916 9.641211973793888
P 12.73523311729124 8.718018466702674 8.584274668218704
P 9.693176699931303 11.628461534483364 8.697031428331748
P 11.71187653562965 6.721897373171818 7.987101320828771
P 10.461823166346226 6.723374091779164 9.866315808432093
P 11.518610377694078 13.919199009021812 9.877648968031501
P 9.333362630313557 13.727168768715334 9.354190323056585
P 11.810237621316547 11.722477346023572 9.456409859678804
P 14.608625552349066 9.186421461561181 11.793368720498796
P 8.230640623888242 10.340526832281258 9.847416351176363
P 14.35813551226545 7.092280190885157 11.06886486152634
P 12.264336666744864 7.877305608915112 10.544361697419601
P 9.96643445709605 13.925775985834129 11.48346339362039
P 12.390589619563587 9.329390236989019 12.232447282128955
P 6.49552407167561 11.72052200045259 9.689340456250468
P 5.302891722443144 11.044327787724496 11.444240249681892
P 12.076194452742586 11.437163589775919 11.615885314615113
P 8.726961327484497 10.383224560518643 11.99343324787795
P 6.339186469670782 13.000032133051349 11.505785208294858
P 10.168900639722548 11.990746575308577 12.569130436455099
P 6.962727575177899 11.359966209899538 12.892287649149969
