22
Energy = -114.56750927 eV
P 10.595661365464213 8.401026835001804 6.640246622362177
P 11.842255257830935 14.313677176246093 7.923372294254198
P 11.852953808360512 9.52799692907683 8.092116860470774
P 10.405442286917255 8.011781562996514 8.832581396173438
P 9.116275333332426 9.946196410083145 6.047594267213834
P 10.427604901303472 12.995348260167017 6.8617759824457965
P 13.260650848942966 9.062449656585937 14.077960267448411
P 9.652510767239072 14.33609828362036 8.446667923588922
P 12.175422172173791 12.706736087609865 9.55891080486517
P 8.379280696569428 8.92372227241411 9.155930007386749
P 10.658410345240256 11.36951397660615 8.473688556728488
P 10.365242475431051 13.503608595986455 10.523362217620134
P 12.009098215615055 9.139134219515448 12.248095045748153
P 12.062250236312925 8.524982119166923 15.65263631755099
P 10.460098468002743 7.590132352580256 12.681071425638535
P 8.402908248395727 10.686210857359312 7.872069568079441
P 10.060757728549882 8.13787147731954 14.815568978815865
P 10.177920715094462 11.268683230208804 10.89344308564469
P 11.02599820054848 11.007530359485637 12.981243848353419
P 8.515971090156947 8.747472198438754 12.623151745307926
P 8.245167090042363 10.1813889779603 10.981921868343195
P 9.301823307301833 10.181657424613572 14.155485283890469
