22
Energy = -115.46732454 eV
P 14.178610667504357 9.584979380937172 10.360286869383117
P 15.720748277679558 11.216313844935204 10.082104582905712
P 15.110858080841167 11.142431697141662 7.841992431503335
P 13.23538010064058 10.011746103136188 8.327891811766083
P 13.375763324976077 11.181609904583336 11.650940390511202
P 14.084365753299075 12.76651446380631 10.296597483777798
P 13.182768615193227 12.198723648947771 8.273817956668124
P 11.149723025362347 11.145634705934336 11.415419474836762
P 10.663195887291195 9.981150974795712 13.220067120096704
P 9.352542330693112 8.457304539075894 10.607539591933422
P 8.65538011680365 9.164248432392583 12.593626078428052
P 7.946545142240454 9.347105776193086 7.110116121420482
P 7.388380717958953 7.4264838752330125 10.105933893252935
P 7.756493858109844 7.288114388835083 7.9398667812225066
P 11.14645287893198 13.328257931707295 14.23701487346203
P 8.281166868378046 10.409922058267988 10.79192162912685
P 10.821714327357434 13.247337511716902 12.019219434906773
P 9.929619017509342 11.523492586425263 14.627731993072656
P 6.005101798443674 8.280052112896403 6.993325576408853
P 9.094819718153559 13.194076491457187 13.393440333231409
P 6.306070065799252 9.374481732817925 10.318728912516113
P 6.189023713153417 10.108936483550915 8.245956084451649
