22
Energy = -114.75006578 eV
P 10.27221700451858 10.72024472786568 12.839380251684531
P 11.811292735209399 7.662577426099137 7.970178652407033
P 10.320245901851957 7.955741794759768 6.38651780462179
P 8.805611982729948 6.903785157421201 9.329428804230316
P 12.816786952186328 9.409558391755809 7.0739548998641
P 10.016976821020066 8.974909509073742 14.207143472866576
P 8.656464329581258 10.678034313790349 14.382783398799734
P 10.467105515296643 8.722729988481511 9.516807472019472
P 13.723954108245243 10.315949288464887 8.95984743446293
P 12.084678938343018 10.235859098270781 10.392932142142913
P 8.387059268793282 7.049023155425859 7.1537942947913375
P 7.9597817226377385 8.835813106240796 13.30511056509637
P 11.286149795059048 11.050159731380088 7.039420870471717
P 12.119396826210123 11.922576524429973 8.980821666998851
P 8.753218618827223 9.628835208924484 11.35653257137104
P 7.258101023152033 8.079448273616654 10.23236995605269
P 9.58001450470147 9.893756969337097 7.819303233869528
P 7.636596437725678 9.115803337380573 6.968625588405608
P 6.228125869648204 9.229326502197377 8.644640788952755
P 7.794580760511695 11.595944490810329 10.867162344885442
P 8.751918225636249 11.884740529806969 8.875321693364556
P 6.584160393008763 11.452081781734167 9.017888050241815
