22
Energy = -114.84792371 eV
P 13.610368845027565 12.045285793011992 16.58086914552277
P 12.153688360504152 13.64770681999412 13.784017255259535
P 12.015626813800397 13.472651001342163 15.990840770551724
P 13.01591575240973 10.502878899423026 15.085435602817887
P 13.037806087739092 11.707591398895529 13.227129781446727
P 11.504015694417962 11.355629626628895 16.4821912122136
P 9.897607494656205 13.560416080128896 13.65422770408434
P 12.436441214175524 13.70267294817051 9.420188958865495
P 10.964324843616284 14.416399015431205 7.84915637899489
P 9.226743661251222 13.30044970179992 11.558542441787237
P 11.481571391341413 10.631701652787122 11.985909991143563
P 11.01970868452941 12.432355424445408 10.541729997232547
P 12.847986713374073 7.868963678929005 12.863107272563843
P 10.823462419839968 8.518539620635815 12.655673766434692
P 9.23631928782375 11.607520913667189 12.992677214605
P 13.20878310597452 12.1335311239273 8.019251197421767
P 11.812347691775745 12.888153929789373 6.401675189510526
P 12.976401818589869 9.667281802750184 10.42279442541234
P 11.954297403324501 7.706413169296387 10.893752718676664
P 10.105412161687362 11.141368195511445 9.002632650354661
P 12.063530087601952 10.301064338954792 8.460884977750093
P 9.809444356769763 12.593228754710514 7.32911523758107
