23
Energy = -120.54634975 eV
P 14.042832530837014 11.143809101655437 9.279419771170742
P 14.267997495099468 6.958583197095607 14.043025782645415
P 14.47487396736675 8.843975837673735 12.924482361231927
P 13.211575732548612 12.067230789654571 7.329491390051476
P 13.425658432855652 7.136712443552016 12.014818600183974
P 12.300231423944268 10.886888308616669 10.567937008751425
P 12.505213893735917 8.232618643782338 13.685633023014415
P 11.057958848962198 12.229139399856649 7.651914139166843
P 10.802290654092726 12.324173904099515 9.838265459096553
P 11.856980436869787 10.273574769780973 7.086019586796896
P 12.66753002449105 9.368936490918099 9.027311141267582
P 9.003787400648772 10.474990480459702 12.10504701295059
P 9.0052933670421 8.064577398976994 6.127054298108258
P 9.12314091925323 10.81029676004132 9.918922429642203
P 8.302463299798072 12.347322776643392 12.990481811387129
P 7.07787805162385 6.988515328957194 6.192716549648835
P 8.065751916318067 7.599107887077848 8.06274372236224
P 6.963067317561192 9.54022459521333 12.02003597530051
P 7.176789782334925 9.11911341224633 6.74424754054703
P 7.340096596960682 12.027714004029184 9.572278621974332
P 6.8653204844273255 13.03456104753597 11.541486291000009
P 6.02985221972577 10.294120521292118 10.158332896688405
P 5.551574717047592 11.28821147478036 12.1329463251233
