23
Energy = -119.1109803 eV
P 8.713372041158737 13.302628383873008 8.70077973588094
P 10.297964418891008 14.78640675865134 8.834963191986812
P 12.029213204367556 13.796666553863353 7.9256180924488
P 9.690542884167183 11.365613163655311 8.81585580977164
P 10.362794535187158 14.813831546390828 11.049363112402093
P 8.937449396728605 9.428147865251145 12.326207438991524
P 11.186851427928183 11.269500363398713 10.480195640462956
P 11.548107968807303 13.07725299171236 11.773090117382727
P 11.863275262792992 11.60389599202068 8.37567220902879
P 13.812414386682034 14.30515023862305 9.203450612475496
P 9.782952674664552 9.85965985847915 14.144185249553477
P 9.366684577292668 7.3294502922979445 11.842734957928648
P 11.848175003785544 16.428716228075032 11.452502665178079
P 13.655850213847351 13.421083700156066 11.247609488676392
P 13.528612708072474 16.38739412299824 10.002489921074794
P 13.750522687318673 15.514123970130468 12.103896676992756
P 12.823582728343766 10.335680380528004 14.110791207533733
P 11.599651231450359 7.211582363424598 11.84877982413416
P 10.440117915883416 6.4064149792437615 13.561784254375832
P 12.828871471937465 9.000358438549654 12.241395533988747
P 10.350404560112421 7.992694566016968 15.114433738016237
P 14.009481804667429 8.474786617560605 14.079295561433796
P 12.439886444148174 8.755740173334095 15.631684508516281
