23
Energy = -119.06129492 eV
P 16.035521455317234 12.788084500431347 12.310261263233274
P 15.56553004933522 11.06918810033651 10.988496342643577
P 13.880865697960878 11.884816560830183 9.812773340522485
P 13.95381378703534 12.906840942103761 13.107256535507426
P 15.059062269376494 10.970636041546351 13.149806524385136
P 13.062144018179291 9.909824456559354 9.079229103518829
P 12.021947250858263 9.588927991517933 12.771254166697236
P 10.538751504567578 9.057480242304422 14.349666896917691
P 12.61346199288992 12.89192535131627 11.360075133815904
P 10.842033393256132 10.21305571893053 8.994071923272157
P 10.160847869681191 8.52162912751548 12.279991563539056
P 11.056403852389735 8.681683397420958 7.409106824762756
P 11.026901182736806 11.419394021632174 11.94532550662492
P 12.00777952173461 10.659487688685553 7.210532879212055
P 10.461829896437507 12.439574759903959 13.880373778671007
P 9.202661901737029 10.867837776338426 14.729330342425497
P 7.776303172315104 12.259913861128979 11.678332640793649
P 9.289682643115704 11.463670902962376 6.063399568012953
P 8.85467483234309 13.712580688506955 12.994199334445412
P 7.485656214592218 10.775703540443102 13.29983575357394
P 9.057499929106122 9.279358037119623 6.342106326696809
P 8.253213805321987 10.812725378716353 7.70994077929665
P 6.856133023296941 12.888380177333488 13.597352735016138
