23
Energy = -119.11158133 eV
P 15.313842375370202 9.955516853802214 11.553906315272899
P 14.521648723210637 8.950017376102972 9.764958017142629
P 13.356721110236714 10.226368874176456 8.334107408379632
P 13.406388347342206 10.794534158267577 12.078349983372808
P 13.353960039601919 7.787383960926904 11.265156127825112
P 13.165256161699197 12.082298765469954 13.83483485174015
P 12.967180252616588 12.473184274553589 10.69955649085083
P 11.773712032335297 9.198899020707886 11.863233027861835
P 11.717403082950637 11.627786543373642 9.119538718128968
P 11.36527435051017 9.124717550595658 8.169011597584698
P 11.790889515180602 13.045285967961414 12.499165272643895
P 11.728463600156298 15.286024075830367 12.677654152380786
P 11.994317895596206 6.185083948134056 10.320285489762595
P 10.539749086175737 9.827804078706597 10.073169621899062
P 11.148257602905034 6.895938957047924 8.387897244778637
P 10.011208559591589 7.056724608805056 10.262565995504186
P 9.667845171662336 12.37396061354878 12.49994802110008
P 9.804042761518158 15.751955926889593 11.657141677788902
P 9.86066153746284 15.589191846343933 13.848517314724555
P 9.01127533815504 13.753121012130746 10.932778633018696
P 9.129771696827062 13.500279151574285 14.306717496986874
P 6.9457383238588 14.137368814983171 11.698279308855566
P 7.015618163744416 13.965779348775069 13.74245296110479
