24
Energy = -124.8938597 eV
P 14.700725228666746 10.881518762892812 9.827974799131892
P 14.3783435875479 9.717803956612313 7.983138829953375
P 14.4044352358146 8.709721641720094 9.919356346628721
P 9.189693566207369 11.58649068673246 14.403396997340101
P 9.66722256258826 12.45432494161567 12.38835503679012
P 12.356395357383763 11.288292784320896 10.011408275403483
P 11.164100170724412 11.269374519478337 13.504787236872435
P 12.026700863272358 9.101010065617166 10.152231936630777
P 12.014165761118418 10.098674268682787 8.177083702709751
P 8.938236013521292 12.182522657666777 8.829650607483831
P 8.571270201163415 10.634886494440348 11.513167249104
P 9.56635902512674 9.672783575772687 13.271404586642173
P 9.786400520374407 10.268681382139576 9.632376079878583
P 6.882343721716305 11.689170933566308 8.17824893045393
P 9.763358487618179 12.281201742615417 6.774800147591807
P 7.6006305950406015 12.629608785347383 6.190375763982281
P 9.70117936315464 6.459860472697351 11.590355420882059
P 7.9337757701519775 7.820750605660915 11.760332861989955
P 8.423200163009831 5.615008824958097 9.948393065991821
P 8.665591576882717 10.714638403283383 5.656018914286012
P 8.748758209822102 8.65782822004846 8.384476699650794
P 7.310901634426699 9.759683691864465 7.14113359347436
P 7.2667947414741025 7.537143429332723 9.619094643244047
P 7.736350566086565 5.59556071519825 12.080579833472543
