24
Energy = -124.97373131 eV
P 13.356755595547979 12.878400013880754 9.661812863123348
P 12.418467487691077 11.993894660464012 7.861964517945985
P 11.855604028235243 14.091718696258134 10.826204755420743
P 13.614886330474384 11.243834122796377 11.154530457368088
P 14.145280982120159 10.521356118222167 7.843533350148423
P 14.273277065831556 9.541877550965069 9.835700204381537
P 11.83119378695026 12.959395542995562 12.796477233241808
P 9.722805279867325 13.41645506631677 10.479836091345739
P 11.614052414828826 10.85556181850405 12.052453469510576
P 9.726133193889547 13.795962898760111 12.72313459190541
P 10.174321350118241 11.226593783791367 10.362022348233175
P 10.498948507333488 11.001915662810829 8.258020229494408
P 11.493559458656444 8.218679408676566 7.925866224457955
P 13.238505619372628 8.871575579155127 6.693244411418134
P 8.699030768559712 11.859547082303587 13.1628036651201
P 13.422979338697047 7.00578817698331 7.928686441008784
P 8.284367397658276 10.011688493939394 10.599275385852046
P 6.492154057485023 12.140223514445347 13.064733528855848
P 12.66101567564601 7.997909367019515 9.77030346893813
P 7.463300238349612 11.71805645829369 15.01351280918426
P 8.442944862336494 7.943318507268058 9.84086406888771
P 8.351784941205587 9.18254482665128 12.616758412836841
P 6.5692790137223085 10.054028636147361 13.800184293684733
P 7.541380062202044 7.361701470130663 11.620104634415778
