24
Energy = -124.43116526 eV
P 10.596321828320372 13.096568499193832 16.519589620730088
P 13.717432925645854 13.162331637781252 12.294012908487868
P 14.974083734911016 15.035877189526591 11.693362335102215
P 14.418553130871782 12.682378464532928 15.875237785073617
P 11.733486174951967 10.706125238677346 6.6693201787656395
P 14.1009444410464 10.378090951948925 10.280607218671177
P 13.15050159101433 16.295591056047776 11.742078759681535
P 12.381440487773638 9.474503617674822 11.354210781460475
P 10.201100619956176 12.245875407483478 7.023056456091637
P 15.590610088758313 9.676594557994818 11.783610100741432
P 11.622691052200194 11.762150523589208 13.598526391459114
P 12.70037220732882 14.829601865511654 13.41703641576457
P 10.951791331690988 11.8884134807431 4.9855454501283765
P 14.168407718820191 8.234821010246788 10.871189342027135
P 12.595885692929643 9.7525204939546 13.53967487070508
P 8.527746789734746 13.295795484897937 13.998070477850927
P 12.394502032174106 12.6197236829247 15.41480293949602
P 15.138826882786189 12.326903884012905 13.81677517509543
P 9.672054481276968 10.390227081366888 5.966263752963074
P 9.30423075933327 14.802384158410378 15.441538641456532
P 14.464783321333382 16.204155609034242 13.51098726657576
P 7.4883977472122725 13.786169620470584 15.838328080646866
P 14.80289540198355 10.13296350276131 13.804387710362134
P 9.746626211500331 11.663919634767739 15.005473994217462
