24
Energy = -125.46573721 eV
P 6.535286779930773 13.461639923683911 11.616061907760733
P 7.66472463957572 13.278624975789722 13.56441413373683
P 8.75810320905866 13.541817033153107 11.632718008895848
P 5.9791391478386124 11.436684423471595 10.972526045519201
P 10.488393449508278 12.243612547279785 14.514172138074102
P 7.368250555195543 11.103277052284227 13.885942406502027
P 9.248680213540197 10.444868731540815 14.95820244123792
P 9.178437066769735 11.463891941703817 10.978989644204546
P 7.512968627345068 10.252158251499756 11.848494990897791
P 10.444505274325328 9.196117951885833 13.355568980831183
P 12.205691778684121 9.194133020036373 14.67227562160221
P 13.085500416264919 8.457734222838713 12.777922700915548
P 13.683017555035109 10.054640811155794 11.609143909163397
P 11.174604714123326 11.261311388228048 7.6517283827202105
P 12.349273166586181 12.631243622348915 6.390639555665914
P 10.736378671568927 11.27552651548529 12.521057850882281
P 16.208441444176426 9.462306621862119 8.712048612909562
P 12.905532411448652 11.843055023926249 12.58667772423451
P 12.646725845163104 11.405693371102338 14.754900301514438
P 10.344901823507263 13.220666614870748 7.095478127034089
P 12.021180204674401 13.100621419433908 8.5148392199897
P 16.918702538256788 10.805295790098926 10.3020862677576
P 15.752646710104688 11.612429020125129 8.61825824155343
P 17.81786365273847 10.91005666046338 8.289956879260556
