24
Energy = -124.95371413 eV
P 16.23599614689353 11.967930417289406 9.916236661248671
P 14.907382400072088 10.54903585753247 8.801716924292535
P 15.06140989573384 13.759569115975683 10.467000155381179
P 12.939629862444477 13.394327035593381 9.888548631111524
P 12.886429642897701 11.480489107846179 8.722391644662167
P 10.138374162369464 12.003186432466489 7.239165130075967
P 15.510231962339846 12.117826949213836 12.000680287543707
P 7.912194767288228 11.535110530414194 7.372604764427142
P 13.322706953383449 9.868676346964053 10.210772366044779
P 8.902560237450132 12.753891926026185 8.892708143451463
P 12.379350467120721 12.79674683588104 11.939114088692623
P 10.590320098946451 9.858047303577566 7.756804149340417
P 13.613295243639179 10.955100364126537 12.133688681154641
P 8.911187675574544 11.361804089475742 10.593106290719808
P 10.189130537886216 12.60013756543055 11.932947124693055
P 9.686703174732052 9.482842647367514 9.713589183239392
P 8.380232403238443 9.351421292346547 7.94546168527311
P 10.098336187336802 12.224803850769998 14.122768373679078
P 10.312838012930207 10.124161937323185 14.875779003660593
P 9.0297273787306 9.531943591668387 13.16668099776884
P 7.579734504080449 6.839925470900212 11.831282696939354
P 6.120670718232177 7.884379065104534 12.761644635397573
P 8.304792511602512 11.041084224238956 14.642174538130995
P 8.0366592154607 7.634292514442591 13.881021967728733
