25
Energy = -130.2563937 eV
P 14.243607115162337 9.300387226863503 7.553434493663827
P 12.700060870738367 10.825634270348825 6.786584168676906
P 11.304361799995794 9.079602027620297 6.576852792850006
P 12.596081680090537 7.757799806534867 7.863748227554143
P 13.601531255538712 10.991701878697732 8.797502372377892
P 7.8165530038117055 8.808583770456847 6.751249975827295
P 9.532420367972007 9.447629196314704 7.83563180671029
P 12.11598294263468 8.025842300764479 9.992665205573076
P 12.531953524386326 10.168735956637732 10.562652085040794
P 9.931644318926217 11.568909553808657 8.481069175901688
P 9.781472614104237 8.35955583017213 10.066489310367396
P 7.021241715863659 7.3881248446508145 8.169922134399844
P 7.961992922408193 12.522888726542758 8.779123009220296
P 10.384146153467148 10.89123000472254 10.525232822621609
P 8.706976776816303 6.504175827309374 9.332582865581882
P 8.888507610185485 14.065770175581722 10.18004436747127
P 6.007835032394716 8.221980863463825 10.140087909965407
P 10.22810212234147 12.89346284460779 11.488978986548432
P 7.662151469796589 9.550632852179188 10.654401302597353
P 6.878114181001009 11.658180743960571 10.535005124947896
P 7.063174539256245 6.396137509612725 10.85914370473977
P 9.923727851672192 7.966794136516367 12.405131512445164
P 8.039482269139146 12.933121203176363 11.977760938714303
P 7.991839798928902 7.000268424389468 12.847445679120868
P 8.122426252123336 9.219003885137703 12.831975169526833
