25
Energy = -132.30814544 eV
P 11.319608553541128 12.946609176590329 6.047340469273864
P 12.955919940678312 11.46919289062928 6.451187091100245
P 10.83316188501995 10.847726646020462 6.750919391760323
P 10.853128838849413 13.765812933204055 8.092148469140914
P 13.736836228423181 11.988607608629863 8.482005188266063
P 10.347859677135187 11.66628874899783 8.794521585051564
P 12.982564899894419 14.063059270137309 8.410857169416138
P 12.204163244665413 10.82825665503985 9.56937793095093
P 13.266054506078431 14.821499692414603 10.560509259284943
P 11.304894574887978 15.039725083829106 11.523470553422436
P 12.353162386557537 11.627601419378909 11.703125753258158
P 10.565569396983973 12.91829022064867 11.832502982255594
P 14.059124588824906 13.01835144905376 11.574365294202002
P 11.017479444947892 9.488448312167606 13.375257986531368
P 12.328225858673292 15.562532851578144 13.401663317421184
P 9.761045154961382 10.89607574537276 14.527207372766542
P 10.588403157841713 7.796176231394024 14.82696239302618
P 10.29902489157167 13.017699238856547 14.042687820134518
P 13.859637412432374 13.979037213755056 13.61581562731058
P 13.077246097859742 9.691518065471204 14.181396031076753
P 12.689864426365359 7.998244414881946 15.637359791810772
P 12.359654947779639 13.19670532094348 14.991149375487051
P 10.845632800413735 10.926650060414696 16.46347413340835
P 10.93513859687821 8.731940520834844 16.824529957653215
P 12.93336247434937 11.190714215370171 15.796929041605516
