25
Energy = -129.98172774 eV
P 12.070051424305301 5.907386397631307 10.481978730085869
P 9.972756523690457 5.84372121047284 9.516271930200626
P 13.15364409499126 7.2279944910940275 9.028964968828767
P 11.767769630014124 7.502491205101966 7.2201777054412215
P 12.59675034318739 7.978074021994514 11.045498654591677
P 8.228585709522823 6.651296390532211 10.62920024496039
P 9.900987773926245 7.663819026646394 8.314073294060133
P 6.8912752984086625 6.173759291338509 8.80549145789723
P 10.558999210818765 8.907350413027626 10.726423427993348
P 10.56327326684507 10.763085486070691 11.973769519337381
P 8.428524531357622 11.31941224870775 12.305246290860897
P 6.611596074990519 8.31780442386516 8.253091559381335
P 8.244163046629728 8.807935276654717 9.836587126202874
P 7.055456121292663 9.724721168236037 11.532561262486933
P 8.012886133492483 7.080801241493202 7.102284851470789
P 11.151761703467436 10.827685522949938 9.778378589605026
P 8.347794646582898 13.093464210591158 11.008409938985462
P 9.405003496209728 10.707861541113887 8.413559429234127
P 12.010132439571793 9.525199108945829 6.077683069447011
P 12.781233161434107 11.095610941285857 7.358903411441764
P 5.5782942527926265 10.997208955575664 10.48984131973193
P 6.089099779148678 13.124867891891355 10.843682182201604
P 8.42712638566929 12.674755302981996 8.80096044213045
P 10.768107182953422 11.305233298981829 6.584395168714057
P 6.236795902939843 12.20174873071245 8.748317859237599
