25
Energy = -128.36835935 eV
P 9.334681719039942 8.818624226875677 5.6908908364865365
P 11.083678230403299 10.23676008637119 5.609753946856652
P 11.402551618687832 8.018129788583677 5.684728475648279
P 11.471663759589996 11.100561809537691 7.614357476685842
P 12.460083632072733 9.55149496141063 8.926027254522513
P 8.758908563476016 10.15175744466182 9.570496084060979
P 10.008907381816629 7.524936213967763 7.359851704226366
P 9.640649630633433 11.903389564369025 8.544690641286023
P 12.602160994788804 13.125815512790084 8.479018713394316
P 10.421313118300851 8.750241049954711 9.211632047288317
P 14.221523458309623 12.343458762536347 9.623851687631184
P 10.908448308817917 7.440747404545572 11.090789331562272
P 7.861539435633661 13.0508517894211 11.919303565709543
P 13.03297420531587 7.963448598980617 11.258826042586865
P 9.392232883334193 11.16210270183504 11.806797085438825
P 12.637259603576624 11.150248304616786 10.493445075226607
P 11.051172963105497 12.675750186417686 10.15069191585789
P 7.747417222955655 9.75626491627229 12.407000105196056
P 10.658213772856401 9.285957086544714 12.372790275451255
P 6.269440700007969 11.503775637819647 11.998031646890444
P 12.80982712571935 9.900967658408074 12.364801496561387
P 10.156894901000758 9.243099270418558 14.497858463547
P 6.938027374968081 12.58728002816945 13.79080259293438
P 10.144671079903485 11.43152264253172 14.194724119288493
P 8.15946457001039 10.49652060728534 14.512545669986993
