25
Energy = -130.4370175 eV
P 6.875980450103445 10.819512878730267 14.190502753116213
P 9.993712149171605 10.42215152563738 14.041402164133261
P 8.603457887918305 12.03101660698739 13.329561363837673
P 8.238234998764186 9.047461323851117 14.423906950657745
P 11.933400912855817 10.68073399560803 11.118679505965934
P 11.569418082591827 12.87432257977353 11.242071588624762
P 7.063448132570566 9.27971206342735 12.531737486781793
P 13.367054465686696 13.486645059610547 10.174451143631927
P 10.17588819550044 9.619209751089619 11.945713627055717
P 8.331787493861253 10.761565367062481 11.419824543963292
P 9.882252870472353 13.434016037664861 9.907266001328756
P 12.579134584319114 14.590554715330299 8.487783173168548
P 11.860374056059896 10.150108587424139 8.964646278650024
P 9.496822030791055 6.49616651278025 9.801310308458113
P 12.897364376025282 8.166068659947756 9.094610471174747
P 11.691030228234574 6.305707765915627 9.295561326435832
P 10.68886240983311 13.589936208679363 7.837798234960815
P 10.567293337524218 15.388608863035488 9.113302225405212
P 8.637768369296552 8.518117197511765 9.636591501564292
P 9.796932879860357 9.828047631947555 8.252818840829725
P 12.144027194258735 7.146291505109685 7.283628769617448
P 8.364304878354584 5.822917601125952 7.979240207796831
P 10.465272592789924 8.543293890057065 6.59748016951644
P 7.234779317919886 7.803421625667232 8.017712490984705
P 8.621660898599949 7.315329719661852 6.355420222865257
