25
Energy = -132.28817084 eV
P 15.75792673855502 10.828684701729697 7.006202677894264
P 15.108818459885114 12.913799572793843 7.532318022335058
P 13.992923437998428 9.53264277240458 7.451588557086388
P 12.47807295073664 11.1186675603649 7.324009075397799
P 16.3747371906344 11.704279887244256 8.961207737004969
P 11.107212650055622 9.664248488733266 8.277431125334317
P 13.253798050651701 12.582211181808773 8.79733691049617
P 14.213572629164867 9.329083701093802 9.667382382458735
P 9.190459782084957 10.47141833077093 8.992106262516204
P 14.524971270014552 11.418009587903365 10.220906726506838
P 11.91467975080066 9.18331081372387 10.27276184931657
P 9.166118139601886 8.701119373857422 10.351327027610731
P 8.42444368935065 10.199940069557508 11.775888994564133
P 9.631996238314008 11.828237589421594 10.81424022067341
P 11.707077652577349 11.187390054143277 11.267688358887565
P 8.41911695162339 13.130595169802536 13.742610485389003
P 9.461476330231722 9.702637467957144 13.654949948900237
P 10.52882048003615 13.81298804419926 13.44303133541154
P 11.62805916230018 10.407597508780627 13.336748629001173
P 8.558596691007354 11.287333972338724 14.943921064553386
P 8.244557258286779 14.420050052076606 15.577062184166529
P 11.768527409365905 12.317709087005989 14.478472998037248
P 10.400749194261023 15.109247358959212 15.27954701604506
P 10.411664606981915 11.645236537063514 16.090611063769863
P 9.883026066934422 13.654963897720155 16.892052128097323
