25
Energy = -132.17268067 eV
P 13.745472740322299 10.927597560295636 5.97818900376397
P 12.894199757868654 12.94350384634576 6.403533222805738
P 15.124784500127838 12.688816746275235 6.399769628255856
P 14.159813915436077 10.135167150187383 8.033766465094308
P 12.29495963164648 12.949418075371355 8.558807052900615
P 15.542836867244777 11.874828679634387 8.454664661285328
P 12.226451689600978 10.743065169751963 8.874116699291694
P 14.294499845601353 13.42906420823721 9.379347106252386
P 12.989744093826001 10.51752461176885 10.954611236437945
P 13.864394000934192 12.579327704298796 11.37777728222172
P 10.636924781243522 12.671633986559923 11.893032062455255
P 12.398258661520266 14.008558872560906 12.148263002526292
P 11.28383402200786 10.61512292089266 12.335008594052779
P 15.374895194434785 13.05200040149121 13.251229690664584
P 9.329056621354486 13.199385637360422 13.656498717111281
P 13.660720283654419 14.138346798055409 14.154840775511666
P 12.666120423677276 10.48054054623821 14.079755376444993
P 8.180582182865818 11.355203904404155 13.887804406444365
P 14.150958424606072 12.114089239053301 14.789736703567133
P 9.415554876872411 9.973230609990361 15.199258844991318
P 10.615356552030088 13.145853372558864 15.45320136558029
P 11.253573555446154 11.032203476374846 15.716983296371245
P 7.171137950858016 12.196157589450282 15.707134287749943
P 8.906926178601317 12.998151217472516 16.87867174850401
P 8.404901745939776 10.817166173091104 17.019957267436027
