25
Energy = -130.04999285 eV
P 6.441814192493736 11.228034990969707 8.24243046632808
P 8.407485242873609 10.299307389957832 7.56389995049843
P 9.866885975844506 11.973838975190374 7.258965760390452
P 6.90707071665907 13.303231055994475 8.913829298073837
P 8.802174221115113 13.804796273557244 7.8730407229001536
P 6.753674637033097 11.675133725409987 10.420396297494321
P 12.754768104411992 10.317517128556524 8.132963337587592
P 9.438298429926949 9.517817544572463 9.394013634782603
P 8.110395499325355 7.7065016999025255 9.831699104400707
P 11.104364789960204 11.504363850643697 9.056253238560648
P 8.592230077590589 10.675232833615183 11.13121996494897
P 12.134287495791298 8.306757582227219 8.842394747423247
P 11.685336017749037 9.077474028871372 10.892272230287723
P 7.295193120381739 8.834597663381977 11.56612842039206
P 9.542200408442252 6.187055478704023 10.606037557287745
P 10.416897969827186 13.404618991448164 11.166988195842734
P 14.493552740875696 10.421363027681867 9.589144220703337
P 10.160874551146795 14.72221096775768 9.472911004026109
P 11.322042391791108 7.020017785771707 11.666274550274986
P 11.99321123415425 13.495733614070717 9.599671475565954
P 14.416075271245195 8.17829064975996 9.4649756506142
P 13.929249914002899 9.21106545798598 11.349023855944548
P 8.106962793577026 7.836000065014698 13.376108872031104
P 8.647361475859608 5.817398136564353 12.692697187032406
P 10.211233986615424 7.216544303937128 13.612908835111641
