25
Energy = -132.09787963 eV
P 12.037794559929472 11.316961256351892 6.756382969654817
P 11.298810490620557 13.378562129513076 7.024955271930514
P 13.407255457352957 13.064921291212164 6.4485644681593515
P 12.09273867239811 10.963669667290842 8.99388057000211
P 12.791767336430581 14.459504687722031 9.35224197530584
P 11.1786037565402 12.929765637961657 9.47803066609778
P 14.263665736128516 11.290304342457459 9.038436052954145
P 14.46591984237163 13.398734694565078 8.408284310442767
P 14.62484250716265 11.267801095273924 11.265297659991568
P 11.144559299092835 12.303615130382326 11.921526109972943
P 15.199817789426838 13.315248386452247 11.938380355777365
P 13.659822090889016 14.86728307405653 11.376756121889468
P 11.788601168513567 14.387199537968801 12.428835737785747
P 12.650549343166967 10.72297263739015 12.155704221379294
P 13.954382835057427 10.924299081930341 13.962452883470664
P 14.669266516567149 13.013114364267306 14.135358710678286
P 12.982638339188075 14.492612759883642 14.273562976632807
P 9.939302573709229 12.449670417708964 14.851390412738683
P 10.707886084771193 10.34095759460992 14.96951143772546
P 12.719756190848083 10.48532325766549 15.800898381425478
P 11.454087615926607 13.75731098870061 15.750307867554467
P 12.635074352832525 12.364517743739631 16.96725044982056
P 9.10721221996199 12.22399221092565 16.968528417893772
P 9.847591153254996 10.096347426778777 17.040623975013382
P 10.890083268552607 11.697339785885465 18.20486719639634
