25
Energy = -128.72432651 eV
P 8.798018653180305 9.881244601575029 7.795462083247262
P 10.999521255450802 9.848476707639918 7.451373590507545
P 11.753880799212615 11.878375789687384 8.025308059119848
P 10.586939528320844 11.975517014040578 9.978209494391328
P 8.551644975791433 11.848461397568942 8.835531471683026
P 10.688049344664979 7.00444497051879 9.289999409598453
P 13.648689826398417 14.300395395163042 9.524726934140473
P 10.164292052328985 9.168885966274804 9.397563956821825
P 7.015281546543163 11.13238143507337 10.281006588792094
P 11.947029544191427 15.330917739748962 10.40602555798172
P 13.69813977761775 11.136202195695736 8.668635114773481
P 12.286320674767955 7.433549206785293 10.750425612955441
P 10.021834777489719 14.17507275561219 10.200770443293292
P 9.513012668487677 5.753360257070166 10.744063210933637
P 11.553855024225966 5.404919226315727 11.61548425033358
P 10.84906975592655 14.688416694755281 12.21909682622726
P 7.3683189966068285 11.825629535520756 12.381491045549549
P 14.046899931291032 12.38569543472928 10.440969565556145
P 9.632844446538977 11.668448037268927 12.167104034364751
P 11.179909369080587 8.276341898234683 12.566171520359436
P 7.406684301668543 9.627358508131097 11.89022291888258
P 9.974856356070841 6.447849216440902 12.815561759567291
P 12.383263209444104 11.424040923607684 11.490304792902315
P 11.384381743797125 12.66401215203932 13.056769531550493
P 9.459958055619865 9.632699555219626 12.920418841184818
