26
Energy = -134.45769827 eV
P 16.302303207130166 14.623230962628737 12.57127961798879
P 15.937908327231476 13.707090441964398 14.547944245959277
P 16.637099969380593 12.426635825513722 12.837943625612292
P 14.257290011412874 14.727238988795028 13.489256188351675
P 15.006406198807385 11.272193715328257 11.812274850646196
P 13.871064427774689 12.886138232711795 10.73655051935257
P 13.575170700216312 11.32830051564275 13.55471249286815
P 12.950917965293772 7.830464318374664 10.72759869399061
P 12.906427911496488 11.374574694183556 9.44491254122784
P 12.9289336224358 7.889505284927202 12.910895431794417
P 11.43187307935103 6.724646973786717 11.818731195094083
P 12.765226395360187 13.24368417667941 12.684999889099965
P 11.909664392929162 10.01291637712591 12.877120022872909
P 11.544224899322677 9.821259810008604 10.525507610782098
P 10.1959239130874 11.312547354316337 13.13462945498029
P 11.10725128736122 12.124489217727033 8.49381751422696
P 10.802143017377038 9.95043386997025 8.19429571354544
P 8.761038918017272 15.279223160220386 12.923827962923365
P 9.735861118127872 11.328801265866367 10.75218996761755
P 7.963647534731405 16.898547995105634 11.660669113693869
P 8.11169082354849 14.848579617539908 10.865449231285075
P 9.802243432422582 8.352102859775973 11.455512100858297
P 8.767345304328005 10.112148221872394 8.992672108245632
P 6.6190782057656055 15.32617907955836 12.413386307269716
P 8.650806762945287 10.006370577300858 12.356365076420914
P 8.852616858678171 7.986854747608897 9.611616807825314
