26
Energy = -135.17258133 eV
P 8.803875629669836 7.265844610491624 6.846052593874751
P 11.449709312609135 7.279370901525562 9.308010808135755
P 10.735234505925666 8.237403225692788 7.376844395499159
P 9.487849461818845 7.846005795416726 10.21630857757062
P 12.713829073076983 9.042841426811961 9.927965646211714
P 10.219302154970972 8.09904842658905 12.273966315428519
P 12.419965342094818 8.589888659485162 12.07804281494797
P 7.350816294377656 8.72920678521797 7.142202979540846
P 9.722128864449623 9.596366404903025 8.806864808723095
P 9.057498849982608 9.763729822364015 13.149232060569986
P 11.374639417468874 10.832039376981653 9.637305142034055
P 12.937909110547508 10.549024116218927 12.965848936075975
P 12.10495248619509 11.470497246608524 7.590807511989145
P 12.181853811841757 10.464417216334239 15.074876878490835
P 10.038408361454444 9.741377374415446 15.12063117278413
P 9.512821806904547 11.754096049096537 12.269065456645546
P 12.586156256764724 13.56885633611233 8.187054243828175
P 7.945188794769178 10.538472734607804 8.11228728654526
P 11.66640563195844 12.355008531940781 12.427414584931016
P 13.032323073310158 14.122760331757855 6.0587371371149805
P 10.530190013884445 13.016955557474162 7.49406490482036
P 11.150528676268587 13.556521589044653 5.405259525103453
P 8.517816150731893 12.782442373532371 13.977129610689854
P 8.869093772284488 11.503472980467413 15.81928412759322
P 12.048892894592946 12.66577978111437 14.625719092699889
P 10.096222887203588 13.331048637652657 15.466917624672433
