26
Energy = -135.01981635 eV
P 14.708669709216874 9.029450136148895 10.509531575379922
P 13.94615426332498 6.972385529145798 10.141529474780612
P 13.240141548102743 9.352324756183057 8.790478320683066
P 13.75123052398048 6.120853897284782 12.189551792666846
P 13.868466089646269 7.863767445558917 13.557931179618672
P 13.438534447140206 9.634072042398175 12.206016564427694
P 12.37627705748319 11.287310881227967 9.500940852588805
P 10.045489875532274 11.40787539221423 9.354215453156987
P 11.901182940587033 7.763017420210712 9.729820516727024
P 11.8600802312952 6.960507686270457 13.00585684027719
P 11.462448147844041 8.730063744912755 11.655565935249445
P 9.917877085196542 9.602669959541707 7.610581524587934
P 10.820771393398138 13.548321400474801 9.326129540831845
P 12.084907858970068 12.552638819169227 7.687363367036043
P 11.002404126963269 10.992864499896275 6.328080282719329
P 8.803512298880886 11.556233834395965 11.157761052601836
P 7.459753166995397 8.53899656477189 12.20462361542042
P 8.863199384066073 14.250489586097341 8.551351279234419
P 7.4183203360293195 9.947406644814045 10.404943397575577
P 8.754827284697509 10.863024084336516 6.22242645239559
P 8.27291881879631 12.19972952267254 7.962835927015745
P 7.5968683220984365 13.366808500153088 10.241339427987878
P 6.029072465663726 9.790293399724705 13.37067885685728
P 5.24188256016381 8.329091856064691 11.940887074793494
P 5.43625681263394 10.492547793833651 11.304460897633167
P 6.300906912541476 12.40646928816537 8.69770643122413
