26
Energy = -135.9107346 eV
P 10.86689374714585 5.499057851304452 12.276356841312628
P 11.83169382909813 7.350725213710328 12.241748994512847
P 8.74062375199256 5.956751310072254 12.331653601679069
P 10.345794640324117 8.964506554847167 12.769374813146342
P 8.509764952802088 7.853811141570517 13.426545000907607
P 13.967036519531835 9.347164213334507 8.75077178126405
P 10.411845899263053 8.470745721599862 10.627196271207438
P 14.69162833625922 8.675675337706554 6.784084112466987
P 8.588306986826453 7.245119362969316 10.373955973547538
P 12.76942107957633 13.343716597381594 12.418500271150176
P 15.137438911841212 10.713445443644705 7.482779736844267
P 11.216749711802507 14.954272975882926 12.923811233238295
P 7.0862151927326655 8.244211627067957 11.675166831400892
P 12.909408431099047 15.378872049583313 11.560601160087472
P 13.083205135432971 10.174164619132677 6.912200383825763
P 11.724291272678782 12.074584163202113 10.91293672347282
P 9.59952400165472 10.081509407675865 9.168395107721407
P 7.942252536447515 8.818421647759267 8.374974934658987
P 9.75173148618943 12.260043276385 11.907091167556779
P 12.156505841389476 15.326083439024872 9.451472893181919
P 6.744132875679168 10.349709888467014 11.175465076901588
P 6.126935029644561 9.474063717674918 9.243452881424457
P 8.381219062907917 11.516350829499034 10.28547247467094
P 11.520859791589556 13.239843264633423 9.008652764386929
P 9.47297353782719 14.448058138182159 11.63696625885443
P 9.994271053225235 14.817538046899635 9.493426362401587
