27
Energy = -138.79068108 eV
P 12.11630021945567 13.803914512671163 8.479803210109594
P 13.49122285941133 12.44436283443121 9.623119110401015
P 12.068117563322575 14.518784047149643 11.604861108640339
P 12.89792781522019 13.583830946799658 13.429753118145925
P 13.336884653358483 11.015339281705124 7.897898341307997
P 10.76173492881664 14.272525365359458 13.356869172512427
P 11.459476909741163 12.03606503825773 7.123686367368794
P 11.391289852120018 12.726121930342345 10.299404843390528
P 12.055453355464838 11.503984731749135 13.608221519763196
P 12.636182157751168 8.989604489250912 8.530228558004804
P 13.247143939430577 10.207715301840045 12.221661539429277
P 12.096963333910615 8.988092062387352 10.732987050201793
P 9.999768906476097 11.393837770475592 8.61546457655516
P 10.43364334868058 9.286815321568351 8.136975218831939
P 9.483021583236223 8.557523665044114 6.350375627485866
P 13.018718310055684 7.217239435369998 11.571248371133102
P 13.352592352095892 8.323606847823733 13.314338078047536
P 10.042474463339117 12.111804415824038 12.815299078143543
P 8.55701874567108 11.941425993669647 14.42768832622644
P 9.515962775468118 7.735990051110622 9.435196383160878
P 8.132681064921398 7.4364062703480505 7.696403377328219
P 9.241007403250514 9.577382076402866 12.572050621442449
P 6.997733411336414 10.41650281901335 9.615333559889464
P 6.397834075266742 8.78900784129851 8.270077446296485
P 8.248845571447559 8.96516957157154 10.739349363629632
P 7.547651536123185 10.25730938577716 13.697517631625123
P 6.075849916148583 8.503139044279564 10.437689452449517
