27
Energy = -138.59777284 eV
P 8.132120309428142 11.45213311054472 14.826875693945915
P 10.021961227513495 15.668654802484271 9.521730619951855
P 14.069602785920083 10.488458645667881 9.158977467254177
P 9.549818748157364 14.29403177536024 12.006989048048256
P 8.32315419215993 14.354270153182112 10.084974278721328
P 14.371625149981778 11.21634522936651 13.090133186199223
P 15.372490150185119 9.265074245499237 12.886404794604667
P 9.755000610259623 7.924245813454487 8.157222168523887
P 11.500928143323117 14.782618023176294 11.039317018709301
P 11.052763017876815 13.280916544524388 13.918523574951339
P 13.518325899335847 12.059038262329452 7.662581812254454
P 8.666056952699943 16.215652576118533 11.210718765687192
P 12.426581603440663 7.535975481678614 9.988288637422055
P 14.067297836921336 12.63410217344784 9.7841449476936
P 11.882040087399197 12.718294779709003 10.292747537938832
P 15.156647304524004 10.192655206736529 14.873025197215982
P 10.39254780461463 11.400713110709377 14.921834569568226
P 10.27718411554859 6.958420801356546 10.112280803008678
P 10.801263441806423 13.33488746892989 15.945696713704745
P 7.798979761562763 10.871447264641409 16.947969025772533
P 9.831382048777213 11.467916536119253 7.676920351847492
P 7.831721012029651 9.36579559132407 15.594244671603331
P 16.545517827317045 11.057212402060205 13.394502139748672
P 11.021322875388956 9.726133838926598 7.959440933290046
P 11.42629609947421 6.452969257106084 8.291304261472112
P 11.460935862930166 12.900930537402193 8.106712078922834
P 12.104069151476285 9.738740388197485 9.904073721991832
