27
Energy = -138.3834001 eV
P 17.35842436644801 10.065845847038663 10.287770358748121
P 16.02396460932517 11.385864709688796 11.553390969983097
P 13.122637624932588 8.900079478027166 10.503517576077636
P 12.108647783858734 7.598900610253345 13.91190978767413
P 16.956152706233194 12.133796179892387 9.662330804066357
P 15.895331574554367 10.446673892933944 8.623210265037581
P 14.360919362642907 10.605766682086838 10.212591204677496
P 11.777481324427935 8.88783703041046 15.650168819287018
P 13.22798792196534 9.547893168960355 14.04355594644014
P 11.45601573158679 10.29896406568345 10.839982949654432
P 10.263194552456824 8.87596910218865 13.970443110650134
P 11.467311847202547 10.594005254832016 13.143106728453166
P 12.61819028352196 11.821069363621655 9.661792538421885
P 14.664817663984504 14.56877307505772 9.307825074638568
P 11.574965548767365 12.45197963468271 14.41986311992464
P 7.493982144771796 12.322025242217713 14.188998175227193
P 13.597844966345772 12.960435993036317 13.80362054763245
P 12.929351479796019 13.914181859233404 10.375163857737887
P 8.708113679605752 11.50662747518577 12.506361396222411
P 6.4899880378400745 11.759758814888205 12.27985598259455
P 12.727088230754793 15.354554195752351 8.797206143626166
P 10.778697314129165 14.075355326212238 12.950847589427726
P 12.899167004257116 14.592003897351209 12.499287052037825
P 6.577113589309081 13.880602094258231 12.909939757487965
P 9.562949252020118 13.157709421589088 11.331267099121668
P 9.552861011672917 15.78316138624094 13.210071853928198
P 8.175649793201426 14.879015604289668 11.724770696835348
