27
Energy = -140.17109629 eV
P 16.288216854401192 14.09510115799231 15.081839435879962
P 15.059198793513243 12.322958165420596 14.453813427710209
P 15.253715901428931 12.911775509627512 16.61760952062169
P 13.063777997927682 14.882137493651404 12.535752646218135
P 14.367141423833209 14.85788731650904 15.953907629027137
P 13.249883270852969 13.656063126930189 14.407792882302092
P 13.274255138194057 13.669922112117405 9.483723561972923
P 11.274384718192657 15.84661079021789 13.422383665352479
P 9.765286093465475 15.649043193507426 11.711339778023891
P 10.109759730941173 14.242759463953803 14.448742152559616
P 12.330115673095655 13.148954761448989 11.378440176967809
P 12.164517378168362 12.174230465557061 8.331538794457586
P 11.478709296301009 12.632956892302346 14.93369323528032
P 12.933921467444309 12.218622477691516 6.288380255643776
P 10.195023732892214 13.662569552054336 10.844700120812307
P 8.872669692071145 13.729809183468094 12.575014382440067
P 13.178788413443753 10.16518054413237 8.47582116318152
P 13.112015160812621 10.136016354536435 6.299738542777869
P 11.880045397904892 8.564384905608625 11.281690768003246
P 11.949701437209946 8.412310857883272 9.013873588504977
P 10.326682444768654 10.08025292773573 10.817285346802311
P 10.60792078922858 6.773351679718856 11.448372694611924
P 9.761437460784313 9.02732129961386 8.941324430486265
P 8.678193414580875 9.616736015607914 12.232698383542111
P 9.13942407807024 7.565514807710611 12.964501033630025
P 9.105448637993408 7.104166766412399 9.796628837656336
P 7.619371461787273 7.892968037898011 11.298999404841895
