27
Energy = -139.31867795 eV
P 14.0364955771479 12.830748077846822 10.748344806359517
P 13.192550937887422 11.360079010903902 9.280683531675756
P 14.971355810151671 9.112922835370968 10.849419456419056
P 13.275329030505759 11.457997706976743 12.30711206586239
P 14.003007660323307 11.170258506882579 14.26507488378702
P 12.82794433967008 9.804359687971349 10.894224112593566
P 14.947196081275159 7.721228593218513 12.642783982303255
P 11.076126614102808 12.365624883085271 8.927149281653676
P 11.792117824767246 13.787424263835032 10.469432932967061
P 8.71767516374433 14.258102146077126 9.246876573294704
P 12.03533463675183 14.153229345343904 13.874691901862297
P 11.248898756336132 12.576069563659237 12.452316532282053
P 12.516828358052598 12.440705115074458 15.282580307788903
P 9.89470819432966 13.863834439322781 14.67278369793014
P 9.857583721424424 15.139189852169336 10.842202652871428
P 15.962311743691346 6.170253025640106 11.366576147823611
P 13.777053754108769 6.133347551910527 11.573675812218049
P 9.217928464915719 13.721062621308622 12.526592745354444
P 9.829215901997769 11.05111916278633 10.27051723928166
P 14.693369152110062 7.128157897281202 9.786134268421348
P 10.521963209362587 11.687571753369896 14.583744843989441
P 9.113824219050867 9.563842890876533 8.80188062464206
P 8.06425010832937 12.426841021806975 10.265056782798904
P 7.383240475170064 12.698915637122024 12.286366894471008
P 6.936503232182451 9.316327811187124 9.200068501082475
P 7.591404594721341 10.503307580164833 7.446262323545607
P 6.453140656211741 11.49483723712976 9.07480531504252
