27
Energy = -138.9880251 eV
P 10.044089229386298 13.285018018051655 13.832545949906875
P 8.808386031970675 13.82165123234252 10.323992399082439
P 10.051525000520177 11.28649848499865 14.637574334719417
P 12.021518373572595 13.077205544409253 9.050795247762771
P 13.930821372760837 12.33874944678573 11.89713010732828
P 10.22477980859433 12.659957861700935 11.741033139686653
P 8.306446779851354 10.171573743893287 13.600219836261113
P 9.90457555476251 12.648184178822635 8.571808384680784
P 12.661659020492053 11.474910798213735 10.429000661341211
P 13.707546814968632 10.69121998527659 13.313386516784888
P 7.0441579359371564 12.65191403420172 10.88451487954399
P 11.54528475814776 10.23064453341624 13.33278639171089
P 8.492735251619914 11.322785365126844 11.723999447461347
P 9.917090212753418 12.891650024471426 6.4232688743137745
P 13.664517191333971 10.253034663900863 8.796039587380896
P 13.556229719176919 8.731151728157235 12.216046363135995
P 9.206642630849398 9.706863746718591 10.375688195301251
P 13.019001842347791 11.904473321719651 7.3948142844795886
P 12.082734811790784 8.131254298761311 13.761405636176663
P 11.44283931212143 9.309994176511875 11.020054348643463
P 8.940553628792106 10.640828628350922 8.418952097840974
P 11.272248842677788 11.218182148417792 6.173993373125745
P 8.708889841112567 7.980686847469085 12.872164804823592
P 12.024487211697899 8.7005457214239 8.809889090623065
P 8.127182926728059 7.920397470956956 10.742968172813539
P 10.684866918179017 7.3960809885708345 12.103762939441634
P 10.452433842150885 9.397787871625482 7.395409799924729
