27
Energy = -139.68302673 eV
P 13.421200176250204 11.308599985941013 9.522125751417025
P 11.85492740347525 12.569800015242611 10.269398621277135
P 12.734521803905084 10.983341288643457 11.582613126563464
P 13.041815300226125 8.279285422784465 8.291707786216048
P 12.893751229961753 7.532203110104439 10.444995777451883
P 11.18330178283107 9.44116723640041 8.509344692745437
P 10.092435580928075 12.797659765584122 7.480652700998218
P 10.425473407001101 9.051105584036613 6.339119733880246
P 9.972819401105623 11.629274226985538 9.332256742564569
P 11.491113096206911 9.164913706703787 11.075419274115708
P 8.606725041559981 13.400667448748674 9.100439222297183
P 12.101201860893775 6.290904951480293 7.673063972530488
P 10.02596519837715 6.984564633596276 7.058351352240806
P 10.292261732939293 8.33794698046622 12.72874812667901
P 11.195622051921434 6.202283542747624 9.757346955406659
P 9.474410860543722 10.22361079223408 13.440595973136165
P 8.277729972930832 9.680573978869417 6.556545719462107
P 8.366560425562069 11.910222566435223 6.289008404370911
P 9.762808967700886 7.84346386117901 9.168023665557953
P 7.826187833520961 10.074876374962706 8.739998905611397
P 7.008100209776567 12.08724281256465 8.090106798285909
P 8.013880078414092 8.386786159059255 11.845200121946556
P 7.562084128288532 10.535401663670292 12.004043951257437
P 7.451440832792696 9.290025616221012 13.828194200178588
P 5.843463685614052 9.011725699660357 9.060737054159477
P 5.999463024654222 7.658449598564848 10.83929039089793
P 5.298470584675819 9.674584664837756 11.075936048629064
