28
Energy = -144.24827108 eV
P 15.875710213865917 9.914816468485565 11.886569364412603
P 13.235508389594893 11.777609057527698 5.571832846962934
P 16.507589135166793 11.320013564487473 10.252009301387037
P 14.655124683552708 10.16013578866034 10.01197887321814
P 11.904818810267557 11.192986310772854 7.227042392836778
P 14.969175619553173 11.701521186513029 12.918453974358341
P 11.659636535702898 13.158281319207411 6.268885604507645
P 13.419529455505993 12.768938175185763 7.5312284706459875
P 12.949709715567636 11.097506265459792 13.647524207937497
P 14.518596793999313 12.266386811193595 10.776061021943375
P 11.387315364267751 11.997987141613008 11.591445971209907
P 10.967486593135607 9.903204802807343 10.622989873400721
P 13.211462624797154 10.98356230597287 15.836331430614763
P 8.832416010488846 10.537912618583723 10.898331319139057
P 10.636743880073784 8.81247839872128 12.603856274201553
P 12.32273750974473 12.920133765616562 16.5768129189349
P 9.947211797767782 10.873841629305637 12.942291695914573
P 12.32831780004039 16.475677701475693 12.806051078865538
P 9.55802283738759 12.552142210202799 10.297788622508032
P 11.263705115643175 15.11218564213995 11.506321569031076
P 12.513695825475454 8.881909545721193 13.821733694083003
P 12.14155398984448 15.870430914456893 14.793473316980752
P 11.899432797032228 13.698747581774132 14.503588698816433
P 9.47333143250727 14.997490524088564 12.643776182476767
P 8.244601346561055 13.578694394076946 11.719047798366843
P 11.516986886652344 9.525583492291002 15.760059426837158
P 10.240886375917006 12.985578870582628 15.800380155746163
P 9.773326996600986 10.888878049790781 15.138768451377267
