28
Energy = -144.84034503 eV
P 16.95891442773463 13.463085435727747 12.352224479544905
P 15.563772084690013 14.849102794941075 13.519365586707675
P 11.26300959929664 10.479364785996275 8.02510490746363
P 15.592214881777062 12.124787068959565 11.266454246330971
P 13.867984054842552 14.99984979885503 12.133237001192319
P 12.880939688455179 13.147418410183421 9.458444286791908
P 10.68848287522999 12.044451173773728 6.499393151713679
P 16.109840618414438 11.616997713402707 13.367067477583792
P 13.251586141710693 11.192849838921397 8.555506284333225
P 15.0936250128563 13.087163790840634 14.787318441870335
P 10.709496141048719 13.463190016497537 9.754898744488312
P 10.35832531043323 13.960709248516258 7.641645677292048
P 13.518221383898394 12.86264140059463 11.604427865220622
P 12.471111640094799 15.161717712950487 13.859778029727996
P 12.881191025489539 13.350452865286814 14.990023568622977
P 8.599595956960549 12.726567752468585 7.010760390705648
P 13.996632717077752 10.060320954056111 15.862045998092713
P 11.63992502618832 11.875267923576176 13.799434371810168
P 13.232638601320378 11.472776192887993 17.38388892927419
P 10.000184330389597 11.314919297903117 9.639075438450663
P 12.488578532094737 9.846228910493515 14.220783610980638
P 6.767489127457663 11.950608866880078 10.196457342654934
P 8.108970105903317 11.25467296724619 8.610210448693344
P 11.169629085483889 10.673927812940128 17.312833378404235
P 10.599616364412489 10.37844657879777 15.185767786789746
P 12.886705639172458 9.277398383532363 17.644336337087857
P 9.67245237154161 10.339201396800881 11.535719756765834
P 7.701583853860614 11.098597504805157 11.856513059240852
