28
Energy = -145.30616192 eV
P 13.419672840457595 10.28560342100668 6.894782121454895
P 5.472680664013776 12.969727757945433 8.058596620475337
P 7.633886545552574 12.651608659053707 8.340139912240717
P 14.137434039204404 8.463436152765153 7.90776999983759
P 11.824992068300569 11.073149643843426 7.927650986128141
P 6.66416416764056 14.419148357992986 9.216486932485635
P 12.866298108462807 13.914179866564153 10.61701041266582
P 6.2590487079971355 12.42460768643628 10.042480665693464
P 12.74018283447464 7.945040915665195 9.513093980825692
P 14.779561780496065 8.817226082191633 10.01018209310092
P 11.608796798222425 9.97274681977786 9.851358297069654
P 13.553842614390328 10.524766460809442 10.7265766858086
P 14.41722438984656 12.427129154435125 11.209406508753867
P 10.952040065918144 12.801442627280176 10.673635303982335
P 8.163833351308199 7.851660160129779 10.1204793117519
P 10.929474091737653 15.982073008226463 12.262693945792531
P 9.523439843272005 7.844916960962541 11.849067567490222
P 9.68208567002106 14.269231827660725 11.87250012595997
P 7.652285002007714 8.993823126580644 11.928694261083379
P 12.862387742638683 15.03233198432441 12.53226729171926
P 10.56107393163573 12.464673019900756 12.850075666892701
P 7.59726392303313 6.788015883862581 11.964384499521534
P 13.360595001964366 10.091734040961738 13.130600134589564
P 12.239374312396848 13.438000181029102 13.912225001507892
P 11.963219445170635 9.377456842264252 14.72370629565361
P 14.038760218696087 12.139102632779894 13.674422720702896
P 14.111162154132222 8.807692348110809 14.844694002415393
P 13.399806307076913 10.644060997508369 15.75960527446532
