28
Energy = -145.43951505 eV
P 12.925460410513672 7.242747621519664 9.495722742199078
P 12.889161620628501 7.713639776235463 7.243204023357827
P 12.67361593194917 9.374093320223004 10.040741208300252
P 12.272681235399828 8.915866315304699 12.151586810523703
P 11.774053223566174 9.74632921948489 7.0226747176122615
P 10.876869153580298 6.392545025260361 10.011678515421513
P 10.647879607240727 7.3289197853452555 12.03731820780608
P 11.133426241150588 6.414135520044988 7.008547328079758
P 10.768043181586348 10.477671279249314 12.80544334635401
P 10.765783856591415 9.699882590883513 8.965346464877655
P 9.736690951706994 9.271870451017515 6.256897667437485
P 9.893491852415773 7.6665443606130586 8.37359915934235
P 10.850011081349233 12.081526697298395 11.17405003901802
P 10.147356668391808 7.385769428976367 5.239283738933323
P 9.33544350816135 13.548203430563229 11.926680103181164
P 9.425113236997092 13.101440890524731 9.747899945089234
P 8.01954350977418 6.283408850389609 7.910054362124632
P 8.093557734366899 6.5513246648388215 5.712499272259098
P 9.124701193233285 8.93421076281985 12.658855581919461
P 8.192614607915214 10.300810051195404 11.153700599304074
P 7.861358096489428 11.95275158533441 12.636136082256616
P 7.451844116271785 9.331583222897976 8.447376346930916
P 6.692205201002017 7.7707503185333975 6.962701726823827
P 7.262675681224347 12.815357697719136 9.383667368028698
P 6.577747239686611 11.295714535115803 7.877675608275314
P 6.118600993377621 12.365358921751355 11.30864271129904
P 5.939202709116844 10.147826492699178 11.247355908541584
P 5.369104117170115 9.851509414482393 9.099013456749361
