29
Energy = -148.50965813 eV
P 12.734170422525741 13.698977160924166 7.8111064658928635
P 13.484359114951891 15.07349548433477 9.396886056073457
P 11.801323030107387 10.676480243265129 6.62264313361832
P 14.52487886794215 10.595407878354154 9.024757262840959
P 16.08412749629483 10.611655985536165 13.695589904506585
P 12.538651111426274 11.519840018216408 8.421775329341392
P 11.305803688501834 14.889462761138619 9.006536203282437
P 11.353883749583142 15.247421486951097 12.425343297151741
P 13.854171546093179 8.573392002369498 8.492816542161751
P 12.732567196628205 16.632172457104062 13.429646616329725
P 15.485928155022277 8.92736758823338 13.02794650349587
P 12.193030064412293 13.905719031890714 10.796322759470218
P 13.394207249911352 9.344227767796884 10.543972047682882
P 12.064180659798595 8.657741912471831 7.183032994502776
P 11.620054779281267 14.009681631669794 14.22485286257748
P 12.123865171085095 15.866272862309016 15.272357247126385
P 11.667848616493151 10.74804680628769 10.396527628933105
P 9.643804428431311 12.406688035489287 12.51694494777093
P 10.756840119955761 11.09875155989465 13.909114693706464
P 9.669349101100106 12.920420321835424 14.680482168974534
P 9.99122795975817 9.27658568404481 10.492007763510442
P 10.388571387455924 8.276085670290422 12.424957574641812
P 9.549947732154934 7.364632890708243 9.617731052131168
P 7.9848995473970685 10.268739672203552 10.400831511522705
P 7.607898570072891 11.600396116520328 12.217440838443881
P 9.475983807090012 9.300836325903381 14.173142944903741
P 8.69435678301175 7.07574438155024 11.63657148379792
P 7.374947595987882 9.872804021555545 13.606888776689065
P 7.035921967962603 8.697752161586848 11.688573309355332
