29
Energy = -151.21662219 eV
P 9.965141918494716 17.33906521527034 10.430266702552373
P 10.118542106599286 15.991685706843313 8.661189670381916
P 11.867968532852341 16.279940622180327 9.998641424546834
P 10.726673202541503 15.79251656106263 11.843147782436432
P 9.098601775641974 14.106115624952922 9.28481408800905
P 9.493472357770694 13.972002123311126 11.441432117394433
P 10.885020892509258 12.998636719002132 10.00378548450339
P 10.016806470618402 10.922039004226184 9.781367321865906
P 8.285608747743845 10.870523899305107 11.192594574174207
P 11.575137792054619 9.917925880327 11.018115061011093
P 8.292816209892443 8.69977951213194 11.614979561115156
P 12.540115357352713 10.979254494836924 12.717369613932823
P 13.33800760467533 7.536048657394043 12.47268719872858
P 11.04052308430652 7.222714789458802 8.325029677555632
P 14.643605002927192 8.68397153555243 11.070588092624293
P 13.334925436551131 9.83220311734544 9.672581759556522
P 6.625292061383034 10.104276710823795 9.479267698047913
P 10.116953252760183 8.809791207596327 7.054887101094671
P 9.256698915244806 11.05851173356577 13.516008794514637
P 14.186069727165204 9.532980446310697 13.089091959166652
P 6.211565309270476 8.3662043381696 10.783382903189468
P 11.231156538962598 7.854983756708383 11.756509154713886
P 11.174249696294373 7.139172913252541 6.06812059257769
P 12.2415765663847 9.089209658499605 6.381228596370047
P 7.377250473095358 8.17672891440637 8.933436273135257
P 11.23817084811925 10.303391509499715 14.327194776369897
P 13.107786234325747 8.134460217452247 8.224297630708692
P 8.571978881430308 8.968888987786857 13.85157335010519
P 10.723110850292551 8.151310845623733 13.907801726452572
