29
Energy = -150.32225695 eV
P 17.128726527487764 12.678154398169907 11.308100988403362
P 15.307298166578946 13.95798184374043 10.984757186959113
P 16.022511136836822 12.6384414984976 9.347495169386779
P 15.80883334710542 10.953772022140821 12.126882986526365
P 15.423735332674555 10.58651119956951 9.984162700973089
P 14.32997428488 12.597995548229548 12.454024630753983
P 11.882276654807843 13.314174933787337 8.714579418253411
P 8.828086742735406 14.292322103970385 7.436171320977134
P 10.833519156699522 13.293936009638104 6.7290273226866875
P 12.482426522849062 11.977907022695556 11.421615738572434
P 9.237238478381677 14.362653018810322 9.635496676526962
P 13.208663522759649 10.43755722765651 9.926241607253994
P 13.031813896821234 11.550052382746053 7.944449545557748
P 9.822978304919078 10.89821391679338 13.40606716803049
P 11.871786674501948 10.817516274385115 13.240926651400692
P 10.803050581992638 11.512990278726905 8.09005559771054
P 8.217229571236828 12.619130810203288 8.781995637356644
P 9.09808671897615 11.4730719292436 11.379114417359038
P 7.051241547446985 14.064943068826722 10.007632460589017
P 7.518423058432518 12.99521280104787 11.999856459511504
P 9.348406073740776 7.740017723049151 10.973779310999415
P 7.291770136966982 10.159623895004593 11.365429024366437
P 10.524930048834776 6.292332481033069 12.204615805463016
P 7.830202928036074 8.29211746367675 12.500830970445762
P 5.93269548284697 11.519772058783895 12.354382511297464
P 7.35545664496408 6.844266485557449 10.853939028020667
P 9.107186915976397 5.284214172820366 13.584116606284342
P 9.690478536060906 4.294778143917137 11.685486578060774
P 7.580246169527105 4.943732468040899 12.004647844433311
