29
Energy = -150.8298801 eV
P 13.827854998929341 13.661993603357162 14.629865778225392
P 13.47509228593766 14.154319771489382 12.474585236434917
P 11.184305830181444 13.939750489953031 12.103429926881276
P 14.04541699785394 12.099569408897873 13.043205847725895
P 12.107246745788695 12.333706312264205 14.087448546778703
P 11.348340880820567 14.812454227974307 10.004550539242038
P 11.27968835643401 10.34431311199237 14.773497465878945
P 10.966178026817332 11.802405170416723 11.531676585729747
P 9.221851705644754 14.259308228907232 9.636153394314114
P 12.410784772673457 13.231679743478773 8.839471237661611
P 9.737328912291858 10.991106152336908 13.280541297760283
P 9.393987113785986 11.990201333277215 9.949265228752681
P 12.54912163162674 8.853418932727552 13.695286008352692
P 9.287623067346088 13.43787827153366 7.543654723882095
P 12.40413809130403 14.766895502740757 7.236363704667951
P 13.027610688791897 9.41556550902634 11.626995965882658
P 9.207801210929459 8.955780342624962 12.475688742284401
P 10.868135066353608 7.51947432792347 13.130136361084082
P 10.75836624246994 11.882368044920241 8.171172153522217
P 10.513595318907223 14.910122031152948 6.44591966155471
P 10.041406198283083 9.033724922616413 10.401050119842273
P 11.744927974638989 7.693849619526371 11.017621060024137
P 8.374342656681764 7.897730707497167 9.430791131546062
P 8.814848095939233 5.727624832861039 9.6174705441883
P 9.459301846245976 6.8229754997892735 7.823298435179542
P 6.776985290415046 4.9939687356781635 9.066589881100098
P 5.8975459493104045 6.451307154282874 7.638420844453803
P 7.74364580339209 6.588054944700616 6.413677529672762
P 6.857626896287911 4.599662688403768 6.876266774971384
