29
Energy = -149.30961126 eV
P 16.374399709895172 10.934670522016406 7.582676938752036
P 14.369627709791962 11.989454569029634 7.045247055233518
P 15.979580268272384 11.773433847846388 9.377479314567136
P 12.946432978433009 8.619493126427692 14.165174183411954
P 11.62523460116261 8.40194733974736 11.13613928355552
P 13.428818512280195 11.89385758478751 9.037649167732477
P 14.38850467340504 9.609909798872057 13.000374728225145
P 14.542022157366668 13.680394623709205 8.443142097162148
P 9.659117756077404 7.673149141156021 10.498365817173395
P 11.24060295883914 7.564396328260889 13.195312026159213
P 9.056779968258235 9.649899162926435 9.782122933000624
P 12.750241300107337 9.062412186413752 16.205479844852597
P 14.357195488124773 10.396904199606771 16.39536081037763
P 15.308605991942011 10.719680621092317 14.521833104890012
P 12.29815488341504 12.938382110802928 6.021877239141223
P 10.389293418047666 9.57666021905044 12.70726661461741
P 11.388371572120764 12.802549547710585 7.9933219480923805
P 8.359565194393483 9.292161863270021 11.838197150447112
P 12.495583242322175 14.607553210932924 7.395289900126452
P 10.696142019591983 13.082383275531136 11.855931100661731
P 9.742545142817724 11.057482978151121 14.412687445417216
P 11.189139566191642 12.67498765167583 13.975682096104071
P 11.163094821574363 15.267001017510903 11.85399096744726
P 7.962132829324681 11.450080973821152 13.227619880430176
P 8.488243819846634 13.212120375184083 11.97678869834326
P 11.138179367150428 15.899167364416483 14.00288591503025
P 10.01945444471815 14.221722507643893 14.996518252397726
P 9.351631843609896 16.294225323003072 12.659172593381303
P 8.243625698159951 14.60624046664368 13.648734830509541
