29
Energy = -148.83834452 eV
P 15.375367144981746 15.693384217505116 13.2400503903598
P 14.710446027844329 16.002966802156738 15.179768538005044
P 14.765422251713323 13.528055538786262 13.303761676480361
P 14.022935295207555 13.873373110564737 15.380384683521322
P 14.444556224258159 8.503828878560906 7.33396716407177
P 12.675228581669488 14.184235121025383 13.633281426967487
P 12.57072250286632 8.281620667262276 8.608148648423402
P 13.122598917381882 10.6987014147085 14.45149766955744
P 14.49901080334739 10.731906648734535 7.52407308232258
P 11.95583788173472 11.767607911647863 11.29691611789964
P 11.807216675070672 12.103208664114236 13.481017010521741
P 12.217020165076224 8.9247383041759 13.683923645024427
P 13.263088786677494 9.814415429282697 5.948426454916871
P 13.446755490655377 8.405029719375431 10.642445818773046
P 12.311813632678739 10.41179080885999 7.888678725401723
P 10.189288979973533 8.622106482179392 14.910682809310517
P 9.554406360467118 10.604189843460777 15.61144170830533
P 9.854740602312559 11.71165985833312 10.50316866049955
P 11.897346592599932 9.507006898666008 11.537940072484387
P 9.671749533031601 12.29594734077324 14.091675348415029
P 9.921215793404349 9.434199739376703 10.407855577538253
P 9.971158349008746 13.96999745598017 7.0057739554765055
P 7.775886569215707 9.294021279506865 15.296920274190684
P 8.183214864525457 14.683732632173196 8.071210890460737
P 8.504211042759124 8.167889696643684 13.522607898534487
P 8.4669586948788 11.781036610468286 12.32031868979027
P 8.152366889045789 14.49463882173092 5.876294152934595
P 8.190696140882848 12.690156514588423 7.142238222991623
P 8.254180984177843 9.593995366805286 11.88097246426899
