29
Energy = -149.39106851 eV
P 12.554533585482607 5.936748680533108 12.91672200832405
P 12.256416355101862 6.92683178975086 14.920108425265644
P 10.645366265411454 6.894704928922672 13.344732786438682
P 12.207114440800384 8.048317724186262 12.201909275258027
P 13.077775980178078 8.819990424637956 14.094944266961956
P 12.999899695349649 12.015084410817046 17.798970486836645
P 14.298547254206342 13.65158251476005 16.993566583949633
P 11.15796022402531 13.308394084034838 17.417545474746007
P 14.654225058511818 12.600701912361556 15.102764198611899
P 12.472747946963754 14.937273816151906 16.616216867091296
P 10.162266514920358 10.991777434033091 7.931297073453961
P 11.632105932681494 11.568186429329153 16.08690008444147
P 8.970462553583246 12.716002360869044 7.599444425183315
P 12.603119074087756 12.426487809803758 14.283193137094466
P 15.783715059081752 13.0514961287383 12.031744926895236
P 14.257472650014153 12.987016385153485 8.852212655791307
P 9.305970235659023 10.635234402283144 9.988631017253507
P 15.40351496371604 14.265295361878378 13.836807686387091
P 11.99863038348714 12.476352054150027 8.49490324787771
P 14.258710733753713 13.820988713196613 10.88198385697974
P 10.629212901272524 12.113910546195063 10.995387008385253
P 11.90829405890726 14.515001274835406 14.540113984404355
P 12.369234270453854 13.238941038470053 6.395547299970484
P 13.529251453943616 14.691166753294375 7.658072241991615
P 13.522423671250522 15.580231143368328 13.447825195116275
P 7.909523854089251 12.360572410236385 9.5524160894546
P 9.31212192731769 13.693499734743025 10.623684909341828
P 11.23117110192591 14.445604196358193 7.878360447396512
P 12.777808429828326 15.172202112912782 11.403590915102471
