29
Energy = -148.79845592 eV
P 14.994666741231688 9.699019039869151 10.983927101048941
P 15.209792837510841 11.088092061945549 14.200630197161782
P 13.82927852356894 10.206431338599693 12.768704549210607
P 13.357842980669362 8.47542509319933 7.972064741981632
P 13.182466629243157 9.069398133325315 10.049166133093664
P 13.907810012420804 12.699741168484698 14.449190756383452
P 12.94433507939232 12.27828798222049 12.52953598851796
P 12.362274916440876 7.014510898377685 10.458504839945808
P 11.574943769728554 11.5037569415198 7.5336355278200555
P 11.891584397626382 7.011262416107101 8.322337283303328
P 8.961030278461715 6.209545889045487 10.144362248804232
P 10.436837639457305 7.059439031270866 11.668114145785566
P 11.21008818848098 11.371622636548102 9.739623710470683
P 10.802871423814654 12.167345495358227 13.118115297512515
P 9.994480735143386 9.157237281861178 11.617406242822712
P 10.961902394072334 13.315762207599866 8.63217572403516
P 10.511134188032557 13.684423097187995 14.657294771583066
P 8.44271242572122 7.78171178086955 8.739665949738438
P 9.511470404994817 9.876170246603243 9.394614052894871
P 9.623005903874258 13.525001308769871 11.785261684148704
P 7.171548803073805 7.433881208976431 10.516165676113603
P 9.602309037140495 10.442392671135828 7.1512371887120665
P 7.849517213238444 9.070905703203321 11.992470445222471
P 8.821953532754799 14.369418552606415 13.633944256802254
P 9.064196823056712 13.93576666952615 7.687147273968966
P 7.564676934227195 10.553507291125626 10.300125666105314
P 8.07866816617479 12.060260548966811 7.022682759922076
P 7.719137131262946 12.630089958132025 10.965390380353163
P 7.2852327074970304 13.177363165876573 8.834275224849437
