29
Energy = -151.05660351 eV
P 13.136650923781081 12.547019526980462 17.000748087453747
P 14.772861734653594 12.552384714948294 15.459069496685606
P 12.874513861893027 13.722421625730279 15.174000644294734
P 12.451467131650155 10.438330630022692 16.37610783458297
P 10.647405883191452 14.469823555727457 9.234305762141032
P 11.54478874226505 12.399501761865585 13.870796113563546
P 14.157560344223256 10.43271015254022 14.891185853450452
P 10.713790047703018 10.959487314781665 15.259645558294368
P 12.18275996975813 13.496292826872075 10.540392358841947
P 8.60650126878205 14.07421339156983 10.095563453123818
P 13.377635969346453 11.440739593311704 13.13181276358048
P 7.489648123117799 14.583832171229425 8.24498898217862
P 11.0228722003962 13.0719011833977 7.525734444420922
P 13.064143029112758 12.922340725298632 8.483228965711591
P 5.486774831873309 15.047916619546578 9.11702654008597
P 14.334184915784375 9.576906279451494 10.14539255930216
P 15.773263917412939 9.003687167801864 11.721504266443741
P 5.2124374827136695 13.762417663050066 10.901407434792638
P 7.81039079207363 12.481711597432964 8.769042210769566
P 11.115193011752583 11.510997906770223 10.574275409787777
P 12.583114224274606 10.084809598131066 11.435440191953429
P 15.079225367938058 7.185475436069097 12.794833291168963
P 16.41659133824649 6.967972664469604 11.030936236510852
P 11.683732625455491 11.157752633056214 8.426138914981253
P 5.961396211453227 11.93112338357247 9.891872574265143
P 4.342526946983818 13.143770894808723 8.955768197383144
P 13.167728482539092 7.689893352843729 9.801824649059188
P 11.532976489135486 8.218551518291878 11.194779278775703
P 14.34569945820261 6.193025156261563 10.94794540260545
