30
Energy = -157.61360409 eV
P 10.166936004534854 5.929658918725907 6.907730418826438
P 10.88626996680733 4.686684782579726 8.611364497038586
P 12.359997248352066 5.8698209506343675 7.448294313876601
P 10.478569635389437 5.898930797984649 10.429681015322233
P 9.972466485224643 8.007840109731376 7.797992962643656
P 12.148324352544034 7.96533524289136 8.300147599577882
P 13.440778060140799 13.455646803074911 7.840183379864268
P 9.010748383911132 7.408022721653099 9.693045212982303
P 12.121721486356225 7.430607231984154 10.434040045951633
P 14.775381517543353 11.949679287061784 8.975806150571957
P 11.564086230134093 11.057438047890994 9.102108216032107
P 13.395943872054456 10.876224972256551 10.298894939866083
P 11.364594869242021 13.187798511163162 8.600250437738147
P 12.770666991647506 14.353385121143875 9.799284835407631
P 10.254647013666188 8.4833328753588 11.234137392837512
P 8.106042952854947 11.203902442119563 9.706824685141106
P 14.073032982394341 12.860354914506102 10.931072051580767
P 10.031578891366035 10.654444648978972 10.66116921019915
P 8.459109861795046 13.324131673042555 9.946107461845326
P 6.715470245220015 10.75454830003803 11.429610520437985
P 7.566793814065009 9.461105940322724 13.092330680424796
P 6.868607644640067 12.587641732001213 12.681549331570574
P 10.308718857258736 11.827922196506561 12.545895784845444
P 13.894783860764841 13.623851405167398 15.058727736689784
P 8.809711688867015 13.453130783460423 12.105718043761344
P 12.812023293100124 14.516431227646358 13.36735272368781
P 9.329242151088064 10.458796209544783 14.004472397556308
P 14.633456522470373 15.483134209572242 14.13956591295292
P 7.314308677663865 11.25457720755846 14.460384171073528
P 12.779492983761445 15.509284197683296 15.333824107607507
