30
Energy = -158.81194838 eV
P 11.22640987223239 11.716416528704187 6.308379631144784
P 10.805319298128902 9.724011983480244 7.221625878025723
P 9.298972414400735 11.35572421861885 7.464665211138892
P 12.032653588526397 12.894508191927008 8.046085734955101
P 13.394211556114259 11.314121220105584 8.709460511726357
P 10.121744577670546 12.54991400459837 9.197993278383759
P 11.978231576541157 9.648652106636503 9.135088998564688
P 10.462137916901437 10.710514221434265 10.340289712600297
P 15.811298978676197 14.723723318820284 10.221143605322677
P 13.773553895988737 12.214895739907005 10.702574074262941
P 17.51078812992714 15.517435906013878 11.507467836714403
P 15.375772822669754 10.914090901392209 11.514676582675971
P 14.376289026000372 15.065410377095503 11.963076250387765
P 11.96227049690244 11.429434563245687 11.835471969032541
P 14.462402089407867 9.318732231021373 12.671959410446647
P 17.366868911528215 13.399775207162158 11.021433901642776
P 11.252635669902508 13.0055019444234 13.258722322072526
P 16.548929478094017 12.36791247195388 12.781091064667676
P 9.13246556917846 12.424394154977044 13.533399173776216
P 15.164301054772963 13.86209209937207 13.612388177613969
P 16.068121284786425 15.827261498749543 13.272052464660435
P 12.566436545639963 9.952961678440419 13.368822471026057
P 9.266263795725243 10.427016020534515 14.494902340586854
P 12.408126696949907 11.786610714461597 14.825072701534555
P 8.900159940121657 13.742270310710005 15.276833307483592
P 6.973943251481836 12.779107382547467 15.911700288418835
P 7.452325495611691 10.598059002592363 15.78226498895387
P 10.800637500685333 10.873678301853184 16.028619537388803
P 9.997165639207761 12.69177465671067 16.951105518482628
P 8.074622779648498 11.729058895932674 17.606692909731116
