30
Energy = -158.82211817 eV
P 11.543222337964492 10.920974051319815 6.72362369622162
P 13.646770635029352 11.5815473854013 7.302418216162472
P 12.644537062037449 13.551940337203064 7.83519812917964
P 10.581189166819357 12.76398104954023 7.690419740319902
P 12.611210379481053 9.948570848980724 8.371240496451952
P 12.683319667623648 14.880236728061375 9.599536200000239
P 14.834259570182775 15.259082398627378 9.952049778451014
P 9.299455088989605 9.132043164764397 9.97792644014158
P 10.421547814611676 12.353608348014951 9.84382645130443
P 12.132692175199127 10.956263200961004 10.294106858521586
P 8.57658010237516 11.20055537876669 10.263759160233997
P 11.147567495829888 9.191766316748675 11.196046661582512
P 7.987583761763691 8.118032501614243 11.47367904153845
P 14.157667802308953 15.948294544195406 12.046292867408882
P 15.556653925151494 14.27815133675756 11.810363631626965
P 12.14475092933152 14.921013319038659 11.802691682142495
P 14.567743622039695 12.407650467768917 12.526435551979684
P 12.381295309622818 12.963165072920283 12.767593071308767
P 8.730895944663175 11.41651517004286 12.452326977856258
P 10.433735441473 10.074299862239405 13.066986012905618
P 7.292077581522593 9.733190523846766 12.855262640410604
P 9.007855705248748 8.369224422836947 13.447125245292963
P 15.369054880288434 12.706662230694638 14.581320811360017
P 12.13884953842734 13.69143782594525 14.853491867272055
P 14.183379066549938 14.464538911037687 15.213888743222663
P 14.354038095143101 11.078586181214174 15.655095944581147
P 12.21100749822755 11.759749348852568 15.890664662216864
P 14.30231199517288 14.131912004127805 17.41016010647312
P 14.830741180277599 11.968009086868813 17.66103406399129
P 12.67515064691084 12.676142401875353 17.882579670107987
