30
Energy = -158.32162006 eV
P 12.026494625717776 17.974066834132138 8.053057754447492
P 11.157711678375769 14.849570357762222 8.971376136294566
P 10.313762904232513 16.882181142827708 9.071230247994349
P 13.833481458399348 17.094931200362723 8.996644930188909
P 10.795053044798102 14.214179703849615 11.136075209304181
P 13.138683638324576 15.18800516852894 9.924277012849123
P 10.984187754678706 10.39876878679038 10.741570885341645
P 12.735429741249494 18.701361020051174 10.073396644357233
P 8.919952284407206 15.333157984654164 11.605550798324746
P 11.01932568011056 17.590401216642142 11.066666219969107
P 11.71854855322642 7.356552857415527 11.658339119788664
P 9.807502556248572 8.432776402990852 11.163372983540892
P 12.680891358952406 8.99254962199358 10.466376019575677
P 10.98088636615572 10.556908552862671 12.96484713361867
P 12.190746524455454 15.875957723473528 11.817823897553616
P 7.47953633535062 13.798878196149587 12.492316575906823
P 14.22035001301252 10.133771233065309 11.578232263566356
P 15.453340247877845 8.52918734297444 12.471802472184354
P 10.593006413947503 8.377219473123532 13.265582435449836
P 9.317648526609087 15.69371630180691 13.789914808459127
P 16.848438314608515 9.82614990457099 13.563282774431745
P 13.11805737512616 11.070011070697456 13.353111811951825
P 8.638916517620645 13.642313484093604 14.40425728299524
P 7.141381753300727 15.236974163526838 14.172952301566637
P 14.130774535285836 7.842284156866932 14.112076295512155
P 17.608249496467774 8.157942722100271 14.858874959779884
P 15.66032748434058 10.638218542960754 15.312734867625378
P 13.651921469461923 9.783709053609691 15.082002987135647
P 15.720542671146918 7.1540465950992616 15.515964301870516
P 16.41207179316683 8.971430301672811 16.61350998507171
