30
Energy = -155.93933286 eV
P 8.682353948232347 15.419485136510318 10.024631662200827
P 7.710894681037625 12.77248745842303 13.008059431840467
P 6.98922273847259 14.061066711666502 9.650649584233479
P 14.709566785937554 13.964814466487969 11.398885898698126
P 9.7803571217913 13.080624017679655 8.2500928830197
P 9.676589554998829 11.834356005908692 13.419861424075117
P 13.001041062207143 12.534822030099084 10.978954759585855
P 8.923002732084278 13.197179402400199 10.362920149835771
P 6.702337367261825 11.376511264735456 14.196663751025797
P 8.608490479870206 10.356415306985408 14.740712884428397
P 15.229571746662916 12.793640947675364 13.271090140116664
P 8.267795112977074 14.729116625428896 7.9360200180486435
P 10.979643559830592 8.882379451278819 12.6302920149108
P 13.979450893249606 11.346811935037746 9.405294512632777
P 8.968964212430167 9.915246710504059 12.58337055187368
P 16.485584751486464 12.627564905459991 11.44798602658443
P 14.65550885887703 9.69827276344654 12.055077918935583
P 8.461653609915365 10.46002068237543 9.199673357087878
P 11.30396552104455 9.476259868208077 10.514687477921111
P 13.504623816915105 9.252854848413525 10.144595310364203
P 10.746750762656035 7.390605045044954 10.979427334917736
P 7.781975188029959 8.4027267332274 8.82597013134706
P 13.499461898284153 11.392816657089048 12.842063637926875
P 15.838503080190742 10.73496858251462 10.464977042520692
P 8.960081156876212 11.236482785259351 7.3593289439163385
P 8.546378520463774 7.171406456063315 10.502798471842963
P 8.73666274408399 7.595223088139497 6.992612768054113
P 10.264113603672891 6.099535921585765 7.574819989876933
P 9.068532468735562 5.361127467454204 9.327943813018848
P 8.15739200139447 5.466786370171421 7.294691098904445
