30
Energy = -158.61966084 eV
P 15.542519268875996 14.265158801228818 7.354235626896036
P 14.462198862549675 12.811271954955371 8.664122882216535
P 14.162165165217624 15.99136926331097 7.027171574356034
P 15.803567074074786 16.109894436080207 8.590549574787747
P 12.377209111960337 13.574049999564751 8.304512011286516
P 12.2274365074574 9.858958996464223 10.20663135369278
P 14.013844656852577 10.771362292234992 11.183569770614328
P 14.90019984912654 13.765082314513299 10.594201429769553
P 12.647472138596331 15.722552484619184 8.6653835372237
P 10.531479597159958 11.295908725187608 10.5616640513372
P 12.876315519885472 9.182449110973405 12.277415162750973
P 14.283568526767004 15.835718181268257 10.229990156123822
P 11.389812647583014 13.33247105980462 10.258549368357796
P 13.09167607202321 12.798239919083544 11.687269269001309
P 11.174431646279372 11.681421435285547 12.69196889464987
P 9.887165682841122 13.256635778752806 13.481169557352544
P 11.404827254406582 14.928244863584096 13.980684055035411
P 11.505893860315654 9.93681266799098 13.798529979546466
P 13.430598116946115 14.176980550890391 13.561968184778975
P 10.555682311039968 13.645251767107576 15.575197018765726
P 13.97048748469158 12.623475168007422 15.057719908917722
P 12.06983991825306 12.158061460155281 16.22298030335495
P 15.098691421065023 14.029576054084385 16.371793316211555
P 13.445395878338864 15.048948871515233 17.437338810378805
P 12.333720929580899 13.27918739867783 18.14107529475606
P 15.781214940805842 12.595293598728976 17.881934199715285
P 13.92288398863269 12.07789270334166 19.05772495624123
P 14.515663463663284 15.531342342081931 19.33093600937284
P 16.301851191704664 14.187926174491908 19.376694529275504
P 14.42901380834242 13.665288521052384 20.563846108270532
