30
Energy = -158.81445778 eV
P 10.993991958743813 16.049555132135087 7.621700377402311
P 9.202407415401703 15.12797727254938 8.682499667133063
P 11.764660204647711 13.991826484861951 7.15637790043812
P 9.98975169974435 13.078006330222832 8.224005769558325
P 10.871610400257593 16.03535344127283 9.856179883520221
P 13.331322156967945 14.101787215506699 8.681982423105053
P 17.690494220219797 11.141591034145229 9.122113573306322
P 10.686735831481274 12.694969358516586 10.274237524181464
P 16.367156270718716 10.432099943429685 10.797057579731534
P 16.96323173713905 13.128788602061517 9.850708532019603
P 12.14607472715756 14.340884038640082 10.543886937219906
P 15.050397431124283 12.27641505651347 10.736557697218522
P 13.89743128324722 11.967775495997518 8.824398177639912
P 11.999144041442495 11.013224248330287 9.620398183331476
P 18.144927077122098 11.75878161814773 11.180453131164857
P 12.986867361628864 9.767894953847291 11.132497505064771
P 11.56394086505539 8.181686465373117 11.796076377197627
P 13.50607832428935 10.411530218932203 13.206421399246945
P 10.0063863305662 10.999432777981793 13.582466813973028
P 10.422537726320776 8.82258160845978 13.574011933546714
P 12.039737272290473 11.999178333080511 13.575604605113597
P 12.560977466418423 8.4427810329605 13.864276889321467
P 9.408428096245602 11.058690905145557 15.720740167907909
P 9.040698231253423 13.211426787042535 15.908063591757836
P 12.486124711891941 12.471010882086329 15.69118436536237
P 11.096145801431948 14.156280989497812 15.893032086417977
P 11.379160656682021 10.851353922526505 16.711862716758183
P 9.073254867676237 13.149488408103753 18.15028021998836
P 11.140165649594865 14.11186423928943 18.13338655375355
P 10.900297242377794 11.935900262480759 18.597674476757714
