30
Energy = -158.40008396 eV
P 15.347804462972187 15.20499413416958 9.560515802543064
P 13.552665064650581 13.864385242130815 10.18759522764627
P 12.432680683546648 9.312813503292112 10.612724655424469
P 10.301161954816594 9.696468227730685 11.106459391430441
P 16.560744204350982 13.678143106682114 10.588836288273948
P 14.822342147129 12.972449200109118 11.829315937703528
P 14.715898187964198 16.458405128141763 11.335478974263058
P 10.377940894068184 11.847469920822057 11.570371739068836
P 8.259909750609298 12.16597545951939 12.139405797152774
P 17.857196460117255 15.303675488200323 11.393411304697969
P 8.346099721097197 14.312259949786041 12.579187768734476
P 13.567765918908465 14.780391988316325 12.233857631868759
P 13.508358097494963 9.394726303157116 12.561686888431629
P 10.396891468258103 8.602348345778251 13.04325287528017
P 16.54162389024968 16.51849171112716 12.66137153438053
P 12.249279053002265 7.598665177980528 12.060001012966318
P 19.221864651697324 14.557027946876445 13.031664836640406
P 18.313818351322706 12.588941064168502 13.526984594364253
P 16.329728351145537 13.089898086873152 14.418920726781172
P 6.406761865425859 14.305213662333042 13.710032437318514
P 11.524758184712518 11.945536936402434 13.558858691444911
P 8.254962185020368 11.298884254690767 14.176834439262917
P 11.937041552277126 9.842156804961459 14.06691912591394
P 16.246758094476334 15.33595688525758 14.525663310024767
P 6.613656378539304 12.530735228701802 15.053386654052275
P 18.407670860715275 15.512499226968888 14.915782882970188
P 9.498508377884267 14.459667483196613 14.517952912523947
P 9.963716909770184 12.386032423436077 15.06330925262248
P 18.21272635322045 13.315763505861558 15.643134520791396
P 7.568746235645548 14.459103914416692 15.666163096509914
