30
Energy = -157.00657725 eV
P 8.644672212822961 7.3992545980958395 6.9426588964099505
P 15.178516706658165 9.279996222663295 9.771320299570394
P 14.456549515556043 9.917850031411351 7.676032304893135
P 6.76118100926639 6.496103923112459 7.8812463465486005
P 8.511436931059832 6.9882058209070435 9.113341788632045
P 15.907139208060869 11.411470841109374 9.977947729097055
P 7.426939905450557 9.23503130965187 6.410452702465283
P 13.116085244230472 9.958837586730873 10.473074974200431
P 12.746309643252863 11.101654869191732 8.53848381942389
P 5.700574446538147 8.48660348029328 7.63180876165988
P 9.30152174868532 10.33519643574066 9.349581375879714
P 8.021193131088182 8.782980775365347 10.326864687195192
P 8.12033892356974 11.005716036742662 7.588536182841341
P 14.673785763441945 12.089566424258136 8.18699555557892
P 14.422684442925016 11.316438983441534 11.603328499047114
P 13.3808979938817 13.300281080627634 11.611501155379148
P 10.676836348010072 7.142643247346789 14.529084789688902
P 5.952615029629883 9.360852937393119 9.642870713354021
P 6.33632760413969 11.425101038646499 8.868476209362397
P 10.265397532617712 9.138276619935448 13.701289554565076
P 8.613344971484517 13.801572438320722 9.50308219483113
P 12.173046609909836 8.74690296748923 14.731253907182936
P 7.978787936605924 11.871150209340195 10.371569564152914
P 10.300826265418888 8.839644882866601 15.883719889877064
P 13.367653749911112 13.649620219434103 13.789553879843167
P 11.33101095883887 12.549369958180721 11.216537732420788
P 10.52934951345076 14.267125205667673 10.073389635272385
P 11.72011600211596 12.450568920625345 14.710698116319223
P 10.274611812710782 12.984680334646004 13.127709221432665
P 11.405087033501209 14.597812016472199 14.189895885827925
