31
Energy = -160.93127368 eV
P 6.9137063451995004 11.35955943717256 7.255359618952698
P 6.877862153141161 10.22588243462312 9.203412476154911
P 7.347854704662932 9.180541822252959 7.288619385644499
P 9.505254008322828 8.605584766607326 7.054191515557215
P 11.057263639786155 6.057825662470764 9.632282857914618
P 8.680651148806815 12.564415187027574 8.098186670794728
P 9.854913978119471 7.910455873131515 9.237697982175046
P 10.395270705148311 6.979343076938529 11.522837549871594
P 10.87130969563265 10.31510062351409 7.449566167971613
P 9.019068736176541 10.890364321990859 9.498629196845222
P 10.557829404059778 12.366757152583759 7.00767911439721
P 12.663891410281924 9.892723529230048 6.22732417112633
P 11.90380520358006 9.013157666888274 9.264907221982002
P 12.396287003901357 7.374866454905512 10.844371872374296
P 14.201725757314614 10.478068901497146 7.752980228901115
P 13.416972293236727 10.613807935149296 9.84943540793651
P 13.419696977023726 8.376053353160627 7.681878630824277
P 10.790370536738314 13.450714793589809 10.373098529552635
P 9.369697345778084 12.041366523498956 11.382692393893134
P 12.912912155016725 12.735288817065179 10.288332169360453
P 10.770353001906683 10.620736563018532 12.362049731794928
P 10.967811935744855 14.899418136373779 12.05811228141673
P 8.643046057011139 11.356347573569298 15.156756978883822
P 9.131888688451221 9.779568727566131 13.61559311762695
P 13.612429081726125 12.63350519755669 12.379799201001257
P 12.996829339255198 14.734635950991416 12.926219576289295
P 12.003288016156521 11.87003904430676 13.72153719065226
P 11.164787992939331 13.93102247783278 14.0429734846467
P 8.480516360387744 9.684227711627848 16.650733741867253
P 10.378038375872391 10.79015419441387 16.468423747256423
P 10.151075290662732 8.835688650967 15.401887746538776
