31
Energy = -157.69754035 eV
P 6.1529936766094835 8.451348632043203 13.313549592686096
P 7.139184938871518 9.846863286544503 11.999508919258517
P 9.785412454639825 14.17326613032162 14.783782703624102
P 6.49433045835579 11.860425186580555 12.159885727628916
P 7.718532177363633 14.507852405548357 13.967587487186218
P 14.270689420008505 10.837655726244044 5.789316581381112
P 9.084457890514045 9.306716819509731 11.014698879012649
P 5.703570812129373 8.373096944661105 11.291599980498434
P 14.217208348932283 10.405218006874328 8.953780971298345
P 12.852633767585248 13.78164175885099 14.381284561389437
P 15.291438931821881 11.736332298790462 7.458202296606282
P 12.642210839658572 15.981193863408295 14.708488035641608
P 10.95728238448948 12.192955905594893 8.372644369959549
P 12.047663733615975 10.273657369344546 8.647315837981957
P 13.864086475038857 10.342133553109553 12.591373919497235
P 9.33696084543127 13.891212388626547 12.6216526700156
P 15.14891465495704 11.040146874242268 10.904417203216438
P 14.419982399343787 8.427209830079317 8.163652370795669
P 13.8844590857883 13.031751379258132 6.225431797090897
P 11.244515971085967 8.427278286057332 13.689452371536598
P 8.078869400572602 12.322926350349418 13.630086048252696
P 10.546606059264462 10.129913716006826 12.453851404756092
P 14.949961904747608 13.266061859112874 14.595027599978264
P 9.043296019718676 7.126095379791712 11.289573800287423
P 10.251638400497216 6.631505048752958 12.871208156430628
P 14.250915330126194 13.94798853405215 12.659691667368106
P 12.274385674132507 8.946652351143616 11.740353300328188
P 13.366597420612043 12.203092683007595 11.512678451610036
P 12.908122061160494 9.28978359242085 6.819630481706152
P 11.96893161290764 13.508400133458435 7.167220730932178
P 10.606931607977028 16.242408464170754 14.725836840002662
