31
Energy = -157.03239725 eV
P 8.850707611083308 17.95069091141843 12.35923909629221
P 8.515255213202344 11.35712714761631 11.626902887060606
P 8.46251607233972 12.492300529152212 9.710739698946341
P 10.288157078212038 8.64273292733065 12.556853232111918
P 14.767957743704864 15.54334595541753 10.640575829032246
P 9.480885687817617 7.477509110750874 10.876789623270827
P 16.622132506036362 14.536094175785703 13.498257958239789
P 16.80445232938457 16.26973050347508 10.406341552721797
P 9.205959972032716 13.063182412282767 16.61635000392329
P 14.079860028018489 12.673094392565051 12.378221305685583
P 16.136917340325514 9.37770236514479 14.2794694924262
P 11.563200747958179 14.224608207244932 10.63331066282451
P 17.99314373450735 15.256061511387003 11.896808870829508
P 14.185537303271449 8.712996117827135 15.047396539629649
P 9.910708415277043 15.430656497031379 13.508488424578486
P 11.165536565663038 13.76141933631374 12.743931162776345
P 15.17129743314226 10.473666783556332 15.928096018533031
P 10.83352455928555 17.23193826183271 12.672112235755964
P 12.156439321407227 7.536635754498182 12.15395494874282
P 9.174690123674102 11.764673876085093 18.00916230938361
P 9.918962897124691 12.001544025469356 13.236721068904263
P 15.996011259200193 8.461018137674222 16.2777627399157
P 10.011881793389477 13.695437400914255 9.138059984934168
P 13.123777412275501 12.630931834148436 10.331201407677158
P 17.53901981919046 13.052841393878289 12.086663500022182
P 10.64641528990911 10.661451327003341 11.630412896084671
P 14.52591647775735 14.841313455588539 12.740660836015346
P 14.941996334090621 13.672658328660077 9.473406997442044
P 10.971661469854919 6.011879540400897 11.271565051050748
P 8.15295867884197 15.948185776004319 12.279273225056507
P 15.786981790369548 12.231035011890132 10.975733448479856
