31
Energy = -158.83481275 eV
P 14.070533394497337 9.29352674056373 12.243921677667934
P 13.689090608101319 13.754393370606444 13.908915765916376
P 8.806324480941036 10.605640383062978 9.717952139589178
P 10.678405379256187 12.438283273436898 12.246112723602286
P 12.893677358870546 8.650535507385161 7.511852997580027
P 17.440355281754417 10.82530136453692 8.972115045457558
P 9.752830986939939 16.485022309997948 12.306932067931653
P 12.330670162231998 10.123971754689027 9.003442024510969
P 15.952148140655131 11.533191406146544 10.483059048720703
P 13.919255216486084 7.794896829949494 13.725571079383423
P 7.661876630171163 13.832426466160834 13.431716793843474
P 10.43776847713503 14.545564258576256 15.106928972797919
P 6.72162871033811 10.699648660875985 9.85049900656617
P 14.17848120084839 11.624979186421283 14.562183206820892
P 12.241210784021028 14.0215965901187 12.231640397979843
P 14.537364433364031 10.067151220851976 9.531686429236997
P 12.475472501520015 13.952785437767963 15.7904744558492
P 7.864220073646986 10.203863709605018 11.673879798598776
P 12.446589144477318 7.949363546071962 9.500532793649485
P 15.650821081995256 10.329017894957028 7.655325920428489
P 9.331165209610578 13.258892035305491 10.660784203322148
P 11.458611064936125 15.690251877418754 13.488610053082787
P 12.210984650080071 10.640283722031901 14.516922821151978
P 12.764400023980043 11.779393845091146 16.34227213072374
P 9.565833553668659 18.37795516235374 11.835186018666978
P 14.603133908868552 8.077720983475086 10.512925253913934
P 9.502746480430343 12.792448754799267 14.136579142540853
P 13.00543634227882 8.749725754075861 15.367054980747165
P 8.230425742497513 15.04484460447971 11.652191308480592
P 7.489783099888938 12.410706420413948 11.60000100549753
P 16.076317285149575 12.434178337413632 8.420292144380959
