31
Energy = -157.49052482 eV
P 14.19285772620121 8.316592444642797 5.729853040154447
P 8.441614280864064 14.631664231096108 9.230154932470343
P 13.88108790597556 8.731494175965235 7.612488791752847
P 9.357381769398868 15.06884475318448 11.278462262904776
P 7.081162769529116 15.222204271526296 10.84651121990522
P 15.64055893687238 8.964822284766832 8.957701926851543
P 15.200528112872618 10.977879014364907 9.764154857748139
P 12.033831863090832 9.601257856068788 8.501623766707075
P 7.432458367974992 13.123982630378036 10.458506616591956
P 12.974873678210704 11.40177127432444 9.38940423888661
P 11.327127698031726 15.8426182953419 12.253455325869403
P 11.361240236524445 14.029663211144467 13.134019610260546
P 9.506355907322188 12.986742536943797 11.992093496885268
P 15.816620267405256 13.654967122692877 11.665770384239384
P 17.435706666506622 12.834116879823263 12.658910824918914
P 15.257597276881013 9.218147862867967 11.15494623466919
P 16.630201632081196 15.974666820669508 14.586310185485061
P 16.07263932672577 14.083139255944982 13.776279392667973
P 8.171137313141339 12.965010143806209 13.767636917008039
P 12.366029272948206 11.10497622589863 11.52548985339157
P 6.741411699684159 11.356192323230635 13.202160242712269
P 15.380690508359256 15.189229330811747 16.132514169953975
P 10.448471644808762 10.017433483932194 11.017318232221141
P 13.127708635248547 9.028041317626831 11.814973141590164
P 11.719855592038355 8.269199401020916 10.292804765765812
P 14.821243382456432 13.295998899654188 15.310233188911848
P 7.753690797598309 9.373255834490852 13.179787866064688
P 10.809762320873547 10.804908045475656 14.461340075560226
P 9.961184537155747 9.330272604781642 13.122599365877472
P 9.088962819537482 11.713739008576017 15.42365154167331
P 7.342671005069251 10.263832410334235 15.13550748168775
