31
Energy = -156.56548295 eV
P 12.802761732661619 15.931247308652079 16.733926179858067
P 12.609763075565063 9.626555983613896 6.811988398515425
P 9.796657543231369 10.714138930059715 15.726385960798867
P 10.768755688559605 10.88327298161953 6.909910828244935
P 17.310164590656385 11.601787876773608 10.673369651075067
P 8.417337007139796 10.922728744482054 9.475035257798941
P 7.36672549826236 8.03066539888345 14.935599663772768
P 13.871558154683825 11.933706750562026 11.159956560611672
P 15.772832560431151 12.600024251155666 11.746720946971042
P 16.498262280423653 10.170540723871069 9.372188309622802
P 9.030546371547048 8.987450051071992 14.543824127596803
P 11.10794561958936 11.599782072712731 14.14927166810252
P 14.467952682697844 10.547877787547089 9.704231023022434
P 11.430446377220774 13.56181575236979 15.157310783093418
P 14.040869569724022 16.982668979518994 12.917637284996083
P 9.077655215810415 15.045648529710315 8.691337412893303
P 10.224148880880431 7.909360884672632 8.734730806391982
P 13.126374372131693 8.985107377264361 8.90311482593351
P 11.948253838383705 10.255753220911409 15.710954800670024
P 11.033539764304736 16.63624306865688 15.799381119073342
P 10.09445449737284 15.102947962921252 14.711621857644085
P 11.252070963210357 9.394970813743273 9.985368442998583
P 10.601514654229417 8.673834780227674 6.669182670246559
P 13.12468256122314 13.89371161886585 16.336094815407368
P 13.63942360295349 15.993011402421704 11.343090125537788
P 12.291262014173247 8.495271004399266 14.323464301317285
P 7.8262306030698126 10.138424960280767 7.528104509125854
P 8.142563625618482 8.72480974551521 9.156865093930444
P 10.58740704431432 8.084070258280079 13.275015891958702
P 10.311772340703381 16.47072992968566 8.940994138443209
P 10.62706790187882 11.302841482202325 9.074323176999188
