31
Energy = -157.42998687 eV
P 14.262148023637836 14.97254232367619 12.620375656701903
P 11.788539990254465 10.235380288133747 11.22125124574136
P 12.622864411726754 13.11124817088536 8.96330113416588
P 14.01239537338005 7.980828474060355 9.835592400289093
P 12.684113301741926 15.606876161617791 11.167607620259206
P 8.542545747242281 12.917154323452555 9.482173537319348
P 14.440953452722589 12.75045333548605 12.205435366704451
P 11.500631862617723 13.749168065996631 10.756452951760009
P 12.520908188812468 11.836716392760191 12.65697947274566
P 14.206090019978763 11.325495736552432 13.888879138138634
P 8.014288379129693 8.818821180622122 11.5350754435082
P 9.929780900884179 14.637834027473412 9.443478217425879
P 10.173732798291164 7.69981390722137 15.27303352793852
P 8.074356854600913 12.958471560529121 11.682653077086387
P 10.34303512845942 10.633176086812043 7.27947658321989
P 9.895885593148154 8.613251933409352 8.159624511712844
P 8.594137860145391 6.707042651699414 11.741483766999785
P 12.07336831823259 7.784544000078259 15.254878555049881
P 10.355685216381515 8.751452043063688 6.019376861972651
P 10.903413198770474 14.538271750073026 14.397445146827812
P 11.07417897745286 12.297489686466951 14.27633731348536
P 6.928807599551865 7.513069300912418 12.93694046869848
P 13.666689524456356 9.024220577461717 11.708157843130405
P 14.913143683447458 9.940955653979579 10.094362927380395
P 12.543574579109352 10.340830272807862 7.472392339087098
P 12.365225439480705 15.872528961006175 13.37548190162528
P 12.946733387048726 11.070298830839153 9.51564406720447
P 6.692486264049042 7.2353003249946966 10.7649195361537
P 9.252669352820638 13.346279054227482 13.53318561584957
P 7.9269389319662045 14.809993851218286 10.47535423998156
P 11.9847489172478 8.154562349272398 7.496720808625648
