32
Energy = -163.01962998 eV
P 11.322841698757106 11.578380021634906 17.159566512220568
P 10.635260963601356 9.86675217558187 16.198317681977784
P 11.603014206103527 13.168349932882482 15.661614606182853
P 12.657281570252945 11.947175789077063 14.123229212852104
P 13.7633639512903 13.597370002629972 13.077322703084807
P 9.661866393328006 10.598598041575992 14.431506349752816
P 10.526361848107745 12.573160991912307 13.782584457974943
P 7.320780504899936 11.042079203927958 13.979247250460048
P 10.940005428726643 12.962095278574886 10.761455433813225
P 17.27821078686144 11.402472087100827 10.642543269742506
P 7.5774483950129214 9.485365798859785 12.451209789652482
P 15.711606893825529 10.682572103605919 11.996461023755902
P 11.995376392669257 14.558923083452413 12.162647663971203
P 14.512260236585558 12.426719631997354 11.300468028716441
P 16.43299728407149 13.306561228032084 10.73230831053281
P 12.72584118559595 15.466681404223058 10.35563000505285
P 7.562295836660932 12.720420894862086 12.653130533168703
P 9.454949983937633 14.583201561874787 10.65242997419826
P 14.779020449785936 8.976372721608021 10.89427903198611
P 9.58035345176174 9.044361864099168 12.896454704429658
P 12.01470820021598 9.590800236084428 10.674232643891042
P 13.136268650512523 8.773047348176247 12.266129543923821
P 13.492666608406617 9.830702134895928 9.071838869155398
P 9.405418075851816 11.34103816695756 9.741828471408992
P 11.151074126818267 14.507106367614156 9.146354568083995
P 7.408754418063877 11.795408716158395 10.663482607962981
P 7.853272614499575 13.620569692973358 9.37096290649961
P 10.18863496415388 9.257130792321432 9.343741546573458
P 11.360201733604189 9.932808743632691 7.652835417475624
P 9.035234494580749 12.367520233219487 7.942270900500408
P 13.72614377483099 7.86315875745029 8.106259128006638
P 12.01741297848987 7.964023094867526 6.938584954857205
