32
Energy = -162.2580141 eV
P 12.742899792710967 18.441816396365112 12.263002741990721
P 15.71681667184434 17.299254272726053 12.650724751288696
P 13.706789303594944 16.058058091078514 9.506796407074818
P 14.374191623748292 18.816247270057477 13.526776742018285
P 13.833706600148705 16.69536770371508 11.540350872068263
P 11.616043868466019 16.110787531829136 9.964475838429527
P 15.286813522049428 15.535370122216039 14.035878278130587
P 15.016337104081472 12.532339751761771 10.599445973727844
P 12.582846767559037 17.057423276496277 15.931481358563609
P 13.370713462779163 15.03881929496033 13.006725274901118
P 11.315282806594745 14.13382912075627 9.034240604783474
P 16.663340787987494 11.183570564225281 9.862583858729797
P 14.779049541354079 16.72840001889646 15.84243899299666
P 11.725116870137617 15.825793450329002 14.250151353084995
P 11.824040530232038 12.59669150632949 10.566195749177357
P 9.230032784866156 13.514730467249041 9.308604204945166
P 15.936410034545858 9.58278057623943 10.947911877160257
P 9.89404136847544 11.688884027139705 10.065399917631726
P 13.526746928810773 15.609820033558952 17.340941912462988
P 13.437026734083751 11.277786290258558 9.692676453646708
P 14.200099304248381 10.783353019817937 11.726904246554497
P 11.178111543143634 13.861298949176387 15.242230848387035
P 13.145042468001062 12.852084408662662 14.999364673323297
P 12.530425458389823 13.6250386940796 16.982678000152227
P 11.15680241309899 10.11569275161088 13.580660884113707
P 12.459332887733085 10.727942219135933 15.237123939272651
P 10.289187401346204 10.4111174881866 15.668358923734802
P 13.594461255209723 7.561389938919776 13.535348813615647
P 13.902713823789904 9.472712107152647 16.12342852768391
P 10.73809922497311 8.382087990730454 14.922472697693607
P 14.427771439621319 5.758195029321204 13.352014105846997
P 12.762466283477943 7.68407824412183 15.65537178391254
