32
Energy = -161.4689251 eV
P 16.720288673667095 12.072670304147676 10.314421598613027
P 15.671478617120812 13.31978830873568 11.636162278881619
P 13.689987133328613 13.523570822786825 13.83179827235866
P 12.798470123707881 15.123378246870931 12.597151429062533
P 13.706449133690892 14.284427189268802 10.706258347415673
P 15.099537500120862 10.712912766345903 9.93904593639192
P 13.61721247323284 11.022128279446521 15.699399669425365
P 13.79039020101104 11.839677548655084 12.304358653188256
P 15.772409946113102 9.301962229819933 8.415447769877115
P 12.54330989433573 13.01171993251229 15.624273116265254
P 14.566557417822661 10.253197644766072 17.218731731828782
P 13.44290489429914 11.744727202192724 8.858766130036635
P 10.970012612699046 15.274570946226955 9.303988335807485
P 12.344104332694648 12.505337922952494 10.66902022120935
P 13.243549879942982 10.074651763786676 13.675918155935689
P 10.875785971305623 17.142780737070073 8.891485270644573
P 14.055942306622041 8.757138156564523 7.436179294178084
P 12.313209141255207 9.946463234829574 8.207525218654208
P 10.560137716432425 14.912386683268412 12.309496981119073
P 11.075672863835027 10.158014892900944 14.142530877189925
P 11.998100901315745 9.060299646902871 10.22186356012625
P 10.006066992026572 13.039718556487673 13.225179697011148
P 10.57897310050959 12.074159321815316 15.185383307323873
P 9.342701087190914 11.709712216973559 10.246439995648686
P 9.680490710719663 10.78438680533787 12.297067477333387
P 8.555510883852854 13.506109914483797 10.897143821858567
P 10.036707907889614 8.584468934918238 9.773324124611667
P 7.8301414223795165 13.26363312388251 13.07378353123609
P 9.26008596074531 8.543798781754594 11.832774851784075
P 7.808613860506873 11.055224664959308 13.455947795199524
P 7.165534805221449 8.604723803282916 11.214546777918326
P 6.263434903757318 10.176032785406033 12.178359141218444
