32
Energy = -167.20501947 eV
P 15.350665553113357 15.104964131985254 11.29619294354873
P 15.60680339488686 13.51690705851492 9.607891571605766
P 13.117035898607082 14.961804573827196 11.117821187315663
P 14.178562063355553 13.625786039056253 12.537239775606167
P 15.440064981965959 12.207501790949626 11.387101048033474
P 13.552218368364919 14.252424223905507 9.073639351131053
P 10.26213348343796 10.430730150449465 13.484117127499673
P 11.759486283051096 8.715476412100442 13.113312770317094
P 12.18082694262841 12.500965704237924 8.974820911266773
P 8.45171286133645 14.188267227790462 12.09037866707363
P 13.84581743279046 11.060208267628578 8.880713264268433
P 14.36330174437425 10.239261018187195 10.862265012392406
P 6.782140457189404 12.757304020514585 11.920529563555368
P 12.763274054397899 10.535352215515372 12.338199143567639
P 6.4028433426192315 14.923969589589893 11.734918853776977
P 8.398829809713714 9.539273740379604 12.704563735009918
P 7.483246617452755 13.848506871906826 10.142223193549341
P 10.960693352081684 11.623107500644462 11.653589321729523
P 12.700948750158503 9.68737577268693 7.518729842387327
P 11.69291012716246 11.636689844593377 6.901587530935987
P 9.823345397175279 10.86031215201925 9.831217066392922
P 10.637529984889115 7.547558404275279 11.613793757509953
P 10.55381804012656 10.000218322946546 7.873667205582811
P 9.126109498137708 8.891831396123605 10.534084891431093
P 8.90874778925972 7.376340655955457 13.07705296179794
P 9.66303035768851 7.297265370518155 8.852002288465508
P 6.833460435186882 8.396564600985583 10.489078871666935
P 8.796583692005079 5.613869437066874 10.026905797140897
P 8.050521946034117 7.181097584482458 7.363203902643719
P 7.397710772133861 6.542151919341498 11.53179468791779
P 6.183245038107871 7.455243424446223 8.633910461515317
P 7.146116096518731 5.443109787504034 8.49297940108865
