32
Energy = -162.89688658 eV
P 8.76406921258167 9.612347517459611 9.176762324831444
P 8.377413727158203 13.466928403262349 10.14726528710003
P 9.880870322354758 10.054363107579649 10.86880339540687
P 13.554426439698249 12.865389384678156 8.949301940633902
P 6.75352901804106 11.31577472853436 12.521896502291568
P 11.80978382983923 11.596841471837719 9.772931412397387
P 12.342695620652512 13.394717736761523 16.180651293392046
P 11.895188489913446 6.895963946643694 12.894510610460276
P 9.908875772186143 7.882743466014497 8.369946280724873
P 11.838078159023556 11.74565089858848 6.269152379787761
P 11.445054504462433 8.696260823762493 15.202505959861645
P 12.159620543122498 9.023575938300777 13.285826637036527
P 8.262762052884382 14.276972906384959 13.803102709775343
P 6.692120847514105 12.917549006228304 13.874679693130382
P 15.523269758704233 13.120762180486887 14.88924137075259
P 8.579935363088708 11.774076614742068 11.453124681389468
P 9.65085724535414 11.071631050463777 6.696125073523773
P 14.117025567903598 14.686280330490636 15.487178684056376
P 11.920099523753493 7.854536823146744 9.247649558726195
P 9.466792047514778 13.673074484715858 12.056773886276705
P 14.79211414297817 14.488677141217687 13.382740780495917
P 11.560462956651776 6.4845293451563935 10.911062622922316
P 10.606687896863498 9.0335731771547 6.5605344316123615
P 13.82577555600358 14.662798551143013 10.221141134585135
P 13.490592031335531 13.272566351010777 11.948516639310013
P 10.697387276200013 12.446351647900793 8.049103785742469
P 11.94588123381253 12.058049581500642 14.436170240937594
P 12.961130669753015 9.813895604119832 9.125742007405426
P 11.222006496248936 10.724223581892904 16.074799756792906
P 15.146084250408043 12.908870382677746 10.495368202053209
P 13.390964440942685 11.442317553937364 15.959533104810705
P 12.704881673580836 9.74153708064301 6.886176634989427
