32
Energy = -166.74676015 eV
P 14.102474336586429 12.662092002310061 13.419198275550132
P 14.685545620768204 14.468894327061836 10.375454393802096
P 12.871015903943944 13.659801902834953 15.010935627334884
P 14.363209552233174 12.273154816402695 10.128406677756658
P 12.293637095981742 11.64165544094841 14.348100639635707
P 13.566252627314903 13.679310318497969 8.623967979584043
P 13.133321673880378 13.407034821338412 11.578129180597564
P 13.269507657181187 7.094022398416059 8.257950925289935
P 12.114424057076931 8.15590737155026 11.33922195659385
P 12.73942282256533 6.05304286363815 11.55872902814107
P 11.27872320201256 15.062440073609276 14.24666616087039
P 12.990475177616018 8.79113512364302 9.400117017805675
P 10.297117642349178 11.789238529264928 13.453393686223894
P 12.591753370530324 5.362694791467951 9.466096804234711
P 10.259938057126748 15.297330590866947 12.299936433959184
P 9.493786701202366 13.818642065843644 13.894217419948895
P 10.781282377799863 5.222778895247984 12.299015558423248
P 11.34925342906979 14.047020475300018 8.724193939359703
P 10.277471664590417 7.929874406476701 10.160721285808318
P 10.653222792548188 11.4925413702116 10.72999877772932
P 10.350623397264243 13.713934522358336 10.729370726875265
P 10.597513022394056 6.070947362262905 8.90025923519153
P 9.196094534675371 6.684289324354655 11.71759241052707
P 10.553788433145069 11.990695936201112 8.410243024176589
P 9.53472027356471 4.842502800209685 10.489486117667978
P 8.673580349215364 10.578157329206638 11.156354071175844
P 8.18300993349038 13.953037467251644 10.084605835714282
P 8.611557064898058 13.062007249234282 8.076665568991215
P 7.330846150094208 12.35706075912512 11.376810517974423
P 7.499312731143097 9.844762512559162 9.366422219512055
P 7.056996900211745 11.483097973490523 7.946718876365092
P 5.929857574338039 11.438632876338744 9.844593306201599
