32
Energy = -166.43113467 eV
P 15.125823372023985 6.919742346899412 10.418137108084222
P 14.390511747600753 9.009056752779403 10.87307165833705
P 12.709314669891572 8.341629620489423 12.120477205533238
P 14.36125598135533 7.107524735793018 8.280421144245112
P 13.822091489590422 9.254799161631919 8.696046219017674
P 13.249583818113901 5.918059157852025 9.798284560303799
P 11.695382458499187 10.320007724366413 12.025430827346995
P 11.844166177881208 12.574484834911402 9.630411319894542
P 11.654508703417765 7.350630114170308 10.448037981383047
P 12.260744525747501 12.58600277639816 7.439314954432631
P 10.731023948834157 10.61817161470574 9.963748332513248
P 11.616504317246381 9.215405206602819 8.374713725247037
P 9.886871043269592 9.97671079083848 13.318211366146361
P 10.623681271634538 13.867041943927893 8.22746568060138
P 11.32010910851443 10.722067611664349 6.671345892501411
P 8.911736759399771 11.698703859765219 12.328108728463807
P 8.79249293778632 6.554729745325861 12.617598312510847
P 9.267501557180776 10.785839634210216 7.530741982096782
P 8.714946223268036 13.831523740678808 12.976386974760148
P 6.734973372237291 11.37337759582685 12.331532795483204
P 10.268032838503322 5.739115738927201 11.187091755838575
P 8.353402074303578 8.730862965353497 12.2659975681124
P 8.679428389368583 12.93999671859488 7.630910245065236
P 8.771538597887208 8.596989569958627 10.080066214748038
P 6.537251938503181 13.662972332118857 12.483822490546792
P 8.37636095608357 12.455280059542163 9.830238084435722
P 8.272106047703248 6.35550833175706 10.425936608212197
P 7.777681584672077 10.098951543678389 6.069836067483994
P 7.9289100733794085 14.385872007235198 10.894226726660081
P 6.672826500586434 9.319267143294704 9.550875038471276
P 6.394625126495577 11.445690139317879 10.098505645340802
P 6.271798279901423 9.487071868118553 7.349215474476974
