32
Energy = -161.87817825 eV
P 11.245235622393846 6.859380948428193 12.505044529964177
P 10.535346481350581 10.583115347561037 9.052787662556904
P 14.500653421402232 12.389075062931454 15.24352524462085
P 8.711177354543445 13.770377528465836 8.590910711891981
P 16.153225937092206 15.453385606501948 11.438800626592586
P 10.744182923571524 13.925264419772486 8.937662088821723
P 15.461703441743408 14.25778169913902 14.50169879275753
P 11.83791868770319 8.769249202291391 11.324050561789488
P 13.756439789982814 8.946761175618962 12.455853084079735
P 10.9291196711346 10.874414386333662 11.23794971876016
P 14.841724231476743 9.53896115119447 10.566910781147671
P 10.750624717137349 7.758138265627381 14.369956919071717
P 6.05989935445403 8.814325960747802 12.510398651440426
P 11.873821451043856 15.57971124116734 8.135978621404414
P 8.13253343955151 8.713201283534987 12.242624715711218
P 13.553620602126493 14.589128545074598 13.292432467443362
P 12.762968091024703 12.6803732257388 14.128321279640971
P 7.507256496538591 11.227410512270614 10.705748527200148
P 14.587768818934803 7.407860722046647 11.043203494614124
P 8.804838496814233 14.08340427222468 17.098788356394145
P 11.824088216069654 12.149070939367938 8.117633013023193
P 13.421237737730658 12.4907626171773 9.698325801020832
P 12.038640738517811 13.611842710113185 11.063932451411683
P 13.222666865016285 14.758429858154887 9.578108178572506
P 15.027334137747824 15.986921470269348 9.804762968528246
P 9.025728137619392 10.828110539217214 12.367054438023509
P 6.897479488660803 9.017950538718114 10.48059948588055
P 9.211467971955189 14.031086863947149 15.239932899330746
P 9.137838469945281 6.9215595874176525 13.190590841267706
P 8.536562926617698 11.576819356591622 8.783091156590421
P 13.216163535954053 8.404214378668643 9.543786475562003
P 15.307945733054643 13.61912357259526 12.366748443795728
