32
Energy = -162.45917735 eV
P 11.487524954652047 10.60924247985835 7.500519302510768
P 8.219210215631072 15.194434778198183 14.10019601682824
P 14.85336611658077 12.3319987082699 6.559844197433413
P 8.393706456121421 11.538225497214311 9.001584511828607
P 10.369931815778148 14.0066739010333 17.120703807728965
P 9.655003123304024 10.658093618137624 14.175137914141178
P 7.195915493764358 13.351079515206862 8.589673411628187
P 10.306125664346057 6.590243157953318 10.86969623085317
P 12.286858197383484 6.185994173090676 10.247068370645673
P 11.27403020269208 8.900921116080337 8.925927519330227
P 13.465605472190338 13.397881068567676 7.750438051370898
P 10.301728762375944 12.731300273682555 13.626378719919138
P 16.77518523970653 14.789457528859558 13.163055570936352
P 10.33682163239597 10.52754692728103 16.282883013933187
P 15.210757238797921 14.362123255602054 11.952531653991933
P 10.056662059877945 12.205770649959943 10.331407422444126
P 11.566164675809492 12.248885893090776 16.946751844801167
P 13.40135548804732 11.319830770354578 8.401715390603288
P 14.92319365472012 10.325179040582164 7.203254021679995
P 13.049382859252043 11.31250034747811 14.436894019270273
P 10.272578745339251 12.396862128480794 8.144357898553807
P 7.920044407486605 14.951769251851644 9.631812167162717
P 14.484147235336412 10.30880258545085 13.01771144843455
P 12.971739930477545 7.682661515683721 8.936599077688875
P 15.0350778221791 13.705894397582574 14.07319008907504
P 16.01718500136549 11.682933624561862 13.869401870591453
P 9.569692845100377 8.370870062481748 10.025598083264775
P 9.589005574441282 14.048272105301427 15.1830519619957
P 11.58239664553144 9.62209860022838 14.663674325613822
P 8.409847902241737 13.513993626230096 12.65393664001025
P 14.879940707367853 10.292558575807655 15.193284863705394
P 9.610100712860989 14.306187678993446 10.892007435180666
