32
Energy = -162.65674891 eV
P 14.496326488085549 8.862108604371214 9.125666517348218
P 13.0257152600617 5.363222650801217 13.958045455274176
P 15.451182062486678 9.71633034777291 10.810939398264484
P 11.15868307366645 6.414325320324863 14.605535992850395
P 15.632139120465265 10.398642073193045 7.630045117758737
P 11.245337097594378 7.740921009557135 12.7562197701599
P 13.622833209908677 10.624550152187355 10.256884065129658
P 13.780215228258228 11.272144902028055 7.106156935891678
P 13.463052618415315 7.425218550819072 13.17791066099108
P 13.172286838023757 7.045798996377674 15.367989266706147
P 14.755249661818807 12.158580684007191 8.762804564450489
P 11.098627564600525 9.724444592389876 13.710164424918206
P 10.162651673201035 10.65424197448239 12.127050762024647
P 12.553276802790583 12.746092223178339 13.373904709936348
P 10.359763869099663 12.643174150588782 13.056099656287513
P 12.595348340570617 13.563519953846846 15.495591283642781
P 17.39279943777426 15.380029347673672 12.6179297249935
P 13.282344749350392 14.315604050286725 11.946302039180518
P 9.819440172158318 13.933610019914862 11.371416723042625
P 15.982025701137793 16.70183979655709 12.871905651378091
P 11.616037719998051 14.979534081954734 10.577376249604502
P 13.4543502882073 16.15456903780265 13.149196723536747
P 10.099835320634906 16.120411405900345 11.796972680482439
P 15.443946648141335 18.183720640141964 11.195898442866088
P 13.935442268770501 15.332174861675545 15.258651626809568
P 13.512399533546589 17.700680666662137 11.163820824272289
P 10.713009000574642 16.56906158681293 15.496929761197586
P 10.58294018320586 14.398734707762767 15.892050165373144
P 11.339937892963052 16.987297321326437 13.41844173263689
P 11.30109272131513 14.437196485619788 18.004101531066325
P 12.777785083187789 16.962037911207524 16.211578325680644
P 12.659722205681796 15.975979728469952 18.192217051938396
