32
Energy = -161.39288681 eV
P 17.028335405636657 10.276963704173859 14.795264942840014
P 17.43063959609487 11.070653650674707 12.922736684058922
P 13.697998420784906 8.09395740961321 8.798685522476188
P 13.427879076857002 6.2717431505015035 9.891581115007007
P 14.832416466923194 10.155447893978419 14.36772110377711
P 15.264209454821899 10.983342104038122 12.33922261463541
P 12.373211272621155 9.561878677290524 9.442490280881996
P 11.896900576399524 6.487919365690834 11.297295375073478
P 14.760944068607564 12.35787018009089 14.006349727009525
P 11.40026639002212 8.522551756103024 11.031837759434534
P 13.595667394694207 13.077739689283227 7.856887078688447
P 11.872152871678782 10.652298699825412 13.206240540917351
P 14.717063799260183 15.007731942274804 8.015002411708274
P 12.622717091826168 12.698195388390264 13.44429665524199
P 13.025829823441734 13.246622377725675 10.102301244703474
P 14.142541208420258 15.185039338641065 10.251558620706357
P 14.770014514838243 17.535884783182293 14.369356299686737
P 9.401494131821979 8.984460039062121 11.656780476142082
P 12.893224187734395 17.49839215327147 14.67735495109148
P 9.837976254403808 10.94588455408829 12.499819209837659
P 12.800362501794375 14.913559392690978 6.948859416645637
P 10.076166807819611 13.122358583254892 14.072976369475388
P 11.949467958124423 15.15971004241951 10.248132342988521
P 11.785157057988492 13.990861288364723 15.169210929715925
P 11.221923297912163 12.787503754221678 16.955233230201014
P 11.262896754176062 15.680200529080048 8.264956221182372
P 9.39301288516143 12.448970956480784 15.96679050492402
P 8.938828282409526 12.621271660658723 11.102721225584132
P 8.876017764739965 14.27492779713349 12.597075136881166
P 7.84446554119755 10.936692847757463 13.679333973977155
P 7.9214375124284055 10.921614557868102 15.80990362369462
P 7.227821307160089 12.816791409971163 12.501064088614498
