33
Energy = -166.873028 eV
P 8.412786381367228 16.670631392281496 9.438353455060717
P 14.985337362047547 8.087185403836585 9.828601834323342
P 10.240685296388179 15.894767246818835 10.392262731252416
P 12.408819934187255 11.11337111205061 11.644464684022205
P 13.8742138504581 12.315469859836055 14.656561981558358
P 14.984427741873738 16.229833375613428 12.167865920894082
P 8.119757064388876 5.913746168389609 11.99928441041959
P 10.161079101499427 10.178636949996763 13.425299698273129
P 13.628422751381079 14.553908839338332 12.696522354437942
P 13.869428492129767 10.215106272118367 14.658447929920241
P 9.349539429408276 12.13343138030393 13.923048753823482
P 8.334675096191482 14.825365536279207 10.643051861889859
P 13.886424082327279 16.573930642181075 15.406421928414597
P 9.353229587400556 14.821918753198029 8.691726411028453
P 13.2985434319266 7.58910032593529 11.191596975717195
P 15.17613258638353 17.450378990191755 13.811553394908355
P 14.009229604708693 10.078925078289526 9.121438689392566
P 14.90951335063895 8.849841928394342 11.980398650145045
P 11.348038511122615 11.862633323773263 9.784648128244283
P 14.592415964761118 10.96811817862881 11.10133435837096
P 10.299615117407214 10.014862779591388 9.509625794943119
P 11.638679237474044 14.335864360463813 15.808445143522588
P 12.344838892711788 15.653917615680669 14.151443989968293
P 15.705028850440192 14.087689883298122 7.34291003577205
P 11.38312982854345 12.51155087282815 14.480578928837227
P 15.390620471239178 13.737361182848575 13.828201286431302
P 12.223616238907535 9.427023702074973 10.280610470085287
P 8.33784214177724 7.567902616751337 12.953648676339856
P 8.289513830095261 9.235424885128705 14.173138731520632
P 14.463084942634591 13.869479724859415 8.769195163302044
P 13.568149163595093 13.437698434259028 16.57532266353841
P 11.729872457290199 10.477322390840033 15.234777300663795
P 15.17664825109186 14.810939837718083 15.822556706775664
