33
Energy = -171.51432855 eV
P 13.990845214360153 9.56746295160316 5.831551634520367
P 14.661838562578575 11.299407599243208 7.021129572204654
P 12.792430231440585 11.414722168388685 5.874903876786655
P 12.90553888582117 10.13923813202976 7.662705624295528
P 12.810968419299442 13.462029282685421 9.357505187060683
P 10.693314888933534 13.522710170071264 8.614536791932561
P 9.574319767036071 9.612306581957998 6.037389556938228
P 11.344301432894552 15.004183026036207 10.1416298561017
P 8.508347120797477 11.524761790692109 6.492626164767552
P 12.608162639986999 12.26263597552283 11.224407817304924
P 7.355876954023165 9.723888078621076 5.851868098149757
P 13.5035542662119 8.18200672202761 12.397834163446863
P 9.87647969304533 11.817734573503012 9.802262582646733
P 7.94802885088344 11.917022904699307 8.666509928266919
P 11.25091960392162 13.772406987289443 12.024622302084547
P 8.275742020908272 8.876876137330301 7.673779538024413
P 12.332930333512463 9.84388416500351 13.310693780761758
P 9.14936035366139 12.990682480255078 11.591294081178823
P 10.056686379693865 7.946277499510354 10.36226212320646
P 10.312167368044962 9.822532312657874 12.383111640951752
P 7.940845711652412 6.667919199693543 7.655848304961442
P 6.763480329256637 10.385041467611927 9.746549903851026
P 9.380840163165988 11.591449959418973 13.324609915464633
P 7.926557846437656 8.602151737783116 10.576273845451103
P 12.132180271968211 6.4736109198989285 12.84818026290439
P 12.704221317941784 7.912926804484975 14.44709634987676
P 9.13828534939205 5.9985569128964915 9.390843262343315
P 7.047339162727662 6.6660941774715825 9.721257979019622
P 9.959528075892097 6.697786156296129 12.265089467562937
P 6.520134302350841 11.802203210412321 11.402797312115514
P 9.32228032227696 8.292984988877189 13.660529216961383
P 7.204504920473011 10.79297819585824 13.204418631775336
P 7.311453153962127 8.601357046056936 12.732209546001073
