33
Energy = -167.83533999 eV
P 9.952327775338212 9.436420872082675 12.486723344870162
P 14.285349197414266 11.221825115247333 14.644609861341161
P 11.141819218940883 12.068504128113815 10.428606910718749
P 9.525456126439183 11.790693983873837 7.2229100695160735
P 11.93267023014967 15.384613773878101 10.110001273545148
P 14.415253175025958 13.286149978903623 15.1371956012071
P 15.296706272511075 13.623336276924945 13.168029066413471
P 10.199297708717237 13.985934165896298 9.77159931861349
P 12.119340179535849 9.6409662658355 12.466547447968649
P 14.138961622183148 11.82303169457868 12.54726891730068
P 8.574293311755213 7.831799461828235 11.90533982952522
P 12.094674605211365 14.990714297188909 12.339701497424086
P 9.563868708041053 10.934915137059264 9.330736708027434
P 9.789174699520032 8.784470477867009 9.315722689348133
P 12.480770149341717 11.166070999646328 8.854645374424504
P 16.83139995384619 10.280490886250604 14.910456931495911
P 7.3473574518589615 8.260514942007598 13.762119728730381
P 9.122396654248561 9.272449513724478 14.648185210558498
P 10.316052544325707 13.844371208349495 7.548829545213016
P 7.608260951589251 10.97409182637629 10.396846359640373
P 14.31468321601195 15.279614399511464 11.946842060254422
P 11.714179167720536 12.19787872034292 7.029498254459454
P 14.551087102476135 8.83536219861668 10.280878091425098
P 7.035613564751542 13.975653653693554 12.502788857435842
P 15.255689761721806 10.823923254255071 10.854510349067555
P 13.186864475548989 13.716179043497569 10.860004591201369
P 8.708769028157743 11.288851808146596 12.295207268471092
P 7.84324515477822 15.310356086230506 11.39142176828434
P 7.688545775217408 8.70455603016877 10.097103770495336
P 12.614677768300833 8.32339758836738 10.88458954377793
P 16.994439858532527 8.879734293061494 16.216113054920974
P 7.380274760623226 10.48706285596433 13.92832111933582
P 14.454710892728887 12.054276125073477 9.194856647551518
