33
Energy = -168.6379242 eV
P 14.611553107179414 11.655449131336999 9.484860361153434
P 7.861651868504612 12.88872146070989 9.006182654639781
P 7.6091477983643765 10.65015891965423 13.456947355130952
P 9.558853153230555 12.46840610732134 7.60622676434425
P 13.680418314105868 7.713379122920153 12.908933839288096
P 14.368667841884315 9.267035146042975 11.504305415145007
P 8.313979048970456 10.200236671218745 11.371736929013865
P 8.860123133647319 12.102760887307259 12.30247072759162
P 11.86943015672114 13.864496519844556 15.610710915367665
P 13.490731110872414 15.406896999215297 16.121518379570293
P 11.299949699724335 8.106627460422796 7.231398027199898
P 14.628817190345444 14.094675400780897 14.733723461591342
P 12.743340332471725 13.754811353562625 13.523003330628738
P 9.378202851926494 9.965130465678648 14.658534980475963
P 12.214997370322509 8.487936024464238 14.428050261625751
P 12.226644596362508 8.36318130064241 9.244724656128552
P 10.340626641230399 8.748342892400522 13.29929133905175
P 10.084019574287195 14.687871239236953 7.83517927333598
P 11.879349558890537 10.141978869518809 6.529493435004172
P 13.202776076193333 12.947340701778343 8.478225944429647
P 13.336211071754875 10.433802477057892 14.64905297973002
P 15.075050232212968 9.387346795896068 13.56699073898078
P 9.998041571777613 13.640201820406935 16.329780881752097
P 10.837969268000982 15.041729711454224 9.869170658313257
P 12.336055888329543 11.638300604740373 13.138105901973404
P 13.773526242685296 13.269127843173106 16.627746052800468
P 12.506998051802872 13.636407736586614 10.412318395450152
P 13.13493198830793 11.185753842970623 11.037915226394277
P 13.415018902253234 8.802256396210193 7.409934398088771
P 11.334417342069493 10.234509765632348 10.058287791942243
P 8.639538834729494 14.891212175130818 9.573416537952514
P 7.096891653298035 12.037252480885401 10.94587333129309
P 11.493559872303365 11.488152020560005 8.247379399373475
