33
Energy = -171.43022811 eV
P 12.045371722409808 11.988222520456798 7.854656719615565
P 9.578350929233622 13.870454253367091 8.285186473616333
P 9.17853871866521 10.358822933465973 6.58819151785745
P 7.663738831340499 12.754988288331374 7.852247979322751
P 11.357332087508134 10.043393231053058 7.0090239978369535
P 14.049885380663216 11.458958472396725 8.669248256174251
P 7.7846115531802065 14.13018274215153 9.582887002933948
P 14.630119688744415 9.426734630974583 7.932018828071446
P 10.574630112476788 12.285568380804591 9.574861736326028
P 6.947496764071528 7.828121269012017 7.212337800286758
P 8.881536755402113 8.198684325354254 6.334872858305472
P 6.5396938584585556 9.527416735377301 8.726654142256718
P 11.646256461145525 13.528826618424697 11.097311065291928
P 8.37941853076672 10.757187254621272 8.65220545968916
P 14.36566301384934 9.769607391401555 10.112939872442706
P 11.066376735339851 9.05470725882881 8.956305168455659
P 9.778691375658662 13.979472470755255 12.165606342997355
P 8.251419406744926 12.708334686126216 11.214263567776563
P 13.143724153091295 8.215842673058106 9.106738187780211
P 12.128432543591755 11.794429006499943 12.774028895313874
P 8.230493330685794 6.62885190439848 8.892011385238805
P 11.533066271601708 9.800009535845856 12.123273104472494
P 10.272175103533035 7.091666415788356 8.204413803487414
P 7.029781161436074 7.896484376391009 10.207097387688377
P 10.373919015620206 12.5938771884677 13.98259958708792
P 9.363416760609192 10.145599253791662 11.955994717781712
P 12.149387929533946 9.742933504002757 14.262880744963283
P 8.122698467783268 8.274984475701642 12.11405353531536
P 8.808666550669107 5.090431254414416 10.583093664135145
P 8.910693587760607 10.981331935796822 13.947782998399514
P 10.765940231742972 5.991826233155777 10.35118003050548
P 10.505694713679684 10.410251447381691 15.388580120607225
P 9.514661505768789 6.516826572416133 12.156872323030765
