33
Energy = -171.72241774 eV
P 12.117382470872348 13.187819147356427 8.783365121367856
P 13.87370393671291 11.745702027298394 8.742428393940799
P 12.792062209942054 13.315113574663714 14.763612058281593
P 14.579993912507849 11.256310760881126 10.775563843669358
P 10.943522758125432 12.278681628830155 15.660046651261396
P 13.628964169719946 11.287306119002704 14.171661562460786
P 11.480760468658866 13.12044224855485 6.642528074631238
P 12.051728600935418 10.941974204084845 6.131740388663326
P 10.863523478839348 13.378660049522184 13.726341287979277
P 13.959941313113726 9.61549393210426 9.332581170457782
P 10.156156457956826 12.327599464741082 8.216115092424557
P 12.859843809913109 10.879520395288978 12.185069667670914
P 11.051198185764193 12.080011439277216 11.926001313164578
P 11.940977868113368 10.303031536156697 15.309985949475479
P 8.820857188786194 14.164855394579876 8.306093915583793
P 11.906487289585833 9.165973604847988 10.208084818262497
P 10.39218812755667 9.938263642766763 7.221717462323216
P 12.83698183134994 8.001338771742827 11.87061821797799
P 7.95770530675527 14.234407942096173 10.359024116273561
P 10.23946471834747 10.217109539839942 5.168353505794228
P 6.838164352683238 13.247911640330466 8.734524912008142
P 7.970144463072055 12.019230744714468 10.225124525395826
P 9.485084467899116 10.606134546215209 12.605579568853411
P 10.289920243873487 9.309662629124187 14.241878154894163
P 11.16398505525816 7.526734234729611 13.24893330035586
P 11.70747380752234 7.23146435959592 9.032013158870816
P 12.520048228245125 6.016227494065494 10.746720645024691
P 8.961917489097404 9.216260721310103 10.990947311290183
P 7.198111127119531 10.806789782719335 13.456460877638595
P 6.238238423261077 11.396180276407858 11.574241138354362
P 9.386953628104584 7.219725944378949 11.968854911683625
P 10.32916097014737 6.04453909681632 10.319254845751082
P 6.786227343516118 9.279366053750127 11.923242309268792
