33
Energy = -171.6904188 eV
P 17.47832807638564 11.532073434060052 10.764631005550367
P 15.986046338597552 10.050633346460753 11.424656613467207
P 16.274860900682018 11.904861696949657 12.572153960664197
P 15.328580995687748 11.975249530502003 10.586807772962143
P 13.176337675054308 7.784577636656144 13.064704648937585
P 12.7029120823877 9.249886560601922 14.679070007485679
P 12.921612548730726 14.49940242229227 13.306192985615027
P 11.352869780316263 7.497150756365315 14.343922603369618
P 11.544773498181195 13.591613148046738 14.827990354703068
P 11.917753226473126 9.100968858359185 11.573664155638388
P 10.835196198208232 15.237370702633006 13.518566979248764
P 12.45048128371312 7.386092278742331 4.843208083569567
P 12.288294178224847 10.71417502972657 13.061586857719382
P 10.522919024472586 11.688686448109978 14.097824081402617
P 10.31365803470246 7.8166657746547346 12.421618199506378
P 11.345511106383293 13.826835697152184 11.882382050029308
P 12.07291238619537 7.63725510449733 6.99759029463826
P 8.281010407134577 8.55117142124075 12.706596790040933
P 10.35614538043222 11.14890137735446 10.18409971749933
P 9.009763942926213 9.589212302967868 9.255632671950679
P 11.134142143053225 15.239265125774669 10.140960344810843
P 8.687844480139262 12.431376676668851 13.106506696162961
P 7.523792984666797 8.676978846830105 10.590013237475857
P 8.871777007689076 12.605590415223716 10.905010553236393
P 12.261473893971182 9.405355748741261 5.703081151855056
P 10.492609194280947 8.108473692953016 5.546273379717464
P 10.365068048 14.145008884340085 8.344148843981259
P 8.968980337325604 14.70580769423887 9.995635625980835
P 10.352062075537656 11.96733322848901 8.129705082302129
P 7.469504182667693 10.562038969854932 13.311581146554943
P 7.667477697801292 11.00082291677276 8.242872445916253
P 6.291045363273617 10.416556343353456 11.35776647576131
P 6.892186306522214 12.076055337036763 9.989094236111173
