33
Energy = -171.25138929 eV
P 14.926663304795209 11.079203387373521 11.301087395240497
P 13.341951687457918 11.711459625196381 12.789587238531587
P 14.129957452827602 8.963543922672304 11.716574015951927
P 13.927484571441223 11.09104389574233 9.23171472811754
P 12.609136949456932 12.861840602865533 9.678690536505245
P 11.363400589657763 9.41123921193839 14.328862022611228
P 12.173790957464279 9.894769020737856 12.304984462923414
P 11.983128405535538 13.192331453580435 11.814625223425377
P 13.439357749648968 8.928267981313892 9.544936308156815
P 11.187635586936514 9.247043761836174 9.640077744302296
P 10.190094471462029 11.310307821959631 14.275200697954087
P 12.46141706311994 9.628588926837086 6.66915969563001
P 10.07318230652274 7.864343757628128 11.024517982999507
P 10.599452646137946 13.113198751877517 8.846596211748873
P 10.228696924119093 11.783074842911619 12.034991392110719
P 9.16238163532093 9.38491915187613 13.987503299188862
P 11.208057277118954 8.155365751860275 7.675984536264345
P 8.44807309208722 13.11096695970041 12.227660458831842
P 8.45939204832048 9.41855293942478 11.66137741175031
P 11.111483448089992 10.968621690949936 5.671884932921918
P 10.528997346901672 13.028007421295959 6.665727808827837
P 6.902701267797594 7.955061747061744 12.386840376341237
P 8.952441356345272 6.59075908800061 9.647491196432817
P 9.106844895724636 11.473093059647008 9.142598376681073
P 7.0525533983462925 11.381824779660324 12.036701776465414
P 7.491395621850464 12.630895424603061 10.277212846808457
P 9.307232812257787 8.315204467043364 6.6223203770462735
P 7.136780668214454 6.265524526271694 10.956283772212366
P 8.451910567880036 12.174991978030137 7.090348889145516
P 8.985246968321363 10.360218198076057 5.7924588705090185
P 7.250039279010965 9.431309971214677 9.501109128857232
P 7.744649021250988 7.8022479012117865 8.172112967533026
P 5.777617712906962 7.98698366615428 10.44591065518958
