33
Energy = -165.98863665 eV
P 10.318683575627873 9.827257114988678 7.152900020568318
P 17.133446965081113 11.232675794274513 13.581354412048816
P 14.326734147926539 9.293222525572267 11.071270578740453
P 8.368760136951854 10.683380450367723 6.5799123560320325
P 7.785874165358115 12.260935935413354 8.196896851786196
P 12.621414861040776 10.499727403672837 11.359764846850778
P 12.486631540934177 13.952381872621306 9.699000282312573
P 17.021876086111423 9.618175217489535 12.55884493067812
P 12.714798821682843 11.655143747296382 9.529712113049976
P 15.30402329904023 9.733150464798996 9.228660492865895
P 8.91114897156938 8.925860124262266 15.608087929395783
P 13.017366455491548 14.104877353138013 13.134947015942153
P 10.700029628582602 11.662017450684683 8.483100352164346
P 9.036135977837422 11.853742776846413 9.942228487315498
P 10.491707971220412 15.774453239024943 11.538151031564492
P 18.506713137642837 16.555314739250047 13.222266858382156
P 10.285936524773227 16.358506344584555 13.551177718984281
P 10.885408828787943 13.900402662171874 8.074901661786887
P 11.319269393072167 13.765240504744515 11.598113108529695
P 17.20705604199431 15.414090902219312 12.43464787529552
P 11.911524240924933 11.896570780002346 15.338080457144796
P 12.052363493831905 10.406015130178297 16.853454062280278
P 11.210620983109733 13.76765936843089 16.392476335824377
P 8.513023925822457 9.12523821935432 8.063266370065476
P 9.188205587877524 7.402800564732373 13.981969334708166
P 11.097145086115757 8.611633010416583 16.121890067731
P 14.315784648251029 11.213456828991536 8.143781740089072
P 9.973448930550202 12.79250474452299 14.7504702223298
P 8.903215363242474 14.002966016186274 9.081363962250814
P 11.237817328988148 14.60070598260876 14.370379192910615
P 11.225833601067846 8.349321413871298 13.882728541631645
P 13.617826379047976 12.276979094252168 14.03202050804858
P 9.365322504937978 9.538740827524924 13.497328885187011
