33
Energy = -168.00569601 eV
P 8.908724919606803 14.66200160017923 9.967804880548739
P 10.560020271831398 7.639221799025659 10.014860772374046
P 9.781035262719556 11.442867941650437 15.353223977204518
P 12.759325146222439 7.668054397283553 9.674534162040167
P 12.603750741293869 14.085576792454638 11.059341551143751
P 8.38323149449939 12.089705402579803 11.720366883564898
P 14.788945590207616 14.143061330590742 11.442841139739764
P 6.870128641585662 13.499462687850368 12.20628824089521
P 12.875319939002868 12.564154449446162 14.34728912924836
P 12.648366002572835 8.369760974809145 14.875321090821085
P 8.343427580470081 10.759483809561537 14.001516799787472
P 13.568008343368199 8.111022132803068 11.745167018388738
P 14.484495816499795 13.950613221926359 13.647000865594205
P 9.4000193424816 15.972929817486994 8.312459983534202
P 13.49530400171381 15.597349884784656 12.505702526814321
P 11.671065390127584 5.878669677792192 10.358480490007402
P 14.31297817730949 12.359931080374466 8.405038302180639
P 11.987794901688623 7.358536105934775 13.049728049259123
P 11.240206106582006 10.075815308925453 14.354499723726715
P 9.879435233746944 9.345947236633947 11.259919595236376
P 7.133824690147375 15.172986967828065 10.975763018216776
P 14.505630322809193 9.49831581152253 14.406731144837003
P 12.156761017023618 11.301019128454545 12.677234256196463
P 8.032955490528057 9.133925901419818 10.07927326249697
P 12.915837148370153 15.485450558444851 9.339609249993002
P 8.88791903206466 7.891017821896066 8.638360615519371
P 11.420797115613793 15.963001184644089 7.874650916236406
P 13.78955732204252 11.14742295590804 15.700734072593207
P 9.568582555577859 8.913481217457377 13.416459269269206
P 9.762178387066719 12.76314087396424 10.262741922048395
P 14.05310602811946 10.195993013615483 12.34584930352812
P 15.883583227237 13.50719006638434 9.134613487931608
P 14.349897079606173 14.475101166103698 7.868806618760878
