33
Energy = -172.00032245 eV
P 7.346374639017471 10.459064329742928 8.18810178016808
P 7.050335397457626 11.088422973254026 10.383401259601929
P 8.720887830886928 13.18748994390716 8.69353640115043
P 8.26392124727406 12.952206645119253 12.799964947195223
P 9.026307994607263 12.095123501612743 10.677320620952772
P 7.262526673194431 7.813766408581994 10.371411325865623
P 7.8730275160427 8.253202461412231 8.278580954617828
P 9.553107117860883 6.384293846477073 12.840455158250254
P 10.711065737020848 8.182019394306627 12.926996697705725
P 7.622189414929367 9.454954494165905 11.812266119984804
P 10.246148637914791 13.321010929138783 13.600007517863594
P 9.392700058091819 11.342570275676746 7.630726941827767
P 9.308257016470828 11.354513966680443 13.928733044417168
P 10.126498496886992 10.237460595118115 9.527710817528941
P 8.682643057293573 6.141097077555508 10.842736725245583
P 9.7719352050254 10.034044434656225 12.059034113332766
P 10.101253545330081 8.328989763773558 8.23903627099456
P 11.222194610066111 13.368648634042605 11.433449706853354
P 10.33676170921928 14.751220601359488 8.572616626662795
P 10.484574357761803 6.579167646221738 9.55723081314339
P 11.798711482726047 7.625143038930954 10.999742153756934
P 13.06797117295445 14.636177190964041 12.043562649451042
P 12.234765859249052 10.791082059975228 9.910900305960531
P 12.579177343985657 11.877100810380488 7.999503564309349
P 10.166468532370383 15.241521102200961 10.760316839103544
P 13.236046735595187 6.177715972076292 11.87793069903531
P 12.09638538979936 13.551531145035451 9.174646680214472
P 12.167714321539133 16.381101361878112 10.955793003433609
P 14.65429646158589 7.686022062582008 12.709461175782177
P 13.620524463759242 15.065867355203933 9.9260627787796
P 13.084343557004225 8.743533272647873 9.533866783030355
P 14.935978938309447 8.771100333335896 10.76737441320735
P 15.213466782459218 6.5663461055143655 10.882285563270457
