34
Energy = -176.88604227 eV
P 14.98786069264643 10.03687940207298 7.343669038719672
P 14.757006554875463 12.10464227136849 6.593969789032594
P 13.744687626869904 10.319289038198809 5.573946438559479
P 14.086097897640295 14.261310844126497 10.121919376147819
P 14.453534152111597 10.196141310747318 10.711393504605764
P 13.639628219514078 9.18449579291747 8.872773291785359
P 14.085244585096554 8.78018843793391 12.350009586501633
P 12.711371802982535 12.955672096942411 7.05585297565263
P 13.115399557641837 13.585206670558224 11.992213025947667
P 12.765704784943582 12.678437653140593 9.261764062701095
P 11.755202151688813 10.997289393100878 6.511265262245314
P 11.884904891953092 14.42642895827989 10.326218758745497
P 13.537093080831564 10.425456451546859 13.565402292090537
P 12.83380805442246 11.325480950400994 11.68192177284062
P 11.60890358336261 10.033928121909687 8.496587207119012
P 10.397479579147966 8.249321977788108 7.706212663063012
P 9.640665185055763 6.979295646096041 9.307229988744913
P 8.705566111568352 9.663835270035579 7.3201636939396915
P 11.020727799166497 9.216328265676454 13.85836726476886
P 9.165248172057193 9.671570208382004 10.953631529777269
P 11.147300726757079 8.730881841587957 11.622233625432326
P 11.366253061342107 7.089817483692499 14.31205904205802
P 8.588351670098037 10.93238258623402 9.129648977208074
P 8.610542098971893 11.133322195776122 12.607992249308854
P 7.963608610114213 7.924084824260976 10.292235096551009
P 7.052856914500296 9.30481355504017 8.710279696395043
P 10.190984748269047 6.816268408912169 12.352777690307242
P 8.03336366039164 12.961908868538297 11.532951537865133
P 6.6978286783140035 10.257692399290628 13.238834814266035
P 9.28059843090578 7.728046776005849 14.171626245269112
P 6.563561596629995 13.818977851342371 12.918689240178503
P 5.628719197164069 11.996955585703828 14.011982090182315
P 5.9314918324222745 12.904603256096342 10.954164311496228
P 5.067258972346372 11.078784558056753 12.021541489917388
