34
Energy = -171.16045781 eV
P 8.75239043095342 13.4976850053727 12.200481788338514
P 14.458051680739953 13.083727355721589 13.934830588231838
P 14.570959196872835 9.994932127686026 13.724171492167816
P 10.244522475816172 12.767953994776546 7.834478804773482
P 17.210755838466582 11.253976446386691 11.737948218279396
P 15.23906531919089 11.61117988849668 12.25668565481914
P 9.167450791442494 15.40037596548537 13.376942093544626
P 13.99639468319177 14.720688710689215 12.188763233181353
P 9.60701724389532 7.298020126832588 9.913200883691442
P 11.405006811611972 10.831055519022618 10.18924080234863
P 11.786999303812184 14.311840730242707 12.219917681792793
P 10.930558272769261 16.36442322711214 12.38409829584397
P 9.237582956057798 10.349749035805175 12.418833174846494
P 7.721351981920651 10.44141877941163 10.83968480075801
P 14.691020790895438 13.310702571202503 10.690303973155187
P 8.45127905037233 7.142961948057932 11.82555973164182
P 11.272200834608183 10.800073840003765 7.9591881998891125
P 14.982356753396296 11.315363767114762 15.468145640490045
P 8.965937066414735 12.102728779745844 13.900282604598276
P 13.107123413379032 13.585197408567362 6.969008665323444
P 11.764384056055778 7.328381712976614 10.492809531288627
P 12.747332238094504 8.01459331190737 8.693682933513484
P 9.567918800660545 8.46527241462484 13.187176485659075
P 12.936101373930587 9.218137904407463 10.532834383569542
P 11.7914452372966 14.082621281592656 8.694819146064996
P 6.920049924145572 8.403285246938228 10.698767220381056
P 12.917336121687121 12.427659247517585 9.661040250191752
P 8.532487901495315 9.146452022631138 9.22165499585037
P 14.056783193603925 13.203682982117465 17.173347680407296
P 7.0243946628648155 12.701674698057355 13.314980559621752
P 11.218124882981787 15.150572500494471 14.210087194307757
P 14.0836068767496 14.57458496572591 15.742336308906147
P 13.480130115566924 11.558350138774646 7.716798989134853
P 13.038453637253276 11.417250262695132 14.504471911582037
