34
Energy = -176.07802244 eV
P 12.23300151449501 13.217004609694797 9.857143503512871
P 16.56940904867316 16.441790777722908 7.771469765757633
P 17.258936748088665 14.323848250094718 8.042497593931508
P 11.265656304700945 10.172392546372745 8.650422662020054
P 12.731725074632022 9.813153040097424 10.32595209528169
P 14.550406589873901 14.044083445257845 13.136151220194865
P 12.619586023846288 8.398701428023458 15.172362434673252
P 9.497508510890873 15.15949139184155 12.87270501307695
P 12.445392897325316 11.998020253333928 7.986759348934163
P 16.783618888947938 15.32884641446518 6.09865741484849
P 9.527170032703633 13.543794255071736 7.848165003300721
P 12.351720370634643 11.675299006137545 11.472572363019001
P 10.473017925323116 11.311769357717006 17.462456958499224
P 13.097417598766897 9.08046031644721 17.224720699887417
P 14.48043973273372 10.960091980736756 14.194490040956937
P 15.800649411815112 11.622026770173559 9.282537962290931
P 14.439011464220172 11.972928164798804 12.23414225584657
P 11.338818805176128 10.052968726547078 14.333906863271366
P 14.01805330839049 10.53867165740644 8.648979042244795
P 8.640278741900927 12.719617024758575 15.00215233225756
P 9.284153396762653 12.932765730723393 12.800494403955796
P 15.51601528896328 12.910575885211298 14.832894226336402
P 15.26439297259476 13.382809526692515 8.328665122528559
P 9.471932937231662 10.961407012652598 9.67395174030561
P 10.021643544797401 13.133328844254516 9.971204767236836
P 7.532079799668688 14.290474683452237 12.44982933449173
P 11.137960051287658 8.097020259508351 16.878838047738753
P 10.549775537029927 13.032507368171323 16.072379159717038
P 12.70085650237693 11.266469469869335 17.29003208145025
P 8.04052321328944 14.852086151180977 14.567690580852993
P 12.52786325490528 11.831577082843557 15.145476397036722
P 9.896160003763653 9.753175550408171 16.00267524162584
P 8.751922663070342 11.62711937211161 7.655789932662419
P 13.568134234701812 13.938956039801212 15.097066783836462
