34
Energy = -172.53810092 eV
P 11.819987257973791 8.42126125639455 7.211960754507902
P 6.869227275160578 10.03952619687058 11.119082598811204
P 12.500453607074911 10.124253643815917 14.49689470239151
P 10.982876108339264 15.487539774924029 11.146000071630336
P 10.882576128556499 15.365074540798528 13.389173506605653
P 8.931259831885146 9.856326357442638 11.502208859765014
P 15.072724075827205 8.263341829414255 8.456130657981488
P 8.114456403679478 8.572713080382401 8.200739011070745
P 13.195528258599568 10.500526621967163 16.615179538779337
P 14.28813439032949 10.324890288353114 8.521427394623304
P 13.583401584856317 7.127353867544795 7.60962491540731
P 14.498492037664446 14.152432985744904 8.327160769875704
P 11.347746715093804 11.869224836866115 14.016429401698929
P 14.242179881694163 16.855334175334793 10.820320981349825
P 14.235026321062621 14.695296386784873 10.420336276432947
P 12.661294987100517 10.20878794433925 10.07116176617481
P 9.200820088309714 13.649470673305457 15.739630782598264
P 9.00974055324525 11.935439612263393 14.366046487112483
P 15.788572330362038 13.396737123558724 9.914087196999938
P 12.318363977929069 17.266427697171526 11.354466713589728
P 12.184061126950272 13.510209894018931 8.510381173753926
P 11.609130226784968 8.306606939283796 9.457212735037482
P 6.40042500928939 9.269180784853386 9.206826313352654
P 9.52406798547295 9.07774693373663 9.655932598758534
P 12.770582872563324 10.416005867370552 6.906138697187212
P 9.03312954293979 14.212100857555688 13.614233637215108
P 11.568604959346022 13.234342840987594 15.788627266724989
P 12.447719555314457 13.783819866708257 13.803579808984297
P 9.112070217268526 10.05491998995759 15.723719383879509
P 10.743692765214542 8.909919248404544 15.398216301959438
P 14.196804748357318 9.045815116415026 17.457854216528364
P 11.511720999508647 11.390523328280816 8.51160765053815
P 12.626419898681336 12.437528582806397 17.42024591901843
P 12.201745977705459 13.712358556483812 10.720399609795662
