34
Energy = -176.41879789 eV
P 12.800051773131218 9.675934948444821 4.649918280508624
P 11.917104340581462 11.740973673244364 7.293297558527028
P 12.107749016613157 14.886332429954164 8.57047317309012
P 10.835800982104935 10.632882260803632 4.260423387893516
P 12.415623075982031 12.944405615506382 14.503323109328015
P 12.042215927240079 8.48842850144112 6.365177068033101
P 10.18334211602285 14.628987364981068 7.978617789992329
P 13.054554319938536 12.523862368037861 12.412417394955352
P 14.696475175546222 6.131836541267837 11.539740000353557
P 14.110195789242448 7.155698438848022 9.669430477661638
P 10.988383704330442 8.41413714116777 4.40484004612713
P 11.136300908917415 12.937611171369557 9.047929557970424
P 10.014126030036955 11.31090885017661 6.223963033989075
P 10.817506491381678 9.843042682267605 7.645920037739696
P 10.972972467953607 13.15625653403685 12.805904002820359
P 14.222901344078391 8.328255368960813 11.574360461589373
P 13.242710812157599 10.935564490403756 13.98550793417579
P 12.782890792619238 5.574119013546067 10.544092926732256
P 7.693322293823301 14.099449371079126 10.357598291029202
P 11.773310294707649 9.274529323199948 13.995578864555801
P 7.767736628198752 11.941068994501856 9.919031152400601
P 12.031227297905655 8.588756567414535 11.815114930868123
P 9.415973398306473 11.557605650858884 12.507813318215739
P 7.143078406517728 14.399212460316603 12.505325011605825
P 9.671001843372585 10.092562486825468 14.156125210549224
P 11.428880233908588 6.473592595478697 12.093354341643106
P 9.488059748066489 6.382391562291057 10.804328500871609
P 5.901264648227614 13.088832703354262 9.46686148293504
P 8.03307289601163 12.772798767247107 13.790374096481179
P 9.435231047055995 8.129811307657912 13.023669555036534
P 8.815497169744708 8.484640945708897 10.938630819708203
P 5.910657667682635 11.497211390562887 11.041205565562379
P 5.941315751864437 12.625272599177357 12.96336490777427
P 7.763016155092043 6.914000189332951 12.124685992918673
