35
Energy = -180.94683503 eV
P 14.146501277683143 7.243779791861484 11.591448699044891
P 14.652426475200855 9.27347642344739 10.854548724332496
P 14.375504173194395 12.939419250213911 10.352142453969314
P 13.600251655724003 9.01642571117006 12.857622100060563
P 12.80240870361402 9.724218199307423 9.666219131903508
P 13.226958422975715 10.731614642554801 7.658749288825142
P 12.179658489883897 7.736642009370226 8.904675318631524
P 11.918571703119838 7.047585681698311 11.063965653416158
P 13.570563799619531 13.89298296155755 8.49442416900926
P 12.165938425921949 9.237229072470905 6.471037989136615
P 11.52413793245821 9.05872514468165 11.888557021326017
P 12.37433464957745 12.712503652927047 11.294596581676688
P 13.051597936123207 14.705009233206432 10.491679987526737
P 11.900002192337679 12.560067510514266 7.864825220038537
P 10.901412995168423 12.033064447693858 9.75740325510649
P 10.082714046515306 8.554822819744707 8.993360183194127
P 10.090263122347613 9.727926766091741 7.060256548486844
P 9.795199619987693 8.29568073577822 13.218420008977994
P 10.95083493353888 8.36088288563761 15.14748873533146
P 9.597562619477996 13.825077217639583 10.209148490528428
P 9.263516418703427 7.645204952311185 7.1406293947632555
P 8.690037320120254 7.02912258715065 11.804624943518984
P 7.847978528692917 11.385903803102337 8.554832602520749
P 8.88028301684338 11.161157958369488 11.926714283778153
P 7.466327613337471 13.159333779640198 9.808198394865498
P 7.209037908996137 9.356237401419014 9.693323006622792
P 10.34985843034596 10.33513536192134 15.207876059864173
P 7.2197073842830095 7.867738630684148 8.059037338958483
P 9.304423266701454 13.296132815831829 12.416736204451
P 7.125817520526563 8.47275111721429 11.717814735459898
P 8.576120709634639 10.018271643234742 13.807660509705281
P 7.195941273207059 12.569992545153244 11.98816317772915
P 5.8175259655144105 11.23408619278553 7.64457090564435
P 5.676596611077867 9.111453228581672 6.991995367471112
P 5.0357524672933245 9.68840431322045 9.076064434282555
