35
Energy = -174.83458507 eV
P 8.306545382813779 7.670536256038154 10.861397512838872
P 11.164012003905679 8.990722344113879 11.608455151130702
P 15.610342369487196 17.128562933378724 12.263764267975738
P 8.204494658230978 16.40617527261748 13.697391791658772
P 14.834955458609963 15.714832460595455 13.950017086573453
P 11.010905266861794 16.317363702066704 13.621063584082684
P 13.459445394491912 12.620976518431961 12.224234938878487
P 11.523623246661204 13.05633707362675 14.576889956958668
P 14.518337348040872 15.933249772574474 10.710185761163265
P 17.76406867789439 13.222520537629414 17.720754054856304
P 17.03808180754432 8.677651087518585 11.989607137173174
P 10.056052630965404 15.801179249654437 6.543754898198717
P 8.561549424698605 14.629859147255305 12.476133567381602
P 9.518375082796775 5.986713696894612 11.206897861416762
P 9.209921795729269 9.553346618492338 11.067714255990555
P 12.67105563611224 11.896185912574882 17.30374408564065
P 15.278119933230437 7.991460613186781 8.586868728685502
P 11.351554987985063 6.891988998289094 11.690609937444126
P 15.40925963101411 8.24827578369559 10.50021942587791
P 8.59584299501453 14.513327225200015 14.726980880064655
P 14.82814099719555 14.357054480670806 12.215662375107149
P 11.262440970629651 12.988160150388936 12.343793955817894
P 9.44443439094998 14.164358479777608 7.442969967730338
P 10.731579979045929 15.003025547461878 15.332135152828021
P 13.498024694840748 17.662843586616095 11.699752807631736
P 15.490465052674606 9.745901303032653 13.192455700301144
P 14.027226811370952 8.294412256575896 12.274375562622227
P 17.529991915010456 13.517371153343774 15.854334446776
P 10.689679285359032 15.038089211714077 11.83661023887812
P 15.807746537881842 7.601303078407359 13.50412582692596
P 10.67732066561182 17.43670713651151 5.650961867100933
P 13.663119681898689 12.546108748823597 14.564798460142574
P 10.952038102371597 11.426758442953957 16.099670616390743
P 12.975049778989113 10.602238585536696 15.61584621933854
P 13.07046621803874 17.098671448306504 13.780090732373855
