35
Energy = -181.00617534 eV
P 14.039899112746763 7.921462260776292 8.763474699912463
P 11.232121108007682 5.942501617170333 8.763794060349586
P 12.113325121453252 7.705078141940862 7.671931451193435
P 7.4271705587411825 6.229712472656809 8.059287118224274
P 13.996701733808964 6.542221702230441 10.510214091607839
P 12.01909913438664 5.981867060794962 10.837666857176245
P 5.976134568356288 7.209465754164087 9.513864273880902
P 9.271880776526949 6.8225795584915 9.234617003255668
P 12.7916373570228 10.899968751638765 7.828797855186867
P 7.732438727095222 8.26385757293376 7.135552669113025
P 10.881725336584658 11.547833523890349 6.934460202158032
P 12.319197240075058 9.250999383005087 9.267710565967144
P 11.468569152824932 13.60713444637544 7.665624698553141
P 8.798070265085505 9.062187864838064 9.04880727684437
P 5.653230530974621 8.74124453111818 7.838167072218649
P 7.396161635237943 8.482309506860343 10.683746865462085
P 13.190095022922964 12.879114047524364 8.875511867061832
P 12.95047953382188 8.851876511235197 13.684481809715464
P 11.424779828331635 7.294977611056508 13.741005972569901
P 10.549147647420927 7.884927788541734 11.743720744894183
P 8.681561231992582 6.6901643909211055 11.350284115445339
P 6.666883667342138 10.501419048567062 8.758303241142885
P 9.979179278235444 12.407973539395421 8.830036321180744
P 7.047609169819706 11.57240899173281 6.829219993713183
P 11.329101438802544 8.941425928785963 15.177534421676087
P 11.744184367937896 10.811559379821972 12.524457566440354
P 12.479205656435553 14.247915113557791 10.67786507161485
P 10.253765761876963 10.72834313769561 14.177896398485988
P 9.758788717960167 10.011535208228961 12.182512874079888
P 10.31351655945978 14.269561307562263 10.921942728256191
P 8.24720150714648 13.241899478570215 7.6661599455870295
P 5.303488750128817 12.093069501030664 9.527581364518351
P 5.280723989192523 12.933455719804483 7.4449631476908396
P 11.494244466158282 13.367441276822708 12.423810422637324
P 6.562635894699958 13.865002702845723 9.028503445193422
