35
Energy = -176.96750143 eV
P 14.131203632035493 11.59647525375655 10.482579327743784
P 13.016309934589215 13.945273479813403 15.346928183759385
P 11.27105553497035 12.671103793873225 15.96974742579141
P 13.729594477132837 9.184114784451731 12.204724275537597
P 8.006874659650828 14.402692216891863 11.937927860456423
P 8.269605391889225 12.317309964141163 11.422335973120386
P 11.639189519221734 5.477804580728256 13.56838836693656
P 13.856193602897749 5.69451691097094 13.608524476831713
P 12.551130556368301 13.734191626078458 6.966335728095057
P 14.752837508451057 12.4331656647456 12.432849605993583
P 6.782760547977648 7.835477651334971 10.561103504977439
P 12.216281198943749 10.938178850593049 14.883969536713318
P 14.027026767721551 13.679365751690108 10.143768245872579
P 9.927147316545916 14.276400836653663 13.043586688225473
P 9.60424863818194 12.60454017948264 14.431988942252016
P 14.561389354937075 14.599102414186714 11.931341618950995
P 9.129161962800818 15.279197781190682 9.796026357109678
P 12.52492430124509 15.973114718122947 14.767392597968291
P 11.33911287083877 7.793090358481025 13.66674303366719
P 15.42949997097427 13.391743370408532 7.533016130521002
P 12.058548756915147 7.945917129063918 11.557866004803142
P 10.466966239953766 12.210322624884572 12.352976132270234
P 13.992419246926397 12.142913792571662 6.6840531525202875
P 8.223923553122503 9.019080866534594 10.192729147325798
P 12.834304755794179 5.681743293772786 11.694091913714658
P 10.876092686308903 16.134137858655272 13.441096271143376
P 13.931714954519755 14.888254294022328 8.28931317892282
P 12.824256289281161 12.665220119550504 13.529964476968207
P 13.50676260751574 7.984455166139191 13.957097991110901
P 7.7702052731938185 14.231369740460709 8.408077400894038
P 13.870058551408256 10.507041040606822 16.273889955613214
P 10.492852493873794 13.104099604341407 7.319388070104285
P 9.61639981849893 15.06904435973978 7.413065571438763
P 14.545416455965682 8.606632408210492 15.804612240262193
P 9.332601489915014 13.09097843441727 9.490571532951378
