35
Energy = -180.84329831 eV
P 9.11195625763168 9.101994977153057 8.852457498518703
P 12.059021665195074 15.204179782521697 14.218772724002218
P 6.170867897718216 11.710316223442014 11.777837504399505
P 11.296686063915374 15.191813002004258 10.7762296603911
P 6.793572429860983 15.67383688030956 12.46433737938298
P 12.250792974208396 13.9765005481449 12.357117006847583
P 13.819516468883013 15.494666635880685 12.907125868073669
P 13.353163062265343 8.335107948643415 10.981531168776101
P 11.839556075010005 7.486969873872156 9.525441790867276
P 8.399593904388102 11.587892571979959 11.377011752127093
P 10.277713561162633 8.603911568479585 10.619301467063206
P 17.3991458146495 10.609969778610504 10.977254411951394
P 11.984616908276857 11.054327643931641 7.905492966373718
P 18.053283407647612 12.721595195852677 11.076952430380832
P 16.419742980376817 12.285971882312541 9.91403637151252
P 10.445285687971499 9.6363038414355 7.114586457623669
P 12.941311161679826 7.157742170123671 12.816360070972566
P 12.39306193165395 8.857054749305657 7.8146063610002
P 11.926325095411002 10.04124398052105 11.284151153113875
P 7.259257770315365 9.885050959649938 12.32148941353904
P 11.756910722320908 13.814672829972004 9.210969395220271
P 16.39318676157889 12.458232646235762 13.573603209449681
P 6.17038037263175 9.972369414397805 10.370557350847074
P 11.49657492332633 10.031664620740548 13.458975125687976
P 8.188597606344864 14.56474502712319 13.75371560348807
P 16.084711532778424 10.378232539448257 12.916189226060087
P 11.036523684781116 11.909807156077116 9.750703022973273
P 8.775216515108932 16.513226107915976 12.919518248988553
P 7.233924863376594 16.403462179773214 14.49591987519581
P 11.096273881045141 7.864597088077773 13.845214230477742
P 14.700704817890186 11.994775562235244 12.295691724745268
P 13.076209122507212 8.74358744254809 14.368504708466165
P 14.059668296264576 14.432359683716156 14.836025152685764
P 7.922829358757865 10.932032183108792 9.279570539878877
P 14.349726013168874 12.21059674281712 14.504146525182488
