35
Energy = -178.71455146 eV
P 8.073004226161236 10.510252507663695 9.178026344978514
P 13.247048956418064 7.9796358356134025 10.72174142165287
P 12.69531601440493 14.890305141255277 7.0665506827811315
P 11.414739963911236 16.41798670717901 7.9948530882980045
P 15.923820966707163 9.973785575861566 17.102662922942947
P 10.211353869069015 14.380625250184838 14.848736969433771
P 12.966630111224084 8.77540610535324 17.429825278194812
P 14.876937658699648 15.460281880257405 15.561349650459531
P 14.791538515642937 8.369367469424924 16.1351400143965
P 12.869563002257825 10.883491532784351 16.61546180575188
P 14.193334457180292 7.522414373532945 8.724847497393746
P 13.031632524097883 13.062273190490144 11.889922060206342
P 11.96839600881173 7.773900075583104 8.930319049212525
P 12.6828750934171 11.403693668104845 10.700278690782742
P 11.266433164167495 8.660291143748388 14.251654452254208
P 11.289501987709794 11.365478618621463 8.529746488904932
P 9.150771455619973 11.444624223757357 7.586318644933827
P 14.307887934504091 9.93631970566503 10.554459913910298
P 10.552636502122368 10.538898980539487 10.446346256621998
P 12.321420549391336 9.575818658101182 7.6598691917058055
P 13.772756117505406 13.94188957364963 15.232404834678116
P 11.445116274443997 7.708852575784514 16.25645483155025
P 14.713175349524919 10.46284896188819 15.346486484631612
P 13.014734724579009 17.018844220359608 6.602485715591411
P 10.651976790883404 15.254336289464552 12.689556757447589
P 11.27241051186024 14.00959949502513 10.95720575505795
P 11.32757252152738 10.737365362694488 15.049786103961136
P 8.316701295828269 12.692900165434692 9.245850538052888
P 13.518038375199323 16.234936511116572 8.598806134251651
P 9.887320402376696 9.25871407177731 15.88273239710717
P 14.42492585549379 9.801670255338475 8.325724998454017
P 9.586084747020832 12.429584851727956 11.089788355269675
P 10.132330672848633 17.278695067701168 12.297312752713678
P 8.416697299144634 15.299731900560767 14.852318744128608
P 8.571181782397296 15.831045735907253 12.530840854439484
