36
Energy = -183.15012907 eV
P 13.772701226920873 12.06726927695022 12.186952618518072
P 17.225788140904257 14.554424935690363 12.509347643868578
P 14.3987485895819 11.143543004550295 15.153610931264918
P 17.078042691717208 14.197181535480356 10.339591205835998
P 15.143987810303422 15.525401856550628 12.45996029135089
P 9.391080416968222 16.346557053206347 9.727472049047451
P 8.796409861909238 14.738617785971769 11.174228649801185
P 17.76290026699085 11.209598223982574 11.670180957480687
P 13.904641506759043 13.225209726785536 15.718494110794323
P 17.03400037924555 12.081353776579208 9.934322276438708
P 12.623981684098405 7.060811638201924 15.45717080310093
P 15.048848800632365 15.166333180512273 10.187503582996529
P 11.141501225200743 11.298576025828769 11.724064699386696
P 15.398045614478118 11.696768158587442 18.30464789030241
P 11.849437939529112 19.282178726006165 14.335021882301008
P 15.843515090262619 10.509956167101771 16.618757961336883
P 12.879004631716047 10.938835627507364 10.516206723341856
P 11.908449280358884 6.40997263986368 13.476401347743632
P 11.169890004418555 18.098875369967097 16.06596146352439
P 14.092991431877694 13.2827933309777 17.874377287475944
P 15.54930743016707 11.22259727810438 13.184056749329013
P 13.670951059296668 14.173773504384076 11.58263371834933
P 11.386435765359156 17.139190212460456 14.09921599912904
P 11.37868612550932 13.664270969276284 8.825225069642379
P 17.311953805699567 12.533658836673146 13.406199749526227
P 13.87105854982814 7.3891824063312495 13.671851891019543
P 10.841060066514018 12.824622055577965 16.755858129683578
P 13.17370067473531 17.75915479739632 15.218736347552772
P 12.031500757514916 8.558954953190057 13.958053151116486
P 10.316460571298434 13.191501028489556 10.702780591723554
P 9.599831856962007 11.23176935113388 9.996433545125429
P 11.048761751383783 11.515444157227625 8.335175627261577
P 9.73038048149384 14.9263639489136 8.03046347442975
P 11.814925197390131 13.654232738637965 15.13705269342466
P 7.808512901612843 14.893800786062117 9.1886231845115
P 9.728011434137324 12.212729958615096 18.198870725039672
