36
Energy = -181.45998103 eV
P 14.16105159799782 14.76623456478209 15.421763394931169
P 12.864927684378609 16.768367617174036 6.643587346838996
P 11.937355404782567 7.9903650570103615 8.850759628318384
P 11.58002625483614 11.947780642133026 12.672179166077944
P 14.932246168706532 16.92290208938641 12.923878316991287
P 9.280445145555568 14.588388192895966 13.790291066269429
P 17.109954695158827 14.512994419546912 13.27476395718632
P 10.315816821837567 7.438527281675197 7.499567926040261
P 13.7383091645021 7.423255341128832 13.628861693569998
P 15.417997142089138 6.772481460651846 14.238139079506162
P 9.106102646605798 9.647527523518718 13.075001793253284
P 12.306395354451013 13.914742214519782 12.001399745067229
P 9.631558279595959 9.71039105812496 15.299140847130039
P 6.665309515968116 7.910650971699449 11.251563862856035
P 13.146160059954251 14.758815749547567 7.502866376083309
P 16.05930972528409 15.393079192476518 11.745044047047044
P 10.882638463936667 12.737912077170796 10.734476712198372
P 10.79939246518489 15.418727535752794 12.69324345733615
P 8.461797748022395 7.447856073657571 8.376889160497353
P 12.060208084819207 11.512791037512851 9.222829783815998
P 14.172983476114986 16.842818228148214 16.212131308222947
P 7.976158921030002 11.473551404631774 12.925326178639223
P 10.098014381480843 11.703356915454192 15.841898625448591
P 13.132729983583245 16.4054721705936 14.345571559272177
P 15.870355295220282 15.937921270893009 14.654229502157863
P 8.324096510469754 6.535896078664434 11.704633457585537
P 13.631707514984393 10.497388530098448 10.436014684486826
P 9.712111787402641 12.421338677765668 13.821689415160474
P 14.739811494503085 9.779407851660068 8.62825578303354
P 11.583441314289752 9.627921041172055 10.315404536030835
P 13.601249311169722 8.46661902994514 7.550612378006671
P 13.262159426090593 16.53580500787434 8.797272480853522
P 9.85189911402961 8.032445734723282 16.328287972096174
P 11.322860771896964 15.909667279032208 7.9611130636323
P 7.612274139149668 7.96865351961582 13.269260048917983
P 8.698944276984546 8.325747301428988 10.409851787507984
