36
Energy = -186.00380757 eV
P 12.963477438099169 16.331640881513472 11.802773161360637
P 13.456593275569649 16.158971488808533 9.667034189714698
P 13.866266274841578 14.401719910661305 12.631323267417056
P 13.787633696036893 13.314985427111848 10.700617316210144
P 14.53207297421728 11.302235212778783 11.307079641229954
P 11.874618904181352 14.569692106782686 13.684916181641219
P 12.331987208003069 11.746312483494744 8.484636808505872
P 12.750079746324039 10.517015690835155 12.476004519263062
P 14.04522069088639 10.465240410416165 9.275129618902923
P 10.831584116619727 15.656260500511157 12.010441426724995
P 11.767723600435248 15.498119540076031 8.691777930891892
P 11.699916168292454 12.618187946771044 10.482055383607994
P 11.196469802880312 9.955804930832755 7.803277229761276
P 7.409290786388195 10.785287106479032 8.57500280503261
P 10.476238483763643 14.443905358643752 10.13958651117537
P 10.770357114940158 12.880069563161651 14.541393533132949
P 9.19719123536743 10.63071038953464 7.14179843864853
P 13.308940065396888 8.423908356078437 9.883261278923205
P 7.874761236994516 11.936295819280115 13.678959095465652
P 9.961093187777703 11.698062369438084 12.837845841380181
P 8.446311971168862 11.04050762789175 10.511484343170872
P 11.080631355093804 8.67334563248932 9.619353156186722
P 13.735020780954368 10.788967896837157 14.446088414265741
P 12.682930924726993 12.238987062498097 15.454320450340079
P 8.521204171047529 8.512500294938258 6.736072462364981
P 6.710121188274952 11.246886809841493 11.860244006330436
P 11.298273282873753 6.547753657655489 8.756286128955738
P 13.27261794161094 8.364794067412259 12.159071941041125
P 6.703498224668434 8.681957179535644 8.100059886197382
P 7.915526072468573 9.322861917568108 11.822080085593567
P 8.617462457041066 7.9318679695049115 8.871074037212782
P 11.270559833619414 7.926752186221108 13.088836997399744
P 9.17069864941557 5.788245948127776 8.66180257904717
P 10.396930209659732 5.530991093092816 10.517356382531096
P 9.748040409594042 6.905358603809398 12.120781273795139
P 9.005069688825802 9.957169041949943 13.76314756880849
