36
Energy = -186.60583637 eV
P 14.202870688293725 10.18549194416877 11.823060622301098
P 14.736618300518456 5.647946192783201 9.24362375630467
P 12.50736816230247 10.440201110876854 14.654796969591196
P 12.518895772940471 9.119130976857477 12.866630633594067
P 13.918627065837951 12.38306855218028 11.606990137939851
P 12.976583758021103 6.896042561763025 9.667551719424536
P 8.25880942640657 8.495294801011294 13.955691242986132
P 10.399690845050921 11.102669123937865 14.893466023872021
P 11.911407032662998 12.57104890227129 14.184852050632145
P 14.447231236552307 7.549407000557146 8.166822877697097
P 14.01398721129762 11.094456658268834 9.784318850059721
P 13.13020287228163 5.836668143440556 7.745635797272679
P 9.276144108269506 10.421543156566871 13.084655657149039
P 11.835431097832874 13.121671563675516 12.00543890326616
P 9.479009840872775 7.335099938000071 12.528120389553056
P 10.569408297269772 9.250594867555764 11.748871765011984
P 8.874062073455619 13.719711963446034 12.385773295643956
P 7.416139650014196 8.000614332477078 11.979693191900076
P 9.965052597783268 12.018765553666768 11.299756575963274
P 11.862941004589775 11.014008831018211 9.215961837128305
P 7.952061928265155 9.861478381695333 10.72459883556888
P 11.944385915406436 10.38865205011223 7.128942096455353
P 9.680821610516258 7.327445872396742 6.788247006757296
P 6.747390430619654 13.386056742195182 11.852758383842868
P 8.071381132631993 14.675440666637378 10.53587769861837
P 6.265194422266705 11.40491546843127 10.839556416052899
P 7.7876403490908395 7.273470344500347 8.027931809955474
P 9.39625311315608 10.493507834558663 7.577222075694262
P 8.939815361361626 12.930893175538344 9.370401146673162
P 6.79031129118638 9.052556139139428 8.931204348223627
P 11.96384001026434 12.529986973724933 7.571064828158817
P 9.334687856461013 9.241985889958912 5.706351188243455
P 7.719326919041258 7.666043343761931 5.8184257823531205
P 6.851882204956014 12.307760088367319 8.904901423106471
P 9.695936871860651 12.731573285012287 7.276664355359549
P 7.066142997735929 10.686614728972275 7.465719913982792
