36
Energy = -180.49362655 eV
P 15.342095100026418 15.953293462880431 11.419234483472223
P 10.65506436372615 12.479392751925468 9.489761466789057
P 14.275213256641422 12.476006351638443 12.583703575593239
P 11.985325633960816 11.6799077279833 19.577702232240885
P 19.108157525688938 8.864861434130411 13.377082987017657
P 10.946526366340493 8.763933760459693 11.269355479440295
P 8.623015732283406 12.818263156166498 10.31630711157545
P 10.050406018164246 15.155428728198103 12.693938134542124
P 11.626265706716751 10.526974532552183 14.294134437269948
P 14.677226968015612 12.666226086410338 9.296383518866834
P 13.673374151417557 16.218460857358114 12.83024576405045
P 15.741344640779417 14.155116865424658 12.39373265505368
P 8.683093841650054 13.470730932363335 12.283441406543815
P 13.981743932725218 15.235253359753449 14.816793126387061
P 10.144112033536716 11.972682122635542 7.391585743533725
P 12.332379787694252 12.347188684469895 7.111148878627553
P 13.110456074585283 11.304395708021628 18.099702077068066
P 16.04706976376889 14.242071640555155 14.611028342161527
P 11.548838790800653 14.603982939271951 14.680892681030237
P 10.71409547719913 15.867967674385715 16.2440783088574
P 10.113369376786173 17.16665528320451 12.109205796297458
P 9.760908088834137 9.321944821961905 14.414438850321694
P 13.986006183989078 17.37676647825329 14.59830116140726
P 17.3124194573673 9.670581970052481 13.040331296656761
P 17.585512294799873 11.871322230791703 13.559210694445868
P 11.752962707154612 8.370612074556066 14.71961382840293
P 9.041439429141137 15.050117591297711 15.070609724580656
P 13.05294963785841 11.386947064821952 9.00342202936819
P 9.202122395275042 8.890866840551077 12.284382688566746
P 11.751650645007167 15.892650044476602 11.453158578110024
P 17.255284258460552 12.734265094802973 11.511481960509927
P 15.473054863598467 11.453678614439571 10.979682020545905
P 12.5471041948656 9.166858469345156 12.795108240017646
P 10.246903913538137 13.650120527195421 16.215947749358467
P 15.509025686833084 12.068390277263267 14.439694839208132
P 10.978632534356748 13.961234673988745 7.8603089656676906
