36
Energy = -184.12126202 eV
P 10.837980765416084 15.422705717498909 7.992031180581034
P 15.479532264726048 15.040939207932949 13.066160672168253
P 10.32295527288868 9.591221671789476 10.274336051071433
P 13.737709385523365 6.60502988546189 15.369975756959574
P 9.130333905136323 14.130449689818288 12.624143563974364
P 12.490067634016576 13.883460238956758 14.302258168116667
P 9.125520989358398 11.050451796780294 6.970872969092353
P 13.127929175178044 9.116968517523917 12.559983035481874
P 9.049446687137786 10.52361270448798 14.194731723136274
P 14.75047022029812 12.017003758782932 14.290536518302618
P 7.1610252507836 11.84421476671483 11.054074929188827
P 10.655304081533474 11.530047230248854 11.254275240342151
P 11.092558250911738 10.911047046575993 14.801967351132308
P 11.983649157060022 10.780411649914818 9.311151966885204
P 14.830856893916106 7.205244038749126 13.742974494518542
P 12.94436899231333 6.069037941598048 13.394177447027088
P 11.863219121286468 8.145825009291594 11.006253775565098
P 15.306808736042463 11.810843437012807 11.027824714400632
P 10.418148335469908 14.612405347529634 14.367660487729015
P 10.236126853395456 13.795542389059507 10.488057432464272
P 16.624893363858853 13.343766963336787 11.727117715835526
P 11.226200473380755 11.73425976266205 7.428447834299048
P 13.67605268115055 12.833991564143423 12.509493629636074
P 11.139213397966941 12.946833632001981 15.747525730258477
P 16.503557817868547 11.478327652586444 12.883479075152305
P 15.692926202104092 13.979434434673612 14.994288532009712
P 11.618502525657835 13.50351801567016 8.689436718787814
P 9.716434398947836 8.922349461218904 7.017989119308893
P 10.211267906907105 9.97160045572254 5.335144950748796
P 12.18582874783737 11.131810466976747 12.83793206067162
P 11.461129227993819 7.822124341862323 13.16930515650672
P 13.989129955095676 15.3948384679574 14.746066785371934
P 8.041663257193928 13.256140201992478 9.574767806756794
P 6.587384593733597 13.916242520428572 10.979628706640533
P 8.886444594261611 11.974668267709704 12.641026418936274
P 10.127874880328184 15.936147742005009 9.857418277619281
