36
Energy = -184.77392866 eV
P 9.739633106232638 6.749934852456619 8.63997823320149
P 12.555741764104676 12.007464689015844 13.653566754011447
P 16.040581973185972 13.469252950198825 9.055124415100012
P 10.610023721460863 9.292417433940004 16.417211605941628
P 13.325322915710803 14.330189082389222 16.00207279921866
P 11.943312524441959 13.775542624557795 7.966252650010257
P 11.80232975154874 15.814453831171855 7.150210946629894
P 11.732276497559134 15.17001642332128 14.679012127051335
P 12.323156035556101 7.989775015798283 16.883987344015686
P 10.63523854130446 8.135808274418148 18.291634095081115
P 9.990082205236702 14.793030474167713 7.877526713714927
P 9.259194718824928 10.825954526317343 12.289655471736669
P 9.772947336329636 9.58726676687627 10.545980782431613
P 10.402904345394038 11.681783987848124 10.439753735693072
P 15.075171851999709 10.048779415312895 12.158306149218834
P 12.950725714277294 16.894979922761287 14.111425373379868
P 9.909580529191466 13.101763364264063 14.76051310335731
P 17.6033263568108 14.94367780149064 8.56661167277361
P 11.233126327561386 13.717327868401997 13.061287616953088
P 7.884259906872539 13.038200254381625 14.338301645767668
P 11.783910188775016 7.590922957480555 8.986687059922046
P 13.73373475935768 11.717507980894604 11.748277714408099
P 12.4503970696161 10.703069093873124 10.30221128807505
P 16.08113431837278 10.420240090858266 13.972126145677564
P 14.191405183817308 16.389826041102722 15.702044889473111
P 16.79837128007771 14.817426180003784 10.61618311467688
P 11.522541966119004 15.468009073735553 9.307449422962238
P 15.54998790991866 15.615540356148095 8.987746958811575
P 11.717683059696114 8.638476307025249 10.946746546291244
P 10.404268525343168 8.520791396719114 7.480219459585952
P 12.003819941990141 9.842980686304813 18.026118699480744
P 7.675247230883819 11.855113619206005 11.110726308898963
P 8.666805061548596 8.702407444887019 8.86216369096996
P 7.210293738212562 13.476402075288103 12.322491743624187
P 14.280175689402201 13.388005196768573 14.191727916424483
P 15.757158410706655 12.101532398055957 15.16453626286936
