36
Energy = -187.27606036 eV
P 15.465960324435637 7.5136327765947755 11.263163096226018
P 14.858234370750726 8.258148042046818 13.237998602397091
P 13.59428908870741 6.678118280362196 12.282490086768581
P 14.595727235999265 8.907878237038732 9.724627954541623
P 13.065789224754322 7.370734338052572 9.223976079132425
P 14.136308741083925 10.33423053674337 12.937460366709017
P 11.834251453491936 7.3965712587914965 11.071888682574652
P 12.045272764344332 9.745908694385689 13.53971398020763
P 12.09047746834716 8.117845729160914 7.37618041836962
P 13.448541642609129 10.482158803176507 10.808533909073564
P 10.941576046965132 6.275478669470078 6.842000171704473
P 10.134520917389521 10.259859086878532 5.8351109677652895
P 11.447924261299692 9.569812178245552 11.347119264237245
P 10.664168572744366 9.694900075898387 7.958738186139079
P 10.148092495138972 12.510458160472483 5.836902119572546
P 11.217660288378468 11.586169644481057 14.436904413564012
P 8.226261628944892 11.43621136992544 5.955029824050538
P 8.985486577379692 6.6229428104738055 7.29572345778396
P 8.936124004741984 9.046983892182388 14.123835778507624
P 10.881044339562616 12.941673964318175 7.895448172962457
P 7.513432099484212 10.457204252766227 11.62302970372061
P 10.699250013220915 13.204506031727998 12.884830771746797
P 9.047725639360984 8.369560599105695 8.62267791450091
P 9.056657783669504 11.092109641597249 14.311681180949755
P 9.371172373027088 12.168148841986946 9.290812478084337
P 11.988139619253024 14.844883610488928 13.739336402402985
P 9.952153825887393 14.535814004595608 14.505770650926248
P 10.679056486869511 14.922530585719826 10.430131743102306
P 7.564667767160888 11.607060940705585 8.061951044357613
P 6.818692193419347 9.123731475648393 13.291985100773118
P 9.358259595282894 14.352640126471266 8.714249588253058
P 7.8181562177634785 8.305307998107851 11.44792341199332
P 7.124859373555876 9.435749205233764 8.28768882834605
P 6.119503059773179 9.290052460158371 10.327914668839538
P 10.418429803150424 16.391284088641857 13.31910013308338
P 9.325884342664978 16.110423692362183 11.423331711072828
