36
Energy = -183.04294754 eV
P 11.524063551058576 11.169272223235739 15.825618614638527
P 10.128535318308266 9.192397737087562 12.361932826774023
P 9.217541585266678 17.75031173419627 12.777116350300751
P 8.505529896194998 14.097314398499039 15.892113496197307
P 13.59940592549653 13.606869158092538 12.549138866529239
P 15.323328958258612 12.17240789292714 12.526100179256048
P 14.804264448583716 14.722707283258286 10.974675065914644
P 12.730840883795342 14.616087905724688 14.244455063522224
P 6.980157496692164 15.680731438023836 15.602699775928302
P 11.601838509347385 9.070296722019876 8.800116551048887
P 12.812666752728934 10.205515481308614 10.263051922399535
P 17.786352547951456 8.166741343188752 9.594573967901606
P 9.995662366980003 16.107845185303873 11.550764978247663
P 9.488018896804611 10.512229517062652 16.373626408096996
P 12.770178255236708 15.025400444115432 10.12690865692497
P 17.801382825158484 8.355758200973263 7.699660967017746
P 14.187628466396328 8.561978150774152 10.73619931155273
P 10.547131062858854 7.2693257528358535 11.314252377809181
P 13.488305225056331 12.002075369842697 9.170508156434124
P 14.382344424490755 10.862421216885169 7.493084669867047
P 13.634441749898743 9.012136476058737 12.88888963950853
P 11.01440319872626 14.631057067448788 12.938016189842227
P 12.007065284699758 16.987030888535894 10.697148041600128
P 13.390033007910759 9.044755190742608 7.450337893994128
P 9.324751347995537 8.813431881695164 10.399526945933017
P 8.628741646889633 16.267700374731454 14.161794709268754
P 15.300438524408635 10.313027505413357 13.492846789867068
P 12.045232250589628 10.485257106908067 12.281435816704997
P 11.194732290263456 9.156985820242214 16.660325112724752
P 12.448981879790546 7.32940958985726 9.880492789033369
P 8.930383466135076 14.169843311930636 13.60463258073063
P 11.734877854775055 13.336901588318819 11.257901725874307
P 9.050282370594424 16.210202603234706 16.335164315716252
P 12.05349214103909 16.27556339332836 8.620182250712887
P 10.97136707380076 10.934371277124308 17.945596433742516
P 15.359424352233582 12.648464605489327 10.272936394800748
