36
Energy = -179.72230129 eV
P 11.178231166767482 15.636915576784034 10.487951801906048
P 15.591284300136307 12.635255444064937 10.526092241694773
P 9.089668758451639 11.217801392936314 12.893139050970902
P 13.752508763908992 7.790604761587913 10.467586108453396
P 11.245164419959664 10.919655933137653 10.549403419282196
P 10.708208210798166 13.985895582796001 9.165673316766503
P 11.93456809949089 13.219033747672613 13.726018796039416
P 15.282795183621905 7.121397087024134 11.740920196250933
P 8.922924794578218 7.613899315374777 6.885082161490659
P 8.180913487641917 6.850012355820078 8.688785017683593
P 13.862022549517025 12.844398758622695 14.452366742061201
P 5.920707497002384 15.470960794219927 15.458635359703523
P 15.067643092284031 10.51665444683574 10.831342204084246
P 13.865203936140663 10.671827286015708 14.092932840576287
P 13.220545759833005 10.777192477665992 9.587482619047382
P 11.628113315541222 13.636167283420013 11.126622301269052
P 8.626161156554229 13.085777745552528 9.833835001458725
P 13.87975212865535 14.8578302969092 17.37687962399785
P 12.291591940916925 15.860687095761197 17.683335130913825
P 11.001701180017232 11.22204771782663 14.05335237770758
P 10.796242631267818 9.779025301319836 12.363938178016957
P 8.210670746617424 11.173988645366666 8.883368201375664
P 16.28269928909844 16.430138864639517 9.622046775028233
P 7.897698308022884 14.53069830062425 15.213391415085242
P 14.67289100118865 9.11761764371457 15.405759425519495
P 9.834965980461455 9.841628799656151 9.252316648497121
P 9.895023336518587 7.626222300125663 9.830295925060543
P 14.995089423998701 16.37226254415938 8.223925174644908
P 13.61452790045892 12.978983461407722 9.81004336687343
P 10.764744834419636 8.354878511449183 7.860588974239045
P 7.123440464773213 15.865715459149536 13.651123609351474
P 15.922056654316194 8.430515031068367 13.811950810289508
P 15.789021167094829 8.472717559837402 10.033460688341911
P 9.422300969487727 13.165252663579615 11.889292593513513
P 6.21310448883411 13.888857807960674 13.952905575648712
P 15.710846555238037 10.432515499527232 12.963189820770658
