36
Energy = -186.87552693 eV
P 17.773387302369944 14.323862856566892 9.748445849031416
P 17.77078316909597 13.196609757636685 7.950870366504549
P 17.983162713389746 12.1166592795904 9.856557967905967
P 14.373962834904916 15.974181998698235 9.993387201198049
P 15.131536956772413 15.682830248639856 12.049283360271186
P 15.404665800548386 14.020272110113886 10.348141414193039
P 15.858329757347729 12.128520017228722 9.127571606753163
P 13.058609084233648 15.350372046159151 11.64555627964808
P 13.546117068208833 12.888936781516676 11.07068604925588
P 12.79553078857285 12.335508860313253 9.041462546601855
P 14.214891299330995 10.942049274163413 10.034261804199401
P 10.66336769436678 11.597883901830782 6.598191869716236
P 12.606593378693045 13.723696663660029 16.222872243532137
P 11.165704657308348 12.12609909304155 16.836635061498423
P 9.325864596481964 12.062708052669741 8.316546996261964
P 10.85758500010231 11.45972944346702 9.838994020493129
P 10.881573878469933 9.555354535659461 6.42175326678722
P 12.435593784804773 12.114836798511263 14.996658225490103
P 14.36577409159678 9.33143241309015 14.661266754841268
P 9.240686916564187 12.499364035669972 12.172033306750384
P 10.93097636203572 9.25851866849444 9.779526623835688
P 14.44029081760779 7.1268242618781334 14.632983482416867
P 9.634624603162958 8.690164994731212 8.015109110510785
P 13.117410864212907 8.210754013936368 13.238815332348379
P 9.353376243071747 12.92607997964937 15.789396181014865
P 8.066745737880932 10.242392022590249 8.12912010306565
P 7.2758723141405195 12.732190340615283 11.131344069825415
P 9.251288974588894 8.841848987842232 11.193167619786056
P 12.646298444690611 8.158840694216146 15.387381511201045
P 7.492588665734104 13.356755480666632 13.255192486869218
P 9.289674485227508 10.346186616283116 12.844327491797715
P 8.3037016414032 11.158630385167355 15.800450676381196
P 7.357328178085371 9.306851689564919 10.00834977292783
P 6.261389574680064 10.768895345237452 11.307397761567142
P 6.626904386808766 11.644874156316531 14.4247970537568
P 7.143657099056009 9.92215734865065 13.154820113582188
