36
Energy = -181.69643813 eV
P 10.52674745205596 12.95096859363465 8.852394504178706
P 8.486696404086919 13.607419894676717 16.793614197212438
P 11.947778049476447 15.155596250253906 11.470182584908274
P 11.930485190255139 16.884860279075244 9.31626453492778
P 11.458710562230738 9.929576013381697 14.040367158037576
P 9.797055255346386 16.048896723329204 9.575239114394739
P 10.863621821814375 17.100602231155307 11.272296956775287
P 14.397681138142104 13.65759593141964 12.8222490608059
P 8.61913034659532 11.734487517039458 16.473057178433496
P 12.440450583749897 14.441558478265822 13.532581219106353
P 15.820294703397556 7.878299390303834 9.782894317791925
P 12.937055297141551 9.883062228703114 12.364451841486048
P 8.334739562161094 11.034106171745291 12.979436559514237
P 14.861232466863546 13.520331557716625 16.405233307255877
P 12.582148934942978 9.791053920922094 9.169846903973296
P 14.873639444856607 9.19133330101219 13.272041168677733
P 14.93631850018563 10.4588883226934 15.082998490868183
P 13.46676583817438 15.444647057936505 10.021401264271038
P 7.907959039957507 10.917733373102337 9.962390165878642
P 15.921703296363614 17.148554852992454 9.21520652199429
P 12.22747716348007 8.0963914358267 11.297956205143597
P 9.639666267383413 10.318314948548993 11.285239313839957
P 11.648742015997133 7.762083244913854 13.642494234729476
P 13.343762954482406 11.294256479029576 10.608233020302473
P 7.236878887574775 12.345356164641244 11.520520564510397
P 12.946983173410574 9.666969087992738 15.749273242849133
P 14.284629516469261 15.694566123271379 13.69410649754328
P 15.437380158243432 9.051203684877263 8.322568972273832
P 15.360969848005334 12.56498383376112 14.527807232865658
P 10.040113945073015 8.23263162453258 11.595336392084322
P 11.257851744992836 11.302213745631061 9.941714229491526
P 14.408153211762984 15.452609879185673 15.921465306246366
P 17.503729845277466 17.13703019067803 10.28264720479413
P 10.026994905461141 14.125717496204647 10.631510160763499
P 6.647687475264022 10.237464180265858 11.747867519287867
P 13.804398529115645 7.864269321071245 14.752746382574252
