37
Energy = -189.41042858 eV
P 8.228382422875189 8.784679088375109 3.6023835431006637
P 7.29618468012286 6.745995309579371 3.1929722964765523
P 8.68973116554437 5.098519668208961 3.984694642289648
P 5.563574255763075 7.022670877128346 4.456936320481566
P 6.107614513461443 9.183451030179757 4.28784214651487
P 10.402218156129821 6.5503650627918315 4.201824642667622
P 6.426248845552031 3.359772615465964 5.588946354491769
P 10.983907844928508 8.888041063551633 6.124786618551338
P 1.3207019931566717 8.900173481668416 6.708327189536548
P 9.09462762803788 7.894554800719603 5.441818936209346
P 5.460067789634819 4.955902548971857 6.601266175168054
P 8.675701117999928 5.146230745147633 6.249683449857994
P 5.762912477447995 11.543471314978783 6.915449499591781
P 7.804002827649362 11.543610271696444 5.9503753817485165
P 10.950354797045486 5.36356117030026 6.048567195750527
P 6.753064469883962 9.618024133887795 6.409828152714106
P 8.335188479026906 2.9431382147749416 6.626938997750574
P 3.034530324635716 7.644785224758814 7.312668068455404
P 8.554617558651259 9.925715350300704 8.632038984089165
P 1.0794573922915605 6.71560418640534 6.902630056155256
P 11.661231266992644 7.116986015146752 7.3002058088659725
P 10.418339621285078 4.74790036524062 8.885656900345136
P 5.390228422646912 4.523829306808757 8.733443695725327
P 6.289601336255919 11.454430176382468 9.088725874584371
P 10.63978535033373 10.125706583031738 7.939352516604633
P 8.192900571611204 5.181081469067875 9.093780112156447
P 9.241326274944571 11.826537199694691 7.7018013394096965
P 5.3703891282547715 9.696734157485023 9.724519074619433
P 6.927570168985044 7.735849708549467 9.690731256138125
P 7.592555044234416 3.0655848189577415 8.761733189224708
P 10.845907981780098 6.876327231618264 9.513232748065283
P 8.888920655222405 9.697881034601732 10.854444909256982
P 1.3577617752715672 7.960170761228107 8.70326549404684
P 8.998813303031135 7.457214845117721 10.643904791380223
P 5.805204232773276 5.903510001414846 10.296072693714919
P 9.113653402532893 3.6274271558323328 10.364186884884598
P 6.699099660337639 9.130939947263178 11.421340995707553
