37
Energy = -187.98399296 eV
P 19.563988473173826 18.081117313660382 17.804980394220404
P 17.462147732716232 17.466731010278195 13.130110094946449
P 13.743768061907504 15.56551053203424 9.855385955558738
P 16.2190598363285 8.822520472399635 17.21057925994477
P 15.84673152406228 18.75768203471888 11.233319493171448
P 17.935922557561017 17.960083840261326 16.473223580248636
P 10.595168118150024 16.97094078111957 10.228551084518656
P 14.374993517901407 8.640209806745698 15.668205359999657
P 11.522815173734816 16.26651652310399 15.86414858204175
P 20.953539825120767 20.2092321701467 15.022694700885502
P 9.937947584881876 15.156800481323106 13.070282826092484
P 14.265298928645619 13.381202954030279 17.64496560764155
P 17.166700942784722 10.778017120041985 17.04036093447729
P 21.12014632981767 19.767019036761496 17.10906205767544
P 10.450704881815476 14.900401048989679 10.907955930943652
P 15.491746537065872 16.431567639179136 11.005249162156863
P 12.550794149896449 12.242981304870984 18.326654852081735
P 10.545785995080635 13.022745174078416 17.42662635481922
P 14.05542369503896 10.815980689416623 15.316623468277216
P 19.009106783597602 17.180916920415246 14.811409147100555
P 15.127160905711554 11.442727189167618 17.246907257633328
P 17.866253260528843 17.90251170002552 10.841241782462486
P 21.399121514609668 17.55088334048441 16.736021736002193
P 12.403697989561078 10.617405704144982 16.735150170584795
P 21.074391700482618 18.09711293741899 14.58556205142847
P 13.076798103658867 13.359025351585617 12.887224060727533
P 12.527182485410068 17.33558172709007 9.642458763957226
P 14.779297952744976 9.73556095032481 18.629965344204393
P 12.482689717972178 13.962566939449403 10.8608077526135
P 11.156010248366165 13.436123032045868 13.824979222378188
P 17.125505476370574 16.218242798216405 9.686101484597174
P 11.286444306428372 16.7474167014158 13.842816387294873
P 16.252516749383524 19.186750398544962 13.344436606888971
P 10.212238127876635 11.496789192103106 14.047018062052683
P 10.458164626738371 14.387858513762577 15.752947199084643
P 13.05430563914337 8.647005687803194 17.49947447542384
P 10.249982209835625 11.147982934610692 16.170374400203507
