37
Energy = -188.39939798 eV
P 11.88584628558507 13.810507524474042 8.152851578702858
P 12.694610196216567 15.204452738930287 9.550830327438456
P 14.963153111160628 11.585256267755069 9.089239323745991
P 12.840817889622498 14.320714027932398 11.758185348763567
P 13.919852567173352 12.467695455983742 12.27324961873578
P 10.563432166460329 15.328136358316597 8.940638219000054
P 13.181839070510707 9.728022958152602 11.587852852059163
P 9.3704227730591 14.828157362875363 12.792273292849679
P 14.839149580429948 14.434476369459672 12.423934254511726
P 10.39920199148228 13.531385798529632 14.122358980536367
P 13.52241404499394 11.95803626215025 14.550835815874237
P 11.473303342194704 15.253350456356966 13.382611981198417
P 13.574087135024412 10.683609324842779 7.6268400643564345
P 15.33226221696205 9.647845446455724 8.494307490838947
P 14.158728858452193 9.824735998722305 14.832139315868316
P 14.872241503188066 9.066530235663897 12.82892744130581
P 10.620242862975415 10.332872957498612 13.207300411990323
P 7.324967317084666 13.916575808421543 9.992942167055464
P 11.816193340579249 7.995636093224337 9.13028166776897
P 11.722615979243312 10.25053203709184 8.949890266185502
P 13.787415460119831 8.092016637927374 10.228763525070619
P 10.501592676958476 10.397480557644938 7.067640964484694
P 8.80828635283601 11.79817450385163 7.4423751393623165
P 7.768997462951381 9.277638097104017 9.327524731870971
P 8.45852406617593 9.58215048825259 7.238440774825071
P 9.414069109800675 14.10175011695451 10.543476292696308
P 8.821851433309133 10.595459076696716 14.709570110451484
P 9.190868323279139 10.333118787558789 10.643698793364527
P 8.396319205332858 7.318228062599399 10.245759681611617
P 8.244673048351912 8.704900588860347 12.049777399820643
P 10.59504342107658 7.2124030004607755 10.792980841999363
P 8.583271961560715 12.250704113653011 9.680151513244393
P 10.220824755964554 8.150547258992598 12.8518430430727
P 12.014974066468508 10.364338026703969 14.99460158407907
P 13.21166852834935 7.623865454980549 12.383683883385414
P 6.944669461407248 9.674042290755756 13.898975695979832
P 7.316967933658595 11.710053445747748 13.568644614312449
