37
Energy = -189.92098479 eV
P 15.7846624707931 9.746228457563596 11.178746925079192
P 9.03338183889945 10.61333164739124 8.12783140148814
P 11.028842663768316 8.660274121842061 10.288477273082812
P 13.824738731201855 12.714610809156689 6.644179702700039
P 8.548695359865183 13.4818757547366 12.148666688287504
P 13.600635496285944 15.22412032305112 8.957447957691567
P 7.677645644069431 14.001450991743205 15.230630827907707
P 15.295257343136965 13.140879353728634 16.530486185312313
P 11.774923025562902 12.911123416442646 6.2287437862793675
P 14.206096756754782 14.77127642555569 17.111771439217804
P 6.805785787008048 14.35995063610054 13.212712528847609
P 10.86063564743514 14.747095525142397 6.686073678502523
P 13.630057297513698 9.884521422367596 11.735903708138048
P 10.867089309780313 9.629748207234123 8.369022657531543
P 11.297282060620068 12.154750690847568 15.191425870073868
P 9.057384975407645 8.666286225780704 11.108782896597615
P 9.591855078045251 15.10062012661701 15.046634954956296
P 11.924898800561785 6.71123182412302 10.014786949345096
P 14.809527547928928 14.403034049407058 7.423209700211934
P 14.327543787861972 10.677580631735635 9.774117520618276
P 13.46861906512787 14.10054834268286 13.778933389764761
P 11.709745188190489 12.958673847094213 13.110825161050792
P 9.699900770799479 10.743531785954037 15.425695151086574
P 7.973455100362433 9.927311010236332 9.844500185827837
P 12.700280073703965 15.227285779290034 15.561036347387061
P 11.004268582798174 14.026937942788175 16.371506830026867
P 7.605730379445352 12.32259257096411 13.78957431895396
P 13.96155565712276 7.199814388355066 9.408505287400816
P 14.587815449788385 12.353320982413711 14.588906034960026
P 14.5634803604269 7.882667846871542 11.428181752077485
P 11.548391283020159 15.392951800168158 8.584718858770932
P 12.457406828567828 9.658223974170507 7.002914777580642
P 10.763336302842404 9.002048675243245 14.786708880890584
P 10.269072953614476 14.62719549002553 12.943014691559473
P 14.201773219797126 9.108640063535992 8.225685287587988
P 12.825836310658328 9.187789942715295 14.776954117153434
P 13.14781583980348 11.115897905493366 15.798109264620805
