37
Energy = -186.24372053 eV
P 13.128636846791844 14.818908661491141 8.860193709839809
P 12.235528932189313 10.809205312231338 18.24342185490075
P 16.054371726489702 14.797589352694919 18.68714234232799
P 13.902663907704895 10.232452070779972 16.87336118825724
P 16.933612521111577 14.781869410879185 20.537687562169495
P 19.759739403509915 15.056198855102506 17.89648839686455
P 12.985093404405474 21.01234733341052 11.123003211382809
P 15.138776852658438 14.84702336327158 21.80412121343052
P 12.330920428791003 11.991669384144256 10.50854713070549
P 11.471588205337863 12.999200222838706 12.139235067069071
P 13.400029232156298 17.266533168068538 22.165043916858444
P 17.79285049564254 14.217919004923372 17.44249919172807
P 17.68476384582289 16.347617926684094 9.812940888301215
P 13.378623982485445 15.65238073976685 20.678348389903157
P 10.041733127850133 11.554162876188961 12.637200717474755
P 17.77629899524312 15.535423317932535 15.667427314927368
P 14.407633545134548 12.093305078654039 15.768938607868591
P 11.373482630791374 12.751296342943693 20.49294555544898
P 17.850265225874313 17.152649681635754 11.83283777227128
P 17.01697865276839 14.112329122696764 14.150898154805686
P 10.146396981310728 9.856179688905426 11.352698672202607
P 16.938285214404317 15.374913837289498 12.513804385214689
P 13.4761374290618 17.586206064952467 11.628394677265526
P 14.746601958887274 18.512437330277617 10.237150421339498
P 15.924845992592001 17.443815442517135 8.717237205021782
P 15.681986006023644 12.65918853052967 10.612897842851384
P 11.643637186200479 10.11152438130409 9.909952118640305
P 16.263377219850224 14.679937985291273 10.53840189572638
P 11.513589859446451 14.643547073711677 21.286903765572116
P 14.49919102104357 20.5368306791685 9.75556393783556
P 13.928980601003163 12.798208141101346 9.21682984058013
P 15.144750232946183 15.386936695001635 8.736779652933738
P 19.97401202970405 15.517328183490047 15.8744121069704
P 15.355741214553797 16.823541327943268 22.723850074236633
P 13.097115990675752 12.429906149667058 19.183983479259428
P 12.394869541738714 19.28480940425587 12.217889282014298
P 15.480106512732139 11.71308915371359 17.454935627830253
