37
Energy = -191.33161145 eV
P 15.264781649849358 13.937093774953027 12.20396236944407
P 8.510131765638878 13.191262263911016 13.688431465495059
P 9.689414543728013 10.697212734513958 7.85410346250877
P 10.847935462813735 15.044644996442507 9.677552825074887
P 11.48311095281757 7.581538269392062 11.101357203639838
P 14.808971363872253 11.939957568843571 11.17495935391514
P 12.651819652652492 12.278304046966747 10.688746175123757
P 10.686377144383812 9.173621767234227 9.402288381470854
P 9.023249151389631 9.735979585936342 12.810769467418952
P 12.981994792623762 14.406154905595422 9.87879235256844
P 11.167014448708318 10.192814864937084 15.10336100581118
P 10.211158615545811 13.7653266041124 12.308145283489075
P 11.844610678318206 8.238437560403874 7.738469755657669
P 7.990796161756564 11.643675908089035 12.19763495294134
P 15.565207527757343 10.982598131537179 9.406856297860953
P 8.428675776077098 6.755101075557333 11.024174024473622
P 11.19098162375105 10.517511671925902 12.914562008343063
P 13.179841272912416 9.399525743569704 15.651370434426706
P 11.292163072895217 11.18205399881527 6.409338580842422
P 7.751496553556261 8.886319663423642 11.136391613502536
P 7.12267622780872 14.56161378665397 12.570749916164049
P 13.357784637195966 15.103554748317473 11.979809400373531
P 14.738458694253351 12.78728073589049 14.016570874930384
P 15.166327360491355 10.939549371236525 13.089234881963547
P 11.442744800832491 8.001628501899448 15.428426119953535
P 9.363266166215068 12.797241785352584 10.501875145504368
P 10.030807903618717 7.186862270047742 12.531858129634891
P 13.741173237463215 11.57776937517964 8.457906243326931
P 10.277736295568086 9.169697590888495 6.345130824957562
P 12.739297623676443 9.069085184855027 12.229893856006676
P 8.216424842781667 16.07098007497884 11.330020271710623
P 8.72078905506303 8.126083491690295 9.282107118494022
P 7.586972294541373 14.140165342502387 10.387157112431332
P 12.342815742013892 13.261635795120998 12.796845466807074
P 10.409942947158234 15.852579472277972 11.69408605750405
P 13.173613916248629 7.872644535329004 14.042059018880604
P 13.093283769001184 10.038539359765823 7.06026488901372
