37
Energy = -188.53295947 eV
P 12.638689648258621 18.77652327283217 11.674023725212463
P 16.28361549385588 17.81319945165927 17.78145966645542
P 12.173710616848247 7.123622861697049 12.699502090168817
P 14.767748850881452 18.376098821607066 11.049177959017053
P 13.115915474236791 13.829928295425695 13.187564155110966
P 11.913236715247915 17.017559358524792 12.597529413393842
P 13.161415097319416 15.474590178986283 11.680054838141452
P 13.067002302675576 16.7048242000713 16.667436025858507
P 15.079551678870372 21.20192560446022 18.190420727314855
P 16.673378349870607 19.919465916547516 18.189138808900907
P 13.537360149111313 20.20361592724223 16.927947556448466
P 17.89458780873433 11.271468431547227 14.155723209968272
P 14.938014080392524 12.85536658514372 15.764585785620419
P 11.648661730410122 19.92783037371451 18.145403022329866
P 11.948476511894834 9.027892068852928 11.63402451168073
P 15.218186188410947 16.9378129505134 16.025269451553278
P 18.41001437153317 15.154193812643754 17.64143948358914
P 15.225237595579213 16.22552773043552 11.453313453253529
P 18.381481918002464 17.286510831600765 17.062380708069323
P 13.205223536092259 12.09317717794125 11.762528060475859
P 18.00874027718971 11.266744230224065 17.48738805720666
P 14.526985485023902 10.658753720862062 15.752793559012659
P 17.880496709298153 15.598008149647864 15.714318412540537
P 15.944817384774353 17.7738678706951 12.85032844640778
P 19.28391172327682 11.200664553048558 15.78386518858325
P 14.58500780999904 9.95133421634078 13.649866736822432
P 13.326932870794673 6.42923568246945 11.050652610142397
P 10.221770633365834 19.698964558527155 16.466755988572015
P 15.37818771543281 11.651234663521441 12.39065318268474
P 12.462648956141829 10.524343934834047 13.200975781745711
P 15.293702533554175 13.503663225644683 13.66931870678979
P 13.28880511478979 18.41817265471124 18.14188571221276
P 16.607833144953897 11.407156532768182 15.866118898539815
P 12.673916835709718 17.70879908804556 14.703279775841212
P 13.80728155062674 8.447459449713387 10.597762566970074
P 14.702958665479226 18.561573615189342 14.562468620054975
P 10.893053900769626 18.993511633958395 14.654179696343018
