37
Energy = -190.52967354 eV
P 6.8901428055087965 7.780402328225171 3.264515960292193
P 6.093786832871069 3.937957946851057 3.2155627427782387
P 3.6973181847533083 6.070205893103325 3.1659685442248247
P 10.010470030810604 7.039532360038072 4.739717568067753
P 5.027178842058939 9.124537820654968 3.7455458897651566
P 7.929799363385017 7.681201528111596 5.339446320267582
P 5.799903090337567 5.993338593649978 3.9983291562398
P 3.3267591569810815 7.842325299026057 4.401097824573538
P 5.015309408083629 3.1644823083916753 5.0329681518610485
P 2.9462124549318025 4.953690035348315 4.976983371462932
P 7.32733542849673 2.7188548412843847 4.56832802141623
P 8.841216866949091 9.77485589965863 5.71846544358339
P 10.898444837751962 6.116718980120436 6.599470746481351
P 4.1662077610983035 6.420859422942488 6.0923999325522
P 6.909726929960904 11.016792393191697 5.942165043165453
P 10.141579243969392 4.813530348978625 4.992362873997822
P 8.24779169492539 4.084805614561752 6.026688942614333
P 5.5959759765678445 9.267908737181143 5.871492847321232
P 9.011993186443572 2.4439769647842384 7.236587172499391
P 8.888897854898525 8.98818774758911 7.79161011305743
P 9.221411491470866 5.5690698410462725 8.039456747926105
P 4.148993468732316 10.328651587748416 7.220417680918737
P 4.45443660393486 3.769993882037547 8.262901348101664
P 9.856980801199926 3.5994708408816676 8.763418248140383
P 10.598327396588843 9.447304359381015 9.185279496478875
P 6.602050479970196 6.2712493120772255 8.86443714557288
P 3.244528692680001 6.934907087369876 8.128885751529376
P 8.732807025631477 10.720161779486487 9.174503191672775
P 4.147299372132844 8.82764258059491 8.877500113918652
P 4.493938340283538 5.647964528880891 9.46171220181884
P 5.591772438548949 4.63258506074148 6.705319935132961
P 6.170203944401747 10.98247567073773 8.066235427261047
P 6.429547013901815 8.67959304470761 8.66692162014235
P 9.548938873808781 8.305314267251028 10.763625872873924
P 9.569210056772116 6.1557425171223175 10.23311237036675
P 7.521607476302052 9.310769392148613 10.566684065365115
P 7.425789898500728 6.1068325097396245 10.823775442202434
