37
Energy = -191.64717429 eV
P 9.922675716361017 6.358382308649148 12.479841824831974
P 13.142021126951846 3.8122950506622155 8.002509294551723
P 6.3379545117503255 6.431903991627646 11.808104937917037
P 8.371801989134623 6.534617522503076 10.861157887808204
P 9.629980112944486 7.828285123717333 14.141224446607456
P 11.556402581647554 5.296014528794546 8.354385469489682
P 5.508394816171616 9.133753868201666 8.46823360051193
P 5.339093100477218 8.395351360733933 11.508728552122083
P 6.093284126703392 7.8854655828984965 13.507114718609031
P 13.56133940031672 5.611476353085114 9.203180518677359
P 11.349038416568998 8.065144725410137 12.728721464583018
P 13.248410030295211 5.785328056161287 7.033189968390306
P 6.906437217900769 9.71732017977531 10.296367385428217
P 7.879833519631644 9.22165057737468 13.906395387188066
P 6.893043154502576 7.39740516487944 8.118939904715093
P 8.453392789482368 8.27628249792495 9.531599831508306
P 7.470930037430564 12.27758046278874 12.954433860580986
P 6.395106486509126 10.230905487300761 6.741221392389544
P 8.262971110664765 10.403609642785913 12.123367628805333
P 10.871698858615616 9.536004976295114 11.088923604222876
P 8.580011047827997 9.96919862577768 7.195163187813761
P 12.666312350271014 9.314057165067338 9.840608787216757
P 12.780757500708841 9.624169677057408 5.545836623479244
P 6.76076147872816 13.356886074255538 11.116997101226291
P 8.848117093131005 13.72440825963096 11.899618050182106
P 6.886748980374103 12.024526904075522 9.343043870975562
P 10.98506221124808 10.585267562211284 4.5910473898449755
P 11.440731851749963 11.149881452964207 8.341531687120924
P 9.790219938246205 12.245026328102597 10.471286582168363
P 9.23633824571435 11.473003824998985 5.686159100515407
P 12.6448237908633 10.878615780618244 11.374060343572769
P 13.272411646206395 11.1685166407665 7.074795852075353
P 12.852667958670436 11.75586284054373 4.938657378385249
P 8.740593931018289 13.204159286973944 8.783201781839814
P 11.94174716834809 12.610931999331044 9.996485450652266
P 10.236109248641673 12.733405637275856 7.205880563625133
P 7.524481264619997 8.365009289208178 6.1196893807946156
