38
Energy = -191.33280587 eV
P 15.114564706552699 15.575898729777892 15.980079505931016
P 9.386745085193075 13.32243969073925 9.207625756748259
P 15.823508154079924 15.943066087744992 19.71661698673093
P 10.723106297835585 10.51028827674863 14.231128523854848
P 10.507128918085785 12.604371979611532 7.426792465982555
P 13.687031007242533 11.554173966771666 15.588623973006214
P 18.997965149939045 10.90877885643675 10.52168348745605
P 10.515091861181018 10.363760829432696 9.582985705361034
P 17.514376085178178 14.02470426042984 9.239830123269172
P 11.373992120469172 16.405941415500852 13.138392715536128
P 17.897985275483784 12.706755771185463 10.79143175416058
P 14.276958979066382 10.394261988546628 13.786753991085167
P 15.672100396461177 12.291784604916089 16.192458745375774
P 9.824306283019327 15.488861755903498 8.966895653978494
P 17.221060850943957 15.642547442469061 10.686998107614441
P 11.401743873100152 12.422400320330391 9.472522177164212
P 11.554964687657383 14.460339939381116 12.208518512716541
P 15.09090220151639 12.738876754624986 18.260053034880304
P 19.767142208148275 11.810090502024758 12.299650955000825
P 12.328423806965972 10.435719065835544 12.703115626983656
P 13.815415935438734 9.312946063841409 15.639555001555234
P 12.908801160734427 15.11046726123199 15.79025574513025
P 10.946481745241561 15.794649341887581 10.66873002522778
P 17.490319231134198 17.306728792771125 9.596421654316954
P 11.629889436927572 8.897328266018059 15.459784738347958
P 11.20076226399757 18.328218538656955 15.469029894801848
P 11.25853821098973 8.570872342994486 13.284689992871382
P 18.425643671248963 13.410914642875605 12.750927037167962
P 17.09703037157015 12.689894159659291 19.142708206332674
P 9.720613184921394 10.525034086750333 7.674947766159299
P 12.954303857256159 17.133533336521083 14.878337709570301
P 13.321570232432466 17.621719861124824 18.141421273611172
P 14.622807415882468 17.775868137535426 16.323566733627693
P 17.43020864383893 14.560087034789253 19.973216228811015
P 12.642972609677004 15.51355548262058 18.045945518662535
P 11.367913026113103 18.488700745237583 17.51274969453478
P 14.804572915402737 14.934139628268781 18.13861308469494
P 11.037090955052385 17.74868853048635 11.528613201366202
