38
Energy = -196.96706174 eV
P 16.842455335578475 8.063309243214814 17.237057760649854
P 18.367740128953905 9.610323653826605 13.897582366426066
P 18.247922689126927 17.39836014066391 15.529163718381307
P 14.964272328656607 9.110257113195646 14.472825265514341
P 13.384678296642308 17.31262779122088 17.231485422543322
P 15.313749148290254 13.553555607940137 13.751958657196454
P 11.355176914080719 17.69479128362078 16.50024296261638
P 9.3417532534394 14.50178184853252 10.66381698364714
P 16.682427578173854 16.371317623571123 13.877390719710892
P 13.630770641890711 15.600448799266186 15.844151375795137
P 12.658385539843598 18.659465961288284 13.976776048691729
P 15.122488965431032 9.253372647179 17.9641550826904
P 17.145483691306527 12.281036060835847 13.771246232616175
P 10.895775827191809 12.987399045077211 15.991207908495719
P 12.289112510434643 11.790208196825906 13.357955772398173
P 10.983866569978789 15.57385280306133 13.427295725264376
P 14.518756341343163 18.779589609508783 12.549258295684282
P 11.394853094450848 14.392921952225626 8.326454403737559
P 13.11094619759885 12.681885550350536 16.60889606332863
P 18.217306549609773 19.30610252310036 14.444691683622128
P 11.11403213048941 15.739917744282767 11.179739472754864
P 16.14241880706548 18.48654875601715 14.133106907296199
P 16.903400748324913 18.987189780179982 16.205781035861225
P 13.999932007915152 12.067003971964244 14.711769796280082
P 10.844434142196388 13.417554826784635 13.849881130925716
P 15.753327089568137 15.02500814846718 15.398681439741013
P 16.65493566327581 10.536842207675477 14.916260387019381
P 9.485855581443726 15.179852816718812 8.531439045181028
P 12.308960025761706 10.5693846514416 16.76695037094337
P 18.01981704163895 7.585806426979167 14.099269614316023
P 16.920242494981593 10.281755206480543 17.162360892072712
P 14.538303530139373 16.61068980872045 12.366570776234482
P 12.91280136543568 19.17837906815224 16.103182986657533
P 11.399082907828392 13.661090603094552 10.441102257250314
P 13.70538537275371 8.924952146800338 16.26051496974618
P 10.956215752166122 10.907630985728105 15.029608000168324
P 16.08878244070529 7.356326765247125 15.220335830986194
P 12.927721470258975 16.510690523537157 13.97165087433484
