38
Energy = -196.10113126 eV
P 6.705547403357034 6.318774821718215 2.0928545564758734
P 9.231373934125475 4.413141507393246 3.9354990816417423
P 9.740872073097515 6.561891517421379 3.5523101600904425
P 5.349960934916906 4.619591137468515 2.7445726581462284
P 7.006901464550246 8.424481940968343 2.8404522371525287
P 3.4430689199094933 8.228562277190083 3.8015520428734426
P 7.122985931987591 5.180632943123954 3.935568550492374
P 9.911489068154271 9.015929547860832 5.097554767816687
P 5.337252358206816 9.3332772754595 4.026048953125128
P 3.7198020182808733 4.831278291511578 4.2785450250284915
P 9.071399467017395 4.288496018507443 6.195252356592353
P 6.4333421844470715 3.1149855543831673 5.986169673640955
P 11.198983734574565 7.152853247913996 5.144627688593057
P 8.123395802821129 7.711699128051375 4.658265976640225
P 3.895731813769824 6.809899512543361 5.366589780652336
P 5.497079894648481 8.340712360276525 6.053144252848252
P 4.1700388189033575 3.1812631064824206 5.747535350503775
P 7.73878391733702 10.94854604072415 6.7616950583356115
P 3.795055312687136 9.575926758440124 6.667188639640782
P 6.974294153334194 5.290027881819813 6.561372681868482
P 2.6045473112691693 7.418421715152252 7.319373031588901
P 9.784456418262955 10.111569593944692 7.057494458046083
P 4.4265131315630395 7.494626688479392 8.53656185776572
P 6.699138779589524 9.420213597349585 7.776601595334169
P 4.2224940277782785 4.5586716687902555 7.4887850470261075
P 10.668670120450814 5.729574279047538 6.844848319039975
P 9.044874227332812 6.849724935752321 7.838610674859215
P 6.701817900419657 2.4418716181510955 8.165117036185379
P 7.147587314551823 4.579894612580538 8.762304781542774
P 9.859908193868609 8.667727519018452 8.79826801287498
P 2.3896746014371115 5.1989042259394616 8.507285599459216
P 7.490559555143804 7.065339376930336 10.724289333324872
P 4.671632953776453 9.710241979857043 8.751138278389652
P 3.702089869254952 6.014164948311251 10.104726668848507
P 7.85048752800956 8.928520489450744 9.693524683592472
P 8.895874242536175 5.654754356724474 9.717212286293988
P 5.532057311871598 4.639547405950723 10.288404994526635
P 4.64523036029246 2.979233172849421 8.983626902677923
