38
Energy = -196.96134482 eV
P 7.768493119848274 8.803486592937368 11.56823997863089
P 15.568491261550582 11.615697763252495 12.526845890818809
P 10.175743764240062 12.424432835050036 10.382092972866573
P 13.460512248104648 9.16971078773716 5.599329875004255
P 14.320797089274853 15.671828182171303 11.083693504104211
P 12.184802319897964 8.923858829669326 15.602031812969974
P 13.958550392670524 9.178552001127777 14.362428108372741
P 10.526115174049117 9.876266740704741 14.213359171884271
P 12.171829004571466 15.188662200403774 11.611690393420478
P 15.490244683763985 13.799957964918555 10.38038328309755
P 14.628503584961162 14.943656912851239 13.201289210391923
P 9.838448425457289 9.514722834928822 8.911354537677651
P 11.17995263962171 9.487474520714466 12.145186035751866
P 10.997609444135337 8.237268301018606 7.525118669920779
P 12.035688051111181 7.125595021568206 14.365122810478777
P 16.39727450057165 13.717068398146717 12.477743385176371
P 13.248490660232779 8.450507724666446 7.635135628293508
P 14.057473704526652 12.212981050252308 11.001461977484352
P 9.029585778108325 15.502755581759786 10.676264170029198
P 7.683457349406792 14.559083359361352 9.143462493479122
P 11.72088984202244 11.648654991919384 7.36118836372368
P 8.094509785399032 14.202487354652433 12.27401574755019
P 9.711592301463991 7.744649175859759 12.168577271364152
P 14.362935156281457 11.427491249033467 14.424380479610216
P 12.935626462019675 8.192275219877274 12.617688556219473
P 12.296913754950577 12.2149283826574 14.111945144766764
P 9.838588815456376 12.938104728363697 12.621955973180617
P 13.715688277040975 10.577894474272753 7.205425203895321
P 11.540734359952525 10.908349913239858 9.449700746443668
P 8.938839656239377 11.484284654338484 13.997621229157758
P 13.08660851891698 13.451306620124827 12.590830931060344
P 9.224645895894978 7.9849979892213545 14.325416583639386
P 6.796380554839316 13.14338284356538 10.728828115186806
P 10.858926141641327 14.501799642308953 9.904861635970908
P 8.247982262065785 12.385981977375208 9.273837875052614
P 7.082291717109159 8.658011839291868 13.735994200008948
P 7.331469323436115 10.619323410058394 12.749408880463488
P 10.186620021088638 10.107609404212873 6.710234502015031
