38
Energy = -187.3148791 eV
P 13.704812241280585 12.634201355294822 17.073154541297882
P 17.27502729192254 15.149982530340829 13.682998985108384
P 13.580420508129452 14.984914036259122 13.415301090509846
P 16.047520551405597 12.883628059477504 11.668028424034079
P 12.034803185057031 14.46796159105942 12.04232281469264
P 18.694524636422123 18.01756758671925 10.881748708929475
P 15.79027363174617 19.59773945677146 13.321144418849451
P 20.986475256080453 12.940604824954297 18.6073933035146
P 6.561571875308257 19.650726509226534 14.733654761854785
P 18.97285215011483 19.76728848119213 11.887066101020178
P 18.234505905151824 14.730092955056085 17.737833556041608
P 14.68660955533734 18.825438788859692 21.239377067298015
P 13.719082942093113 9.08848018810286 17.927860363406488
P 12.990247344261636 13.229098579545065 15.030178654537258
P 16.120210497294185 17.82041526905186 21.957938502414315
P 13.371726920213192 17.111455612316156 13.938159994290116
P 13.723547973908213 11.776454416706338 13.473403175094258
P 20.786593488279426 12.536050987626625 16.566311990791117
P 19.017041573412012 13.6629311093595 16.122342009610573
P 17.85687759969401 13.067570751759233 13.004495045319041
P 18.06765814389628 13.196927385536998 10.752640695965885
P 11.143788664872742 11.372174163985258 19.010608578469842
P 17.93699036972339 19.504309166960425 13.812999682451364
P 15.537298365865887 20.97538632931451 15.000890936955363
P 17.55156031349463 21.438481066130585 14.786565311140315
P 11.525577502871553 12.708725211800282 17.494601257197836
P 12.649443854056166 9.876799378781453 19.48983785035762
P 12.584570718053126 10.245958682295651 14.679180945085717
P 11.126341215755685 12.000497974376154 14.857483741709725
P 15.363280133769193 17.477843088306898 13.498727725071234
P 15.506222944696663 15.006212996323608 12.232288911911763
P 8.451290022313248 18.28749081958519 17.95698548756447
P 14.051212889204718 10.538304767496799 16.325136095483842
P 19.497563183208996 14.276108135782994 19.32122966490381
P 7.524048182590877 18.957594085811138 16.36860894952279
P 11.777328475675715 12.368197140765 12.510331025059196
P 17.501637572688487 16.36822625740894 11.734258886078145
P 18.423462283832034 15.233431489331956 10.16585289635052
