38
Energy = -191.606105 eV
P 12.060400035298512 15.775606135450152 19.890802153650178
P 13.21139652263581 14.71457249184342 14.880150836051788
P 13.331115043941036 15.99572335450497 21.491825632600204
P 11.077111281707053 21.057584825861213 12.076624303287806
P 15.299283016403532 12.544644970401029 10.169224739555588
P 11.030552784644929 19.618751465330785 15.007321897973192
P 12.701209130011968 11.71552329562487 12.346998314582649
P 13.150556084026638 13.130227062703135 18.201541529342073
P 16.274472857440752 12.533856458655588 12.125491324950884
P 14.63808996806425 11.595017137131094 13.370972458702347
P 17.35491820199227 13.745216043460763 14.855192222079493
P 12.714697986363646 18.662159720644585 13.898837077595298
P 17.08537291662848 15.280812429826252 17.749898282811397
P 9.560976361472006 20.13195079735736 13.42902459314831
P 12.225927359728097 14.724778621271442 16.90394981884089
P 14.825021010278617 12.196221531309863 17.049732740021426
P 13.72187677235512 15.283404627237402 18.462282774210287
P 10.92372937352737 21.70056395107777 14.205574964088537
P 13.174327385227876 12.19712125149831 10.410389329719647
P 14.409599072670895 16.3703856592595 23.030666817696016
P 12.829010581669475 19.68443069012459 11.94942633767393
P 18.264123750988283 13.479612519904235 16.860249562553655
P 14.869883178797188 16.317502754073644 14.714984435210646
P 16.891274186993467 15.731716646744616 15.580455743747603
P 16.493974716984862 13.20234480704992 18.146021574377958
P 16.126888478546377 16.771263124301985 12.803611515129406
P 16.317205333960892 14.805263972163413 11.78922854431562
P 18.866933805618853 8.508450502500146 17.047573429975913
P 14.16130333816665 18.20530203167963 15.457217956503884
P 18.791370375575923 10.356770976378696 15.752241162209172
P 11.805987223532718 17.659655157403176 12.111303719826168
P 13.91036277437175 12.665553495043564 15.118376772579147
P 19.107432761004503 7.268150821339587 15.217706783497762
P 15.196676767062497 17.489407036507913 10.964604166580203
P 20.713012386121 9.694701279605443 16.53701398779514
P 13.232644101115621 16.61561712560852 10.71185122589923
P 20.138053595075405 9.078715310361263 14.452975393406227
P 14.85248230310767 15.046944134520409 10.22904043894995
