38
Energy = -193.9473923 eV
P 10.312127232254973 14.653539207351841 13.594254986573567
P 17.138280035282662 19.159698726194225 17.17432529019143
P 13.115424690653754 10.514214177555615 12.640092843534593
P 15.474518393950962 18.584240773403717 14.306620529542714
P 13.206646653575627 13.861250880516648 16.49693861086025
P 14.570079466570377 12.13494621030153 15.377115979659068
P 15.480445616416612 17.703276328664234 8.372025122020752
P 9.045013268340751 12.894464551677686 14.112494473186882
P 14.901664403003215 15.586393484284176 11.07021176709893
P 15.502925386432105 15.694404031727087 9.064076365721592
P 16.15846716312707 9.354624203349267 14.016346396602934
P 17.393506464990676 19.072450017738944 13.608186247679454
P 16.9076781831466 6.4234126644266025 12.983790658931984
P 11.198967746280843 13.374322273680212 16.760991880450497
P 15.652495159574404 4.734192945041745 12.210717560863266
P 13.541212346128958 15.779039583973628 15.43564288991441
P 18.32835224457166 19.405152809541296 15.490385224971126
P 8.2015383911957 14.339133969980313 15.71197385087587
P 7.497761105407656 13.309363859409006 12.630878845020899
P 14.720194333611648 11.051211182315365 17.247547055917877
P 11.969424388612058 11.407709941546125 14.363629523714666
P 14.980307603134507 16.500312478814415 16.958845100171654
P 10.290031862679491 15.175692676924571 15.81899638047347
P 15.764553867914108 15.477244829862787 15.153984828167857
P 12.373027841055226 12.611987443157496 12.531956695184896
P 8.833107433417329 12.950583816325436 10.947837342606658
P 14.599218845745948 17.62949376843937 11.417150176568567
P 14.932607567400197 13.126761471257362 17.898886487399142
P 15.129463855058441 18.71783916163746 16.44411406192516
P 15.110567600476832 11.183640837746678 13.379911257864894
P 14.84350937292547 19.020749917397403 9.87408307532121
P 17.023331039922326 5.495678815074798 10.940611448072426
P 15.570368673436544 8.124071565354402 12.472403976018985
P 13.67190473691229 18.22800262033016 13.304485219958943
P 9.849061961742498 10.84100919717924 13.662648198438497
P 10.405126208718546 11.68252447407127 11.701076357877778
P 8.147575563267663 15.35964234035619 13.71038027336199
P 16.21581444600025 13.446042104270834 16.079090990138056
