39
Energy = -200.49521619 eV
P 13.453346449805734 7.4737513489137575 12.796581293493931
P 11.875029100794595 6.5958506976259415 11.511548828593464
P 12.371427431749778 8.522677191084076 14.460645956013481
P 9.022488215595558 9.259190389390644 14.330439254725091
P 12.805358941278785 6.268766177178185 9.584333690311505
P 13.77948553854805 10.143786805668798 15.036033009888904
P 14.151636498660427 9.257487724780997 11.664518912655309
P 14.282067457278835 11.082007471323207 12.918730916883199
P 9.402740933789886 7.401828231857895 13.336484911230329
P 10.451222834063818 8.351688451488174 11.668354427890304
P 15.709749864393249 8.919874004676524 10.155570246551
P 14.201611376549367 7.781544974454025 8.89512084772206
P 11.07917694995747 10.329189928607708 13.93137591543151
P 12.062694313128112 13.52915876091447 13.108146130135095
P 9.615685263190404 8.461810850261559 8.063361415681074
P 8.815222429034767 8.161334272003806 10.146666066475033
P 13.72504475812348 9.84500584917176 9.58058155114063
P 12.249608451678553 11.465429761704662 12.17533089941266
P 12.01125415648385 11.266633544138285 15.64706028585698
P 7.904009735222387 13.629402292755195 8.217389321187568
P 8.042056004157432 11.427728024436771 8.253052169333403
P 8.089544672456626 13.451816462283121 10.4485366043314
P 7.6724857236319375 10.551407825294918 13.103392618391343
P 7.667602468317763 10.754291271789887 6.19891010710896
P 9.328363895176825 15.107401926078225 11.311611774106662
P 10.056163448023511 13.781096743022879 7.541351917122787
P 11.223600139765423 15.314008309907184 10.20048695997804
P 6.314894811802183 10.567950229067652 9.369819310632254
P 9.561334758254983 11.738649411847046 10.570426571835185
P 10.702637444339382 12.714289039931266 5.727603755575477
P 9.75610804919245 10.643532467884947 5.434192090827357
P 8.035989046370311 10.121920221377982 10.886403503352637
P 9.83193475543993 14.045593424191377 13.245121061363351
P 7.701936573353835 8.632639606912367 6.83344496180283
P 6.086976877438214 8.694646239109987 8.329145679578744
P 11.484218797522413 12.143472774485838 7.822686778230664
P 12.744987785381838 14.350113289596054 11.185776799683781
P 9.445975045120381 11.9040718264562 12.831676779065875
P 10.97993783023463 10.004561003633327 7.173695501706605
