39
Energy = -200.42090337 eV
P 12.356938958810419 10.17586964172961 8.266744886580334
P 15.133239877598074 12.093726815787754 6.859769969550674
P 13.494268813124583 13.106093305630406 6.092907354844787
P 9.71372630907039 11.516404274292038 7.117195259520843
P 10.435812730267443 9.382824175967203 7.218021004055731
P 8.86992460720284 8.210258866697982 8.306323380816707
P 14.596760882479147 12.066673820227866 8.961272326769754
P 12.235319141914031 13.86689338893144 7.7710825575215035
P 11.25320522011991 12.060511435103715 8.642697060134816
P 12.561847972609202 9.456963462022292 10.387357937099656
P 7.8240078432618105 11.711982804741888 8.369610045788999
P 7.152827991814029 9.617000261543255 8.685358570155422
P 13.890962921937993 14.112130193114517 9.254977903799906
P 16.24299766449661 12.151193058130987 10.43341418379717
P 9.612671048615026 7.487171352386645 10.278268073111525
P 6.670840358068355 15.796049914251855 11.377603519199928
P 5.614662076356756 14.464581493192275 10.121245539340222
P 12.400105803841463 11.354533383953973 11.621375988832133
P 9.128680338461526 10.771307139026344 11.529159973610042
P 15.874902061200704 10.000142151514032 11.438856505616688
P 7.868331160771758 7.4484107764514915 11.491284951311625
P 8.542877069586835 12.496588537632109 10.329625898087793
P 13.010740904192048 13.562113641934467 11.216018734326413
P 7.45097792556585 9.458154451627577 10.89597307070393
P 7.714499950473635 15.107697112312994 13.057244074824549
P 6.4414429889489115 12.724483512717466 11.112197134065843
P 14.592038986226596 8.633485688824331 10.46838145928341
P 14.348739564176379 11.102778312422279 12.574390961091765
P 15.089796648383277 13.219275171701225 12.058310025531501
P 11.950206733067686 8.381038075998301 13.805754561333957
P 5.88958577336749 10.624291397293035 12.012531528438432
P 6.691669504809895 13.186575155625432 13.1995560022947
P 7.6313968822319485 11.13128730594822 13.31891454666784
P 14.055246141029036 8.086225839555146 14.353990048505716
P 11.751486183054016 10.22827397515245 14.936015480785313
P 13.911199081917893 10.22973666216808 14.655351871921916
P 14.02680656687878 8.144179338083122 16.768681857751123
P 12.481472978923767 9.645833809083264 17.161402537356064
P 14.578239180284651 10.277717142363876 16.941590060711874
