39
Energy = -201.59040059 eV
P 7.837576947314832 11.404087066767353 5.7790904497886295
P 9.044711629958273 13.109000995231437 6.615510212312461
P 12.625820861073278 9.874946034102082 6.032139907820095
P 9.85788617856529 10.272441359094987 5.7246431570301635
P 6.901358521116851 11.069824153051481 7.856934613154317
P 10.217287812071294 11.381955515139868 7.576450935380733
P 7.212673247948263 13.290458611010045 7.879990408769779
P 9.216205749467925 8.222928495782499 6.32397076527588
P 12.568931148139773 11.189089129789071 7.759676845333849
P 12.648400054859883 7.822492504773004 6.734259389169093
P 10.044986771437058 14.382182240307486 9.95576699468398
P 10.840941986904376 6.849707903912167 6.003107297109236
P 7.9212492052569825 13.751437632026992 9.94603554483083
P 8.711110229149027 10.579086508805764 9.076725264774199
P 12.70680300423361 7.819744360398027 8.95053788375217
P 10.625402344592125 7.944912809063042 9.737617279138538
P 8.76493357110851 8.422966245092427 8.552558168548078
P 10.996219270851618 12.673034609737572 11.063603762311423
P 13.116923800078945 9.916846032501766 9.46573665881682
P 10.986982843662329 9.906921653845725 10.817884805632303
P 10.087286784308734 6.092161712854839 10.792308642053532
P 6.312818942501507 10.646715513992856 13.016205846685068
P 10.471224467763564 12.906925130192977 13.197934801238903
P 7.0094414452233185 9.230139602092116 11.603316661439774
P 12.244021626158126 9.83228105816889 12.732909398679805
P 16.235198034478508 10.094988270663396 14.29218083960407
P 13.673491588607408 11.497012797343285 12.391077002088602
P 7.4982622954949445 15.863004024690621 10.366097994547511
P 7.607504658247517 11.131799685180571 14.547695009385352
P 9.398705347048415 16.07109807995206 11.197187159553211
P 9.077484844674684 9.006198257876171 12.247379491473632
P 9.17523209498628 6.811038565395991 12.496453109411645
P 14.696615408072788 11.738049124482037 14.356400859546708
P 11.041247040024142 10.975027245690168 14.181571086753017
P 12.506344762505027 13.435467709166005 12.478868914353917
P 14.860020112017747 8.578474712240961 15.2081570046232
P 9.23852534117699 9.653309688859439 14.348635386385757
P 15.986429393630374 9.94043270302663 16.51442651531536
P 13.840122396569296 10.418194018978356 15.985335694507755
