39
Energy = -202.72921423 eV
P 9.486980013459817 10.012485478506761 6.78480706697744
P 11.639082450480824 9.710506562760258 7.1022721688837995
P 13.363339281127592 12.827980894868814 6.4875020217905845
P 12.025418631015304 14.136121617369618 7.537595101995889
P 11.362447193164801 7.533345800604486 7.624677944850706
P 9.022985971913903 11.922911123430042 7.632789039116255
P 14.06211949348387 11.52411771488451 8.101208803277373
P 8.27441261174967 8.804439299918657 8.695050384207127
P 10.904040031371022 12.54163469792475 8.63217781286253
P 13.189170976553497 7.223874342384014 8.838508472446303
P 13.508987338496208 14.813189294868154 9.055108516834206
P 9.774517019440959 7.231818325595629 9.15653210311085
P 12.179447448960733 10.748988402930085 9.01692199623707
P 14.81373200357721 13.051776769537035 9.540864218766467
P 8.050776782619923 10.697548881521378 9.788345328504231
P 6.724289911842663 7.8234199313613475 10.204256140006505
P 6.2576718209120665 9.884872594027268 10.974613528832585
P 9.65125399395841 13.368813951973415 10.298281014894831
P 12.719789821042157 15.61449285006818 10.97873574096488
P 14.300343582447653 14.663443887290056 12.242009172881684
P 12.63213042470262 11.522922872535908 12.222186754116013
P 14.589741329175128 12.511049046237394 11.702206303393424
P 10.706129213626433 14.740863611331639 11.723551196150478
P 7.490814544756007 7.154447609420087 12.245352146842027
P 10.691747988043067 8.150305613282237 10.937672577207152
P 9.616617945891377 11.35200562405655 11.303171057469754
P 6.751313854227474 9.084876648992088 13.015885493215142
P 10.33023825095205 9.47619363475175 13.657493221962833
P 12.715596540393856 7.3384374984598955 10.839387380649397
P 9.69265962334592 6.68355134175962 12.321286112657058
P 13.14873923213119 14.463309206202446 14.148318532640141
P 11.612450646120738 13.307104427436663 13.08530997310402
P 13.26554260319268 11.011694545598557 14.28472487959088
P 8.274886831857549 10.166062055611686 14.245045886470724
P 14.154345599732663 12.793533286009543 15.15799208655994
P 8.39803550767603 12.057942367350117 13.109148546359792
P 10.165405640818994 7.419444819523577 14.342921483381147
P 10.071041797653855 12.656202950363154 14.527103976710007
P 11.189465691605301 10.78198006277332 15.246695457599458
