39
Energy = -197.01452312 eV
P 7.884957046174491 15.860042255681629 16.82199403402281
P 9.32490973691902 17.780120922181204 18.461153523060357
P 13.91642829857753 14.000563668988022 14.755442521542836
P 20.734927558967573 10.807709128336535 11.54209270615237
P 14.12870651226562 13.01550012478369 12.803615880126815
P 20.958044892639364 12.65903536132504 12.750952983705927
P 19.82868085475078 11.82717874030269 9.807115296570448
P 9.50573957658656 15.550215405698035 18.27683824947845
P 17.06655431140421 19.429133989348724 17.38193815321615
P 11.964798260653462 11.225392464607237 14.760965262188668
P 17.10862641082624 18.404269193746504 15.383887894883237
P 17.88459970382564 9.359604502874852 10.64167495768088
P 12.38735305995908 17.25873302650721 14.312946837807443
P 15.308833714412502 19.43422807936403 14.474637942829133
P 19.161074215675686 13.900658964383597 12.225395715750091
P 18.216876291241505 18.015457606938558 20.265625018628576
P 13.97190929156096 10.794502388467427 15.64686429645028
P 14.607185423342965 17.325484010077197 14.308153667015187
P 16.691310826112417 16.417957109332455 20.57140665706799
P 15.078634374840936 18.43271438920847 17.672764344423687
P 11.07366330517085 9.995369131947246 16.412125093653366
P 14.905568979845004 17.38724259590035 19.608648291771214
P 18.665057126695363 18.19999509561487 18.14449349627042
P 18.02616368131582 12.65543671316992 10.77718268744126
P 12.932602235213391 9.669809591877335 17.28740707639672
P 19.011787953548417 9.711536845353399 12.471622778912458
P 16.152778035103037 18.48805521917124 21.082566242556354
P 12.244008673804462 15.090856136729984 13.79114668459482
P 20.848129828326567 13.702895487874159 10.777736817790286
P 15.952053075149424 20.077267294668534 12.45737199189898
P 11.688379160082224 17.11039486400544 16.436023247665403
P 10.39307075929692 15.481691447976155 16.236449452684365
P 7.384083365346777 17.78655106237737 17.669311068874887
P 15.692335429154504 16.827064270725977 16.194737993663406
P 13.208683723416884 14.65754018983933 11.880597649720418
P 16.487924025500188 18.23314445374798 11.67280012779195
P 12.878809431562264 12.63727184364924 16.223244221161362
P 16.899886929339466 16.55017173353549 10.852082372749146
P 17.207400624775737 10.943760499980533 11.973217252267048
