39
Energy = -197.68744875 eV
P 8.72752134314119 14.141394358348892 17.985936735092032
P 15.529442567450147 10.946877498444502 12.915705846074971
P 15.488724620448751 10.923267001504792 19.52114083984641
P 15.064760148427949 12.999244587401975 13.572481860905985
P 14.823233060879609 13.330659274474085 10.528004457493704
P 16.76635205975139 18.92141140294712 13.805325727280431
P 9.629940904994795 18.14685493853894 12.282488489743104
P 17.069941425215465 13.799752926206207 14.04079729604909
P 11.408696341412565 17.889948817029932 13.532228558191816
P 17.41855087353275 11.688482966868605 18.709027735283406
P 18.054534714176828 12.801728774776587 12.234646277433262
P 14.112943409523377 12.782096208879043 15.582169499908703
P 10.590245354972927 13.945466812459236 16.930386163378692
P 15.19590939923839 10.345363275442702 16.15437299833519
P 15.71181404300988 13.095870691242219 18.979946784279463
P 9.984323073767342 17.144522632352334 15.10134166882105
P 15.098159894993907 17.46851178955388 13.71932963611024
P 15.390327814049911 12.110811918674049 6.759327288041273
P 10.773657015258845 11.822264384147001 16.69837399685104
P 18.638185084564874 20.87950486368819 15.821767914539052
P 15.189046647129175 12.699320383035076 8.577548416115622
P 17.942484473094613 18.75070462783421 15.707104188714892
P 8.580001660529433 16.77414406889267 13.453738064607897
P 11.15746252723277 15.218810238851383 15.184322810293745
P 14.350498743292615 9.865691985837213 17.97729465841698
P 8.88939553720674 12.04253448744538 17.68561470888617
P 15.700408424049977 20.769130916049576 14.238209386187247
P 14.057225513119818 14.968623606240406 16.052802164850018
P 16.377633562478007 11.846476195973903 11.044532585698022
P 20.30835364116049 20.54763778721258 14.362494313922506
P 12.145448332859573 19.91239340136618 13.94509506351144
P 14.163186735641867 19.335871012876318 13.961479007500754
P 17.245665073225307 10.812060336745846 16.625280667539574
P 12.19923823679577 15.487100638565039 17.150627856961773
P 20.659986379173024 20.096075876646896 16.47844757696551
P 15.701070202184631 13.735372653177949 16.857321770709614
P 17.800359445976763 10.807809748730412 13.31259753313307
P 20.11649451335272 18.437380433555894 15.08910503300868
P 18.14790767588794 12.09882132130152 15.060357476500226
