40
Energy = -208.07414716 eV
P 12.139884757447954 10.448370110180383 6.104386659423277
P 10.832078687163921 9.1311432085742 7.294751995294761
P 9.046823721247016 12.461205454424686 6.685834948972888
P 12.401738824116242 8.794546548861513 8.793969433735603
P 10.857672027028547 12.370588655698658 5.513742470707372
P 9.221625064380536 10.239196754644293 8.445224239220352
P 13.199472629775986 11.813636225089192 7.536957757871696
P 12.415049665452683 10.970673566030099 9.380807912172699
P 10.298839158756708 11.595981588184344 9.804027382004934
P 10.020603840847368 13.426114065057 8.451034840605395
P 11.826675227306207 13.59919786969549 7.174078605498784
P 11.16430638517933 7.72279006408886 10.358471076936711
P 9.083895998392064 8.429914002963292 9.830676291639795
P 14.429040715161717 15.06463315179347 10.49552713852173
P 8.342879143586527 11.728101476543406 11.466788447778342
P 16.67018780155822 12.661377717645331 11.664183228986289
P 8.171714566635407 9.51164333492264 11.58555335437671
P 12.312329326514867 14.465277772845148 10.317189411249947
P 15.16462689864065 13.00425102240285 10.078145386342316
P 12.150404879441783 12.935342604958649 11.9158783437766
P 13.739520996217625 11.57914852257248 11.11557243044713
P 11.083197175258368 16.2190032174578 10.966626518516225
P 11.757683279818053 9.05532232019854 12.054247014514043
P 9.774106494226343 9.129065108459452 13.032057565698215
P 8.713001980197562 12.363463591224324 13.402157672538012
P 14.654372516342809 15.322704527564763 12.687524439025333
P 9.911468761883352 15.62114087835671 12.777016934285255
P 13.217732899381927 13.877000808758154 13.61257445877418
P 10.11609510898672 10.897045422316085 14.307212558389685
P 13.662314036593367 9.446495696160595 14.6184193167152
P 11.536175947471708 17.13812120395734 12.958336249765638
P 16.465531943342775 14.095057249216518 13.110256325505594
P 12.626396086714193 7.744927978613643 13.676948537121014
P 12.79372588683319 9.865764310423618 16.42764206105179
P 9.09913194674915 7.35713185519785 14.177616076433845
P 7.866606926394815 8.489836316492232 15.515957795160638
P 11.578294277478886 15.301177187185491 14.227390759344718
P 11.09634333532089 7.0754832404517485 15.193872967561001
P 9.248129280552122 10.04001951839718 16.177156312517713
P 10.971395706296793 8.669179757086534 16.72525898621262
