40
Energy = -207.26529205 eV
P 5.039727738674696 8.502238771018707 8.626548618348291
P 5.579513074709126 9.855505787646921 7.165666375343061
P 6.662746282010126 11.852517216714254 11.83000444663057
P 6.897654838661053 8.547890810292744 13.047953236815141
P 8.438377154300358 7.661834465431727 14.286912688354583
P 7.721719051165307 13.724471085740932 12.023155103269522
P 9.495508866480277 13.406062960560265 13.417706856651042
P 9.394128847405826 11.24059222284168 14.048476028427899
P 10.317228854502746 15.324401708724583 10.907896837817411
P 8.697440166538302 14.021339622523147 10.027156887517332
P 11.78179308695453 15.246595370216683 9.241751019330714
P 12.877816613192463 6.645725274423431 11.508103215996995
P 10.035225271155463 7.30728994504338 12.84364622862024
P 12.083273764241127 6.228072971440188 9.507094672353846
P 14.203188377821068 9.133259150551353 9.422112878174213
P 12.910573697146159 7.837844448966226 8.120210246016832
P 11.29084054324107 10.491938647837475 13.154323305106956
P 14.25089561568976 8.168155824256278 11.40489948343199
P 8.980594675968266 6.065008030572918 11.367453037220018
P 6.892032281807601 7.017201208359385 11.373928653468665
P 6.948383496372215 7.6294664921530915 9.230837982251542
P 9.889242397649504 6.694920267574704 9.41363401384826
P 10.276573062787614 7.823405910019747 6.213078218208399
P 8.317942109439448 8.322250004046579 5.855297440331315
P 11.228643741709101 9.226933732478141 7.647718983699888
P 7.829126443012529 10.072323003182822 7.105509819398158
P 11.287039234509644 13.216785416309317 8.330938979012524
P 13.270412891886663 12.18467514739929 8.312395397774008
P 14.77450851934849 13.703335691701598 9.121527296926145
P 15.878314376132934 12.529061584820546 10.560120601825206
P 10.958536034512514 13.348551389213833 11.74801093560774
P 13.112798159407063 13.504089563589178 12.220719249414907
P 14.25083285088139 11.638761074400461 11.63905613688848
P 13.589775754277662 14.95430395931623 10.50378637782507
P 12.882018138276655 10.855291172909787 10.036345530605432
P 10.079085330555696 8.895095437909049 9.53975076123898
P 10.145837617485364 12.249422867047157 9.981500452228756
P 10.063948239789452 9.30399140943801 11.89960252185008
P 8.002924278468356 9.571973798626477 9.239340390066046
P 8.0488412676119 10.382479565763534 12.460891904203766
