40
Energy = -203.67054788 eV
P 9.827717985026618 6.9865851631506155 2.970242870693584
P 7.865133139246851 6.088874070266496 3.3856572651191317
P 8.269946819976434 8.150135837196727 4.0325421696373125
P 10.72080664317769 5.6508342166170324 4.552471240837797
P 12.147306528831852 12.676722131174607 6.218168799450848
P 8.702410048701731 10.642337607222995 6.985110638022758
P 8.79486146226219 5.529023095065991 5.709884695931529
P 12.100637419675255 6.712108700949994 5.84371756533203
P 6.313153153921131 7.520063541249053 6.5741925410928665
P 8.496692651082716 7.724200140665836 6.303406441614116
P 6.292279715439788 8.39160527356618 8.614224654674265
P 6.8869660222278775 10.429242300475163 7.990897570190606
P 10.783604768215069 12.843020246305807 7.803628951849535
P 8.56104941400123 12.839308863149807 7.375998959404313
P 10.140639854218875 4.168577632656057 6.9987842551473936
P 12.735885653313476 11.168113283616263 9.610878934485301
P 4.259124105248651 9.413973283496453 8.620605937875368
P 6.858240238351693 5.2965987123325515 7.4129331776301735
P 11.708034515040188 10.930317900332879 7.446718806575893
P 7.242313300473879 3.3029383372978343 8.440144298018664
P 6.2610913356953 5.087176744377315 9.535257967129464
P 3.4184792231433434 8.342566324245254 10.42067664330288
P 6.922538669887357 11.278548286074187 10.136790138736275
P 11.604880003366397 13.03500895622029 10.003013829605692
P 8.245611648654103 6.043193531167869 9.054159453550398
P 9.280474813073075 4.057145518213421 9.057485246818446
P 9.553418710625003 13.389461023163788 10.879305500742378
P 11.651651308793578 5.644505242398405 7.569695473942527
P 9.82152633902131 9.167172959433085 10.219977928660013
P 7.769670238603297 13.229021916918885 9.478550422937387
P 4.708214385167449 11.032286589120888 10.153820841219334
P 4.266272993661444 9.636099885203492 11.798886324285158
P 7.807158389919053 7.155515243201576 12.209089635952743
P 12.05962065487078 9.171852635758746 10.292764816938753
P 10.894706890260483 9.831781799949933 12.053730612558404
P 7.290068238384393 11.278568796820325 12.330435083239745
P 9.69168252132334 7.059510437617318 11.070142602222369
P 8.759954835746173 7.880911884156371 13.910722500551932
P 10.757879664895125 7.783667113334324 12.986151840660483
P 9.174262228712216 12.077391308072766 12.59509989559751
