40
Energy = -206.28554496 eV
P 11.612627852118367 13.173135207614841 7.394177484568616
P 8.194541070485347 7.766515582972453 8.032930104162237
P 12.117365031383617 11.041977900196184 7.871233890138938
P 14.267828423592448 11.473919710273023 7.870636356125029
P 9.679222799023174 7.046162342004415 9.456147549330348
P 12.578156103404826 14.803221975773345 8.632589536426837
P 7.5902621206130565 9.155885934302828 9.509453442645551
P 9.592842260272008 13.50911114243124 8.329342709726722
P 14.81709680745457 9.31688914771701 7.812166487523233
P 6.393470125051974 10.875451515606684 9.08471225954245
P 14.822190118469825 12.434044655979172 9.876250457244165
P 10.450760867682924 15.418352442727313 9.224825895659142
P 12.19350930779357 9.800295705361547 9.856274140860384
P 10.133718897190121 8.974561015676484 10.528932386071332
P 10.102202412661907 12.023349548106058 9.871737953892522
P 13.246469570366656 13.846328564955195 10.521748754057803
P 8.682274151964265 6.677910146564677 11.56037678755915
P 6.880712951350396 7.994026052194645 11.261762563221009
P 16.645455081488233 9.406814511489106 9.153272467487817
P 8.630214951209688 12.225402261932167 11.446945240096339
P 10.49627413487125 15.03889797321785 11.424165239028232
P 15.370181133568138 9.28705290779414 10.945638364839212
P 6.267634570781946 9.749404457306388 12.523237163612299
P 11.393025987998103 12.996029718010135 11.42899084241647
P 6.564424561968457 11.47862103280748 11.15855382598219
P 16.681248368945774 7.262803476760645 9.7990896368969
P 10.636890594838317 7.6199284191206065 12.211128175993617
P 13.763772842413587 8.334325381464637 9.580655827004293
P 14.645178331189063 11.272888295042893 11.790125655080967
P 5.499436538008896 12.903953890041306 12.365171967823795
P 16.610115216046797 7.83820713126792 11.880974689439762
P 8.42421372846755 14.348436469381921 11.944276436521209
P 10.314297251634155 12.45775311780657 14.432298718623546
P 7.6432918858973125 10.437076298191991 14.123759958281257
P 12.544127527936709 10.637292817127445 11.952738944917689
P 9.627945673933187 10.830216483617107 13.169741884838672
P 6.746443398990996 12.55280617181247 14.150222049147391
P 10.6977929560278 8.82777924319356 14.026812932649566
P 12.784248553119166 9.338485148471143 13.612146510400708
P 8.662068256554448 13.828218620454024 14.188287126932368
