40
Energy = -205.64265338 eV
P 12.089437023166006 13.892631360516615 6.604687338278101
P 10.532731939105785 11.667624095730408 8.730640813954839
P 9.532801226063802 7.172181795602551 8.937286776873254
P 11.219808143831324 15.582522260548814 7.603877485046597
P 12.654013069472658 8.1497965537507 8.938212476843212
P 8.786591768340898 13.013158663157883 8.151130417993318
P 12.576984333050898 12.673341832646141 8.318449291900842
P 9.763948352951916 14.746637388616284 9.06666070330268
P 11.112799318157336 7.4781842414821815 10.457974431011811
P 12.348515712587012 16.208468899615564 9.424272270585153
P 8.11013096287653 8.276510670812806 9.98159565898885
P 12.868404647118666 6.080630770039291 8.42137847411785
P 8.596159341410019 16.54760178506097 8.9588644675246
P 13.276230783051144 14.121763553869835 9.819551240058209
P 9.866851330320873 12.068157998572458 10.799651847462727
P 10.392640045461158 17.400944685523 10.116030383348035
P 7.705670316314454 12.357781811511972 10.073865545029568
P 14.47909848103509 7.011909414811509 9.585310347090795
P 11.94407782709262 5.599128731249432 11.511431447937573
P 9.81993539571847 14.438749150853385 11.54040603235621
P 14.083940716315977 6.071271993954316 11.553968100015156
P 10.561659847890967 10.35765243609789 12.014246605759704
P 13.47840440434381 10.581703423246054 13.620384888728168
P 11.455183354020178 5.973743663593365 13.711150151398762
P 7.5707573328356546 14.103499577586787 11.48575141023425
P 7.42254300801022 16.271619082621825 10.89820209659597
P 9.426433779306402 8.470250936179808 11.727280033161122
P 12.502042934030111 13.041744663644158 11.584803877449442
P 9.43421730759199 16.580655293426283 11.994162747968115
P 11.550122905093996 14.521482694987043 12.80530033268922
P 14.821323157762544 7.2256259984562705 13.360630146868111
P 13.072545020404833 7.167669382210448 14.723349365904923
P 14.445864786554818 12.21412588844397 12.417036019013073
P 13.991864941481063 10.196774407646492 11.539734025946142
P 15.366341482088782 9.461180014303427 13.132694657182169
P 9.864464804265134 8.937509599562793 14.952149008994805
P 7.549908998601167 10.386449686792643 13.666005036362963
P 11.47244095832029 8.184779146006802 13.580995948516964
P 8.120159214645259 8.309728020638216 13.704474819166643
P 9.651787920747983 10.973645318067787 14.005240169778915
