40
Energy = -206.33288764 eV
P 10.505825407874667 10.869527897222918 5.037186850145851
P 12.138924686758228 9.608773027982997 6.124287214839557
P 10.575464985332522 11.558965413696885 7.109351375584141
P 12.837684896776713 11.634063083637447 6.8498420281041685
P 8.847334674373965 12.886573426150207 7.443661943203073
P 8.602404447855232 9.818028515043283 5.65114905637111
P 13.98103320023308 11.599307785854563 8.779702913284174
P 12.894430159219644 8.051158003218383 9.315663460533575
P 7.506914553672641 11.396463443830637 6.510923057245846
P 10.362539574987666 9.364870018825922 7.5538121910789755
P 14.509162168186464 9.579271346131593 9.707366405813692
P 8.963292538626176 12.253787784199659 9.628907326007468
P 12.307330161390315 11.933397885268654 10.224494936526222
P 9.658850690701627 7.377319066738441 10.032234426427278
P 12.985768598938387 7.180425645352681 11.352785141671031
P 6.139998817622247 11.898471776128838 10.941458966543497
P 11.087593451287782 5.989437749843511 11.140205780785925
P 12.796363135239945 15.732346584861157 11.055835000554222
P 7.675883200664904 10.480502297040116 9.99948526878471
P 7.6196936870914325 13.617669908866205 10.766905819242194
P 11.487105740573302 13.992313523924757 10.166429194036942
P 10.974163530156305 9.180588158383308 9.6924619931893
P 9.188567328332168 10.220351924949833 11.642539740044093
P 14.257032493830732 10.003533166688054 11.94788473760907
P 8.595688261884803 8.061117924839548 11.917490892454621
P 8.57293400203156 13.333947111359274 12.786654647282905
P 14.373055254484873 15.132196544000204 12.458047656023657
P 9.881553279578418 6.49006152110152 12.964330915861842
P 13.710294101707133 12.236250321715113 11.892552389714051
P 8.240270149843864 11.229552350946388 13.405820490072061
P 12.261521208167428 9.074180463172288 12.322029777940395
P 11.431011356007556 15.763648545473126 12.850378700124885
P 6.117156841261333 11.311049314623977 12.995598762433996
P 10.713917055542009 13.711307005465805 12.216043002926774
P 12.9794320895054 14.702498452073936 14.075385807321075
P 11.394960271934389 9.611758478868206 15.653992980583501
P 12.10982937186546 12.443970779501104 13.415798027708043
P 11.32715330204476 6.717387622737193 14.582108669453893
P 10.091096451527719 8.01122777304069 15.880582915808867
P 12.780770136734644 8.42670362108935 14.392614800509916
