41
Energy = -212.70840118 eV
P 9.497836985065884 12.575476737624774 14.600049390341571
P 11.05476547655826 14.23061628909526 14.696376838573718
P 12.996520316132935 13.172360457448605 15.036955165353364
P 11.763687980943498 15.288080331989958 12.806436755884626
P 10.151392911427434 15.368639822793094 11.259518399890672
P 8.621813291086447 12.040699088070538 12.606161013204552
P 10.566573993298828 10.651339338832209 14.769288077714666
P 12.38712323632579 11.177697500074105 15.949781432078124
P 13.550569183485948 14.169956588983316 11.979723018915335
P 11.768798976910379 10.233847860294775 12.910660281427443
P 13.194475270676659 12.27386172986755 13.048297502684852
P 7.471280465022088 10.365477349661779 10.159995353343144
P 10.890348364577262 6.386814979358919 13.914584215425094
P 11.298591560208854 14.773256162838132 9.409157722386942
P 10.44610523664863 11.510290400164791 11.526298601120777
P 10.88387188900362 8.080099538925232 12.534867483314938
P 13.154408208851148 13.640016539137843 9.874934465497189
P 13.49219108624274 9.702596928363212 14.583375031655104
P 8.300880191955292 14.06241764895876 11.632575880473805
P 14.943543010717965 10.98622056668282 13.455464281156363
P 7.875857768955477 9.47818898133215 6.734025668895152
P 10.192005876494903 8.643072925051346 7.104227456970346
P 12.375271846557101 7.653058261381031 7.72829942575629
P 11.179305779440444 10.56532295212878 6.447455935637509
P 10.011516065451112 12.427406099795157 6.830186262295324
P 7.815411268260544 11.677599084674732 6.810018036802349
P 7.275245739266221 8.669800981667995 8.702352842121272
P 11.320237864460823 6.839224917506439 9.485537855043194
P 13.023873512155674 11.068601609922553 7.619462131423349
P 9.556668514883325 8.284314894588684 9.229077757970758
P 13.819407371183399 9.134076426330708 8.490513397989362
P 6.858131076362887 12.041557274050886 8.83389647789111
P 9.00622329321179 6.029327329886476 13.045550863911567
P 10.201019143257712 12.773472160635206 9.025648658851598
P 9.663803650457112 10.507327859522839 9.777909521023794
P 8.849483723386028 7.808303148023022 11.803636987943216
P 12.132346751917702 11.56301524212253 9.620728639796527
P 12.512510794359759 7.560056683352783 11.159199527289102
P 8.181205994921905 13.72782529531164 9.432126121466288
P 15.263746451891457 10.00384770432818 11.519912619131173
P 13.303995346585864 9.706879777821184 10.697778369948775
