41
Energy = -210.33954232 eV
P 11.791734493017442 9.861851468718715 6.243521739367626
P 12.273956861725276 11.686183485166582 7.428525629877078
P 12.59794139768862 8.092944070301149 7.308250814738581
P 10.189268464926876 13.803878986708634 7.239680955685047
P 14.598471123135186 8.191184154520874 8.089965599178118
P 8.059935414329882 14.171150980391342 7.7315348470613845
P 9.567415075032837 9.32816722118387 6.448756404315904
P 13.409917662516376 11.431891615346018 9.341273524965628
P 11.320520107067969 6.448106779122217 6.834676780588977
P 9.60734559796428 7.464961273759639 7.6989393198202185
P 8.75268732180937 10.598495853492784 8.123361151102934
P 7.097188863218982 12.144830192009698 7.753167423124661
P 10.334692900091248 12.044814235881677 8.605537871121783
P 11.24119929465612 14.985680273202842 8.929801423311613
P 12.998698754009375 13.615961942841627 9.850093526377796
P 9.890744865328534 7.942283872941515 9.877228461607972
P 8.111713287057752 12.958550056754172 9.596078073657829
P 11.68135865468689 10.13135810218779 10.024069489904978
P 12.971754657124476 8.301852194316496 9.481182409974764
P 11.603752974301374 6.594793215395692 10.065195576286335
P 10.0495120448862 15.106000736975414 10.809851337890107
P 7.819516412324115 14.777431763258976 10.909583998503313
P 8.39621654687567 10.27082802259766 12.629847519193884
P 12.033365750090434 6.4940613671288 12.324910809596627
P 13.743996968647146 7.892314366258352 12.202239703596755
P 10.203384266339675 12.992221364034572 11.734397049533888
P 7.785906998816178 9.757264424212003 14.712197626171935
P 10.708900322498625 8.1426468638275 13.09095090877645
P 10.352158680314643 11.11067545923225 13.160954430151502
P 12.056497926536174 9.701439342444933 12.211368843095093
P 12.843050121268762 14.676868397533802 13.295394304405178
P 12.463910653299491 13.018796853946412 11.927418947178296
P 8.438137826315165 13.885721610541358 12.889500501512675
P 7.0983757139951145 12.12894048393002 12.91520074798575
P 12.68649382389137 13.75236729182467 15.13217302047599
P 13.747774198944885 10.576862491037893 13.337753961256386
P 13.90553909320856 8.569678857576124 14.34496948627483
P 6.785986971815132 11.558452386341893 15.006865062468218
P 11.709149307717327 8.437761039190335 15.049339609561397
P 10.920144137864023 10.596591301551042 15.272204289907384
P 12.938065823404262 11.540516961054424 15.15841817913688
