41
Energy = -210.5726425 eV
P 8.550172328478 8.71590462400709 6.02917869937625
P 10.250321094315936 7.465875042780561 6.297673259915697
P 10.881367356424839 12.914494445765811 6.488485481608876
P 12.58040348871071 11.557216850212106 6.93316712668516
P 9.496858991863334 10.955293161045201 6.285923002169299
P 7.188904142286193 8.740292632418258 7.784256845133744
P 13.427735646703969 12.747087138793466 8.662559486968044
P 11.246915584894696 8.080837322081072 8.15100395106116
P 10.989342532929967 10.257753195732557 7.87121986484483
P 10.135389550972398 13.399975158626907 8.592960504492025
P 7.993514495175183 12.220130459258602 7.171928329115594
P 10.431194454261028 11.45469337727656 9.678521857436312
P 12.035168679477033 14.460066725100445 9.166110243220057
P 9.960371414994032 6.85925462242085 9.57767659143767
P 6.638967434025284 10.84566373064147 8.239680494141998
P 14.897686789516618 6.832621169647657 9.742595937668597
P 7.841357693247446 7.675373220320909 9.651412988580645
P 15.904681601253674 8.688293450354971 9.930360841486278
P 7.456751151761022 11.310164415222713 10.242971203094665
P 12.586062995058228 11.580238354529556 10.363878046790992
P 6.92399993505639 14.376068690647738 10.956046150470963
P 10.294860196066502 6.96406244212865 11.687866579838264
P 8.952080781291487 14.668205334860795 10.709527547460558
P 13.789684598333906 6.156070108484803 11.41330792650552
P 10.31053232121149 9.134812871036072 11.734969175154282
P 12.377525523143614 13.65183902007054 11.246057354041533
P 5.708256750513134 11.170848474401186 11.678831831921148
P 8.176142578020345 9.35622039000011 11.052101222675025
P 10.263486733546802 13.090708833202537 11.918557820722802
P 6.305467528981386 13.121945549618962 12.774954119418979
P 15.40974531262737 9.179167990866137 11.914550976461136
P 8.255240318992813 12.248968675541068 13.103781621328817
P 14.227479305271691 7.692211586527719 12.789983959244106
P 10.127099083107892 9.748585321278687 13.890535710873081
P 15.744385857591682 10.766980827529398 13.260465760347593
P 8.009541089314284 10.420893925455722 14.29246886554793
P 6.7211454974154075 9.397220591160144 12.747603155332836
P 9.828559154035094 13.41663264936391 14.111693354119714
P 11.204830719524349 11.713749649149236 13.57094322957817
P 13.634229634302935 8.23976506940592 14.73739578590586
P 14.620845957996634 10.102119205730274 14.925099400518848
