41
Energy = -210.6302182 eV
P 9.75403004072788 12.608605221795367 6.061671667001251
P 12.95891140277209 9.4171674046494 7.465547602796878
P 9.076463804907108 9.171962472922965 6.3260943487076835
P 8.056822819606568 11.079803302651603 6.196741974966311
P 14.24588456838364 11.184595740718313 7.82168360960277
P 7.148023404456587 11.56068699820437 8.178556830030756
P 9.022096725769549 14.469245005016617 6.933486571854378
P 13.638652929054691 7.811614861701497 9.071436830853967
P 8.645887845709474 13.134344967812666 8.616078524579914
P 10.74017368878492 12.626214931991674 8.051425394689415
P 13.513074487123637 11.005228642338382 9.79257182280649
P 14.74652156970899 9.164983094303519 10.459609783369459
P 11.43880311299509 10.317187304702552 8.807621252135267
P 10.138024616752393 7.034503024013177 8.97386263854461
P 8.486036330656283 10.581066722722202 9.666918435732587
P 9.566038708715922 9.009102105664093 8.383220893909817
P 11.252506901621024 15.492779977144897 10.54078265228692
P 11.65970831086519 8.017383418026498 10.159221140630402
P 13.78629884293203 12.809853273444842 11.075824280731482
P 7.70201783719238 13.807398440023968 10.56471502801941
P 7.271685345591442 9.99869597915069 11.435178936586903
P 12.238952582779145 16.17992881379746 12.357304131106035
P 10.466543417327802 10.857618901151213 11.942303214128554
P 13.742575616939725 8.358886162791688 12.296227084892529
P 9.116645767990681 15.267515256983838 11.496066234229676
P 12.327507349243321 6.7100977999345535 11.850722519682117
P 11.595018921102842 13.285042561122578 10.936235775697133
P 9.187496554457866 9.055524176309852 12.118056985920132
P 7.395774404649531 12.19253829159041 12.20375076020946
P 14.696612847949856 7.834213404842932 14.124762246272295
P 13.821005574526636 11.717742384297209 13.034200122961638
P 12.216424768303911 10.044916747861196 13.124229110485613
P 11.73058560437975 14.186899890133397 12.975870190395058
P 9.197009787348088 12.02478833646582 13.409305935361662
P 9.533406275413753 14.234265742586071 13.46946617883988
P 11.341096866110247 7.829183813236801 13.54440936577625
P 12.879016051485278 13.0642527857498 14.431424135339508
P 9.294356927625596 8.170336104753144 14.287562281646641
P 10.06384646019711 9.507921952107715 15.825836588384195
P 12.789642955272456 7.785037831401092 15.236350618634837
P 12.150696640574997 10.02274482188975 15.385544968205114
