41
Energy = -212.23333859 eV
P 9.952585841155509 12.56390188275792 9.577763271021084
P 6.979164845910284 11.64988173354497 10.949644703341354
P 11.743001225524607 13.895796748487408 13.220773559617069
P 8.728163189872493 11.833576432160132 12.596085076239154
P 10.307734313138912 12.561025943522306 14.23468402515403
P 8.274855700682565 13.75043305083855 8.671683714913762
P 7.194667817224462 9.544896794814576 11.308589263248658
P 6.9531840327153 8.790131049378829 7.906675211305004
P 9.48736920680412 9.732950644506992 12.547031465006976
P 11.024357796529296 12.339717142619316 7.563882423781447
P 7.276833377692112 11.352046152136754 14.265017309468655
P 6.2593569497710275 9.60473775382214 13.327673068302632
P 13.644296388127703 12.799407865659392 13.333567581338396
P 6.1156872795602615 10.694942993966734 6.961748625094188
P 8.087304599125115 11.565425841003783 9.000117545491285
P 12.694403576982854 13.329581763296687 11.312178383985184
P 12.32586070301184 11.144131084050164 10.873356416695252
P 4.879725230254651 9.40811683074426 5.529874834874645
P 8.226577754954702 9.311284849150079 14.390706243676151
P 9.522580567306425 13.823443752127494 6.703093700498601
P 5.298128655386274 7.622046568577374 6.832390016268094
P 7.761285825988071 10.836042853618153 5.436561630424772
P 12.20634921444489 9.043602941270027 8.03986274953422
P 9.734404996100057 11.824869991479835 5.853874385932025
P 7.550283522964671 4.428163329305639 10.701808597538472
P 13.017762175369453 10.644227559084698 12.977743252494948
P 14.26316988947098 11.191222381185511 9.83884564673958
P 8.305305563413821 6.1353071094058595 7.8757462827396605
P 11.119338189261807 10.549360140653246 14.124633993816262
P 9.600533033970786 5.2911021360702035 10.944771176464107
P 8.096624531711745 8.709753099576687 5.9650914074662875
P 6.32290432487104 7.8278586456844215 4.863147788042624
P 10.064146963448664 8.08189255608222 5.690872629974768
P 9.875001969849055 5.918387353395496 6.251743740301353
P 7.777846700062685 4.08172761202697 8.513100044832793
P 14.374834239459513 9.358266485508027 8.628790236011632
P 13.028678408517925 6.997207028437123 7.662838476399603
P 9.308262405889892 3.3219065105279837 9.93024916290251
P 13.063041519920407 7.904874829105248 9.706495416231913
P 11.263475921110475 5.666291063717544 8.021330953633338
P 9.83959224928628 6.790956786828031 9.346961609056475
