42
Energy = -216.50117706 eV
P 10.880004156777517 11.622564796185621 6.287006924994817
P 11.883456750186566 13.67981626131792 6.5276994226571
P 11.649064478059502 9.95424934698154 7.660638474842246
P 14.02928117372214 13.240697704415528 7.071596560714908
P 11.29847282056443 13.791345071743548 8.633560823312331
P 9.206271291432161 11.758219326482871 7.859693600972534
P 13.885818029830991 9.937312611991468 8.274833270963878
P 9.115251452993762 14.031392359301933 8.348279606802073
P 12.44800669094194 15.58426560592468 9.303726184829857
P 13.611952045053531 12.081845753224677 8.92279262957039
P 14.49983701422093 14.919978545031153 8.551594219965581
P 10.83488976088039 11.163826211501554 9.340488564565694
P 13.242958842799009 9.785276531947346 10.385347762886914
P 9.2609533927866 14.876724720562414 10.52734964153452
P 10.88574436968581 13.52160570316357 11.278397751519924
P 9.50016976035972 7.472017740248014 10.190077364244056
P 8.001621869216876 7.277560229915827 11.83756588793022
P 15.27861242553293 13.222798537836468 9.853220040983812
P 9.961133773591461 9.579424163789488 10.690040055225676
P 11.22487060644374 6.384021551953887 11.17678497985072
P 7.990187890835788 10.158397850174197 13.56629230973012
P 12.524547275640384 15.063043006525868 11.531457689105853
P 7.998967694151923 10.495114743708758 11.305355305969952
P 15.00742343869745 10.208449320725636 11.582458333047347
P 12.958452741874916 7.832544138829356 11.476069900393183
P 11.257747420633857 5.907807122213076 13.511726560945718
P 14.396495516667548 13.827283008882064 11.822693439904693
P 11.428428645661729 8.984481297423086 12.634319567972522
P 6.6202091015444235 8.821908426127063 11.213963285011538
P 11.789810563965359 11.180755320883023 13.07569696139536
P 12.092191115234364 7.668755351297467 14.53556836328115
P 9.644395750859216 13.56219390032245 13.149508159715564
P 7.9362381549816 14.398465984580719 12.20977085124714
P 9.292525087640525 8.407379302065513 13.326541381968793
P 13.970662954234223 11.777888416335479 12.662330786897446
P 8.983032543662413 11.979166630386205 14.556147538333656
P 9.99298826619127 7.078619148526294 14.942623806806862
P 13.037544927030211 14.405012551663708 14.615822492859191
P 10.926620070782036 14.23707596480519 15.032409050353628
P 14.020326191801018 12.465571487583524 14.869142710998414
P 12.352659895214117 11.001082262172135 15.224282171776576
P 10.676549946071725 12.250437889705804 16.031501462373914
