42
Energy = -217.45758916 eV
P 13.476884869004902 7.385569119286524 15.191393069915978
P 11.401573476410002 7.708135568455949 16.123440838100546
P 16.76877994018181 9.640013918708249 13.913783193754279
P 15.081348570431173 10.720056581817797 14.77422576900454
P 11.789536272654036 9.910798802872657 16.177276430216523
P 10.449360339963219 7.234750287502426 14.089010918145426
P 12.501874552013737 6.620205145580606 13.2588915329336
P 13.239180956802407 9.492531553918882 14.533264316376803
P 10.139762089408535 10.739249663569867 14.891765148703822
P 9.87638871649222 9.197746874633436 13.242549322935382
P 16.663649139240015 9.293948158584078 11.783997143248643
P 14.292484850202847 11.677565876491576 12.844206008614389
P 11.512252949515625 12.22498386350395 13.980915113656284
P 15.766072842332864 7.7470458081349065 10.177114176778955
P 15.742103626868172 11.196611316678752 11.241874076851175
P 13.215530676246516 8.383112885784639 12.08952925630272
P 14.317568097774076 13.94753312844265 12.600883592424958
P 11.343285066310367 9.4752313396692 11.595633863244785
P 10.430402242000586 13.946917840444444 13.07056597624278
P 14.747373515542812 14.240800245802383 10.348198540302757
P 13.898650511091981 10.71296922783188 10.126697589049066
P 6.197025799305305 13.988274870173786 7.815596116061258
P 5.239599748590126 13.448053063227045 9.793841120816174
P 8.264600003631422 14.736466441442635 8.3385565822403
P 8.431882748091542 14.924463903465371 10.585547259532593
P 6.6367260086840805 13.9011135720594 11.442143328737014
P 5.5060745203675765 11.216525215316441 9.507286758980472
P 5.850924834185969 11.778014016182558 7.359116745976797
P 9.707607909831943 13.123820513879691 8.014157927427748
P 7.811781891163902 12.002724871863805 11.896758876093724
P 7.578189437504653 10.661585491504473 10.14217663449116
P 9.25231742939413 13.343260046474992 5.863257990914569
P 12.490516843688146 14.33923366361731 9.8151703123228
P 9.650606856820778 13.07988326871811 11.141737947468119
P 8.160161645476595 11.724456149612065 5.217807612389714
P 13.792648415144031 12.718143372868889 9.066905171081782
P 7.6098234255867965 10.504595789847624 6.996124036204681
P 12.325336764527602 14.755648993454708 12.043338467882267
P 9.094933164435702 11.041761238258436 8.522228805687607
P 12.195869751561325 11.467904175722639 11.94885963405988
P 14.493350630392506 8.923328349860016 8.83263433861654
P 13.55450863389977 7.323515547506876 10.10008821898249
