42
Energy = -216.93499896 eV
P 7.679343316731806 6.93530265172549 4.229480342828992
P 12.133035372939116 9.083755671862738 6.495610690200438
P 11.165761785451753 7.468645293215667 5.093137151995353
P 9.3593178057972 11.618325136391514 5.288640080545604
P 7.22959863513651 9.842848056091 4.289183618056327
P 7.1331956130373735 11.888168784345082 5.432128361364374
P 5.974250143294515 8.060624869767022 4.950965385615802
P 9.069336704858292 6.9231375749027135 5.934351636997233
P 9.09779494681619 9.368517648456539 5.2839397358242834
P 11.795953709063097 5.390434200588798 6.082370608650141
P 5.080575711922321 11.389471502553993 8.019572117549629
P 9.693927884267216 4.725193664466961 5.735006126740401
P 7.4346328920202005 5.740248595429442 7.519685055861312
P 10.533406967828643 9.736004898949675 7.976525446763383
P 10.268815137826943 11.91242848920576 7.337952436060872
P 6.090845624320384 8.118300346924004 7.232976036032701
P 5.226872111029876 5.988763995212019 7.484525185111164
P 7.161798292873651 10.93639623441684 7.428334875880935
P 8.348638809489225 12.569710020991602 8.357488582404784
P 11.219528475478079 6.484487132658953 7.871319061081172
P 8.068177926215855 6.2847172370297395 9.55781672979261
P 8.633326896774525 3.8199617492938356 7.513438173574683
P 6.4523465136404266 5.399003221612843 10.801671229687296
P 12.931055654608041 8.179537391163572 10.050095729977011
P 5.1917115688565305 8.072105907448014 10.067129121734714
P 13.125477413896203 7.565318697132402 7.879915780406613
P 4.583524266436802 5.957856569230682 9.689347350453131
P 4.795688478027713 11.000072134224643 10.225733953840276
P 9.517865584491197 8.743088975736582 10.573480211183329
P 4.209387782094004 9.430166420190616 7.3056814052538135
P 11.370301268513565 5.289114134585102 9.694841941475492
P 9.302080582435128 4.412741595233615 9.629202334170351
P 8.549138451575494 11.334871330887914 10.19103033468654
P 3.480644641031331 9.323361986472678 9.474950444300342
P 10.374127815516847 12.091574803735924 10.81481219564579
P 6.672952501782144 6.90362930514194 12.549324036091411
P 12.12880512734891 10.225370936850409 9.604678612967325
P 4.931017621567804 8.335432407282948 12.241884954184563
P 6.3193393063907095 10.133518759969217 11.847136788475769
P 7.994081341591914 8.68501166367373 12.23800850410673
P 11.196645560882347 7.104140186912818 11.037358988985547
P 11.054502794701913 10.107468856597931 11.548097682004391
