42
Energy = -215.00838468 eV
P 14.937324256899933 12.973389202895127 15.414006522117829
P 11.941777934300772 10.688019686452146 16.392913814459426
P 20.005870949400666 18.711975672023804 9.40937598425742
P 17.274565596194204 14.326937994349194 8.525483070298879
P 12.031211096594467 12.533760667742325 9.83217610643668
P 15.75608846346896 9.530230477620506 7.918957698110102
P 10.659919332589658 13.678930316067612 8.72792908784393
P 9.468516355633152 14.858995076492812 10.030736943027259
P 12.116146506626276 13.706980518955515 19.64341551509742
P 18.039184738711814 19.44979365603584 9.756101907966405
P 12.671106598267983 15.894836051866863 19.424120641097662
P 12.760976671004164 14.447991340913939 17.679573246537558
P 10.572597810706446 18.82038041042056 19.28465305739941
P 10.918865686450689 11.652422447067833 14.661529517747745
P 10.5313272644411 8.920841341448295 16.14537119159614
P 17.524413933682897 13.81877562408202 19.698319172805952
P 9.126762444626811 15.657000143575123 18.16520234914052
P 16.197256142442 12.80464536170296 13.63096193903058
P 14.752540746941758 12.461485525656416 8.123561429535084
P 17.646545483395712 14.859149669474812 17.733211218639244
P 12.68175270703709 12.271512438742308 13.405069083099537
P 17.153938469486395 10.572209381861928 9.2633931057666
P 13.226762481940623 14.162610871394865 14.526188843924738
P 15.398029768565342 14.310473820726042 20.213837594722584
P 10.674591331876961 16.73656056859378 19.085587065537784
P 10.767522781905512 9.439801992792049 13.986595805531236
P 17.869321842104696 16.36741636383577 9.002630489809636
P 11.519664131484536 13.162623524252075 11.763485982655167
P 14.121895562636958 13.117220641918397 18.823056737433284
P 9.993148680646666 14.567794847026835 12.042696500102776
P 16.298771053973425 14.674451461364503 15.978652774346225
P 16.778502227732286 15.902821701186102 19.488680126264708
P 19.93788745798063 16.683558739033924 8.887390159889646
P 17.7425902344953 13.843373219053428 14.590097517533678
P 8.649553872892447 19.102224930231557 18.50649018596306
P 15.30940741718869 14.330600482114347 9.141947866298008
P 16.58954050782787 17.96081908859475 9.4964925273189
P 16.642425504234183 11.5066460487098 7.29790592408814
P 12.513919230761706 8.833117620688524 15.223603749210183
P 11.550985501268384 13.944914955723556 16.011052045849322
P 7.797730441197067 17.253750868658326 17.877296148944733
P 14.940929163867125 10.762015267169453 9.604430476703966
