42
Energy = -216.20098574 eV
P 11.160285262793765 10.220153010950737 6.545791320953096
P 8.265685472213054 12.219145649830418 6.955868665397362
P 10.160191732465373 11.4427842296229 8.005136778556004
P 9.0057588292829 14.392991902121734 6.921209737636982
P 14.007137698246053 12.61714223473994 7.447531594625708
P 12.581868508630318 8.975216552067756 7.5994999278933335
P 12.813564746385486 14.395566191346628 7.808916007303623
P 11.541828784464595 7.333276945742254 8.633794590092489
P 6.86722169360519 13.088204311233321 8.531115193540323
P 8.927746314363356 9.775651043427619 10.036190438471287
P 10.750394925050971 13.597355834558131 8.104058670468094
P 8.069726394267024 14.93665575090974 8.91955188434997
P 14.25080318364956 9.679872086654763 9.115580358758919
P 9.439961734976864 7.74459042152023 9.2323922609206
P 10.697858092378336 10.147998608928669 11.321549154544249
P 6.734947271523148 11.536724847708328 10.082828914343931
P 13.671913572677608 11.803545031801887 9.378167515364735
P 9.851693550892028 14.004928516388858 10.07854288626348
P 13.113250427052838 15.157321882196594 9.898142214645997
P 12.930796805010942 6.849275948020778 10.311934507158561
P 11.568746680117728 11.866761726113669 10.228382927587703
P 14.314925376060561 13.296419991757599 10.904674098288007
P 9.562666933768512 6.30303837580577 10.950526064348937
P 14.02174353600241 8.65485530927062 11.092367966550649
P 11.550265250050987 6.290956942942664 11.9791368466266
P 7.384032020355843 12.183910738725752 11.988015163872756
P 9.692766433502353 11.614859682409104 12.635082425614389
P 11.196179656952575 15.685726745119029 10.620875264903042
P 7.368035412997363 8.794684351321363 11.342583202915328
P 11.145463865345615 13.197299878694448 13.344046022357782
P 8.277853828747443 7.204693002515053 12.56916860012539
P 12.699164777972745 9.667400359126761 12.606571646503173
P 12.836398849195515 12.270048645538758 12.19725370888537
P 6.895105861659065 10.200775191337698 12.993862355020285
P 11.74361528115759 7.8915258306465 13.580906870305661
P 9.565593991957694 8.193398051536422 14.148584490190323
P 12.185816788594284 12.556509682340927 15.289798413900785
P 8.837946894363922 10.314685140598089 14.255770109862912
P 14.076126453599482 12.122419748138594 14.239903847522463
P 14.251614007889135 9.93199105451525 14.301399938512398
P 11.325934221253128 10.712946482784643 16.08856302846789
P 12.766571021298232 9.235894211762217 15.823926529120978
