42
Energy = -217.13868609 eV
P 7.756832175464367 11.384072061214555 7.995668787733845
P 10.904727630996607 8.82889166502362 7.1642953083993675
P 13.622503383388636 10.69512036666647 6.695413543610727
P 8.684704007261434 12.924613681003878 6.615363732032257
P 11.39901454832533 10.952809093718574 6.448852470167897
P 7.437664121464934 9.290073919269497 7.992873782622227
P 13.18367400098697 8.511483126698254 7.0991638287201635
P 7.988766822002785 14.65455177893556 7.692795527041465
P 5.830412667261252 11.992843820564088 8.766209702138896
P 10.281840117867608 9.393185665015885 9.18601015791648
P 13.806584425177084 8.206039993496606 9.21744000411322
P 9.333520799389937 12.115721590511045 9.470132275735887
P 14.370877323165868 11.536815922710362 8.608035424913748
P 8.406324238904837 14.130179966759448 9.81550621130439
P 10.67751166213426 12.677490430282718 7.638987486916895
P 5.861350538301993 9.824912557319365 9.489588576240303
P 6.433345306432511 13.31256722774875 10.508327359827751
P 12.254133829903347 9.380568979151736 10.233519723148412
P 9.290242621241237 7.803239362098437 10.394662322562189
P 15.455519008732812 9.767601652869883 9.453180454823558
P 12.903667435275967 11.511593370233951 10.306668550483314
P 10.782965224911523 6.6926365980364775 11.45535730149013
P 9.49953609605225 11.614158818356547 11.637181311153848
P 6.486992067721995 10.007798463722382 11.692379381498357
P 14.907160093613385 11.03673464029858 11.250859994003976
P 7.295780090886489 12.039210874443421 12.125687978848429
P 12.231338488002933 8.177545334569222 12.081001078479707
P 12.951665760126808 16.013823125166585 14.723352174055815
P 14.49344575295949 13.540316715746885 13.709144325373174
P 8.672567102350804 9.479044141752158 11.845746539488323
P 15.372349591997079 9.968786157741071 13.216538460182578
P 12.523369800968556 12.389997367815566 13.235016156578778
P 11.126218107234253 15.337093459782778 14.075465531236434
P 14.344640756372849 8.482637667186728 14.410368543685266
P 14.014445486127142 14.3625165192552 15.736807451822655
P 11.182070501190932 9.693439555510277 13.36354499103212
P 15.352819401274974 11.612530969702263 14.703189265369243
P 9.16199627120279 9.04740145305338 13.873456069897593
P 10.984764976505533 13.208861574476568 14.652420179988276
P 13.200062401291197 11.383061965351526 15.08149957016273
P 12.364841781189156 13.012875163159599 16.415496468804566
P 12.46793046597159 9.305330085211454 15.222968878027862
