42
Energy = -216.94643074 eV
P 9.463361413085673 11.106253050537836 8.11725514393258
P 12.765115298162954 10.687093840075876 7.354245211333135
P 11.314507306226048 10.202532908170017 8.973095528167159
P 10.812826100905735 8.04993587143774 9.129172044191161
P 11.390079863140057 14.1490173591511 8.490177898107476
P 13.188658335424579 12.907278662021435 7.745505999077966
P 9.35155770915821 13.18059603691857 8.862771136646884
P 7.687823098764258 10.191415892490763 9.018802522615342
P 8.625058439908077 8.02331683046124 9.439254681717948
P 14.589366797303617 9.83981508400835 8.125236676234364
P 12.209793980146456 10.321557824064453 11.009821447114572
P 7.228457109542978 13.469090888091657 10.983877376083639
P 13.959154677102656 12.873839933108957 9.80730732385318
P 11.855811277485605 8.069219229237378 11.158101258777352
P 11.735154213135994 13.645284469741359 10.600534778074728
P 9.525990570488025 10.26927910269747 12.264473281606529
P 6.69723683447384 11.296939649878007 10.716444194330183
P 14.253354980783163 10.640739208741124 10.071236741906644
P 17.281454277119664 11.922525246873466 10.613309251818704
P 16.063531351911273 13.593003543154268 9.706470710995134
P 9.521860426125002 13.063133700749775 11.08142318085568
P 16.001721791370016 10.200786386423301 11.338856317008807
P 6.819657489292292 13.649574814303328 13.099374608526302
P 12.579103576533551 15.378000917995436 11.711172072346859
P 10.392720218078946 11.251058309579086 14.050212426757577
P 8.673130406299663 7.091509100155536 11.37619848192618
P 14.34350851128872 14.319696795370497 12.672706920260334
P 10.159030770361749 8.095173976633875 12.605649367238886
P 11.917998801611867 12.825459080246038 13.69228176770419
P 7.298832380495722 10.2182517597083 12.521903448069416
P 17.396726326387853 13.219205152999011 12.473499888272444
P 16.218880890450944 14.946179233515638 11.548095061984304
P 12.737369260019403 12.184012973074074 15.608490074741812
P 6.803036831255437 11.779931743255402 14.001814471391286
P 11.620746945140814 15.109682391306267 13.696230915217013
P 15.3839571738631 10.557475530973827 13.423377350422694
P 13.653761126747927 15.333323315073638 14.484692481567468
P 12.065450817497165 10.120892044697248 14.922840687633085
P 15.660781726648958 12.614360467933484 13.655935011207644
P 9.261582295173616 11.486635815326197 16.043103441393903
P 10.963377628291807 12.29039320046391 17.159344128586728
P 10.788642210906557 10.086699897464863 16.905875928412847
