42
Energy = -216.48308678 eV
P 9.347719285060549 9.805496847592432 6.665476768549581
P 12.780994498786981 9.444792818305718 7.527811496034362
P 12.143292480070388 11.568131710206265 7.8015276528032595
P 9.764772266352278 11.496921957878401 8.16394565826965
P 11.45223338818302 14.68662095817809 7.882014491406873
P 10.86894833355115 8.31469045048276 7.174451125875755
P 9.55277795398998 13.678555135795117 7.4276976898380145
P 12.510626683167295 11.242537009854937 9.934708106304788
P 7.613642778434258 8.719571776700858 7.388871981611269
P 7.422992315605364 11.373051511447523 8.785988737294236
P 10.143182384453326 10.809897161682171 10.38791881429845
P 11.256507226449017 15.905894491527985 9.539607573272358
P 8.066483310655167 14.738934236853785 8.694932149462613
P 10.085276856361794 7.313256847948065 9.06155627424639
P 7.925632945986217 10.202284971625193 10.54738460889748
P 10.03020396618803 12.944468104298593 10.89561334969116
P 8.0714474357087 8.148760294804452 9.445502820543682
P 11.476628672782455 7.948331604038409 10.754768260990286
P 6.913800223674335 13.257369934782167 9.969965220572485
P 11.329628961597363 13.147669888708453 12.666342280754513
P 13.19240262637416 9.166253285580684 9.817159084581993
P 8.078800778741662 13.091518151203834 11.877637429754811
P 13.563908386557898 13.238536442948238 11.984364139975183
P 9.1658561118879 16.01019726674191 10.153172805020715
P 15.198948350557416 11.587951818658304 11.685831467398463
P 12.279775926598422 6.20103331982118 11.766126904972815
P 10.16838940025606 9.09849655837884 12.059252462200414
P 12.034065245065463 15.31747548723569 12.846612675449222
P 8.554170785754797 15.24659160358416 12.29944692599507
P 13.726414275240058 14.294483851828712 13.93859604480465
P 10.073632840852595 14.695767877499879 13.868370951676097
P 15.406682908355991 8.932154355943343 13.053789342881787
P 16.05200982283204 10.999152468626404 13.747716440716808
P 13.679546214323574 10.049659339522908 12.206644458876367
P 12.496868187016883 6.834187945845429 13.79848103765571
P 10.84316922634585 8.249558103166738 14.025561661113299
P 12.919770256881254 12.73537593824478 15.41679145918755
P 14.462984441376241 7.848280120654898 14.748596442905065
P 10.994661512953808 11.921016789682891 14.663870001021678
P 13.912943932745879 11.012090354545464 14.387530469996168
P 13.610113182328565 9.519285949543153 15.94976042988948
P 11.376776270096512 9.75237790823211 15.537284953411724
