42
Energy = -216.02233002 eV
P 7.468573532248468 12.798570054071407 10.212254441628739
P 7.806956679782957 14.24757762913072 8.625447784119435
P 8.110399329035353 9.698372255978764 9.971464547095634
P 8.73911736665909 7.664378673316807 10.684848342094716
P 11.989125223620526 9.425745284286986 15.976913710556179
P 10.082234339559264 15.755267539724146 12.452597308156227
P 13.789796499661767 13.787843894172532 7.873585137132288
P 14.940903668559217 11.447840850668644 9.605477742067315
P 12.976120852181124 11.958036465851137 14.064177818870954
P 9.372466687593835 8.4180069089436 8.650250498607893
P 11.58824834071009 9.993803001473124 10.817011919903493
P 11.335780636587003 14.303207765492841 9.89798236319295
P 12.980875514547996 14.0153424123368 14.813057839420653
P 9.782591985006308 15.431867283185024 8.858199567825716
P 12.165649709353122 16.64655561699 12.237785484359774
P 9.515746644963935 9.601106054733428 13.888752076234743
P 8.912354601725614 16.349343214430387 10.691079882227843
P 14.970804089909885 9.454253528130028 14.136478736851176
P 12.097417145720321 12.60567204109126 8.729260236430763
P 15.1519439385065 8.552430603755313 10.883291487744755
P 10.86925647272075 13.692315569229663 11.963907043010465
P 12.794814446029912 14.590304914334672 12.787885033830937
P 14.389208651172433 14.883278152582779 11.211319245408209
P 8.225673194144813 10.982814699989367 12.758424421847014
P 13.914161097551775 10.712528015202176 15.65936159915259
P 10.364672722317325 7.536733818155992 13.829247960581736
P 15.270957860217656 13.628966323012316 9.418355383592473
P 12.593580342095946 8.0229831322485 11.338678794022895
P 12.664463654352636 7.487790779405865 9.155567730838817
P 10.99906669118758 11.067830805899092 14.716425788199174
P 9.295317924403454 11.472944899355443 10.752194308234856
P 15.296757298342142 11.1627639602874 12.967873700162524
P 11.422924652042296 9.326924453354126 8.69163577372276
P 8.85007434294254 12.046384969842139 14.67325497013265
P 12.438402374242166 8.233996900184534 14.19196252578264
P 10.633323768078291 6.987855039347489 11.669453856617913
P 7.131145943443772 14.903328828028773 10.720264338492314
P 12.962499602374708 11.77608406022125 10.64264749873675
P 16.30570038883939 10.463675181170357 11.08965588938612
P 14.575787405045723 8.651254731921883 8.871156715815488
P 12.844061557577922 15.987740459101271 10.122966734861356
P 8.276892892436639 10.116881864186366 15.575181227511269
