43
Energy = -223.52139126 eV
P 8.15070695827785 10.051352530928217 15.059542105863837
P 6.671872140465967 10.865975710756256 13.534437228448995
P 7.265949221824579 12.956406330045246 13.115759221068952
P 8.979768128327583 6.308839386354294 11.704854620236492
P 9.772253909531063 6.841361231725125 13.771683003734267
P 9.686615052829971 11.664170148777501 15.623571598179513
P 8.468341495766955 8.408347347619346 11.175088674619776
P 11.97308068374624 7.337574940221924 13.530819729809428
P 7.571295196600024 8.081880803061127 9.176240412718398
P 8.775564543011958 13.469358833251215 14.666369120083905
P 9.547085277352487 9.089419149428881 13.61476805925951
P 8.170477939793463 11.28963887211022 11.933288538956262
P 11.352295238784777 9.153834644269711 14.838756263147868
P 10.526606659241748 9.197345508947631 10.582858317970233
P 10.916992854081208 6.013961759836986 10.55660167047977
P 6.735390471166735 11.649138120788779 10.246901763289646
P 10.382011008045305 7.603719929504672 9.003815870891197
P 7.071486985028968 10.113846226578653 8.619315404048075
P 12.039227105299481 7.758906110579045 11.343025332967564
P 10.087052924707496 14.970538159605377 11.570046801999474
P 11.509132211209696 12.218875147951529 12.637933249272598
P 14.374256813269842 13.866690239176888 9.110739662601102
P 12.443095711018797 14.996869039357023 9.229171224492
P 12.268249207157476 15.397502782827742 11.421105941750838
P 13.382437837421756 10.744917294453806 7.141011999561168
P 13.400940403314104 11.879321720159107 9.05189778919591
P 14.955167245750845 13.708116798632041 11.27539295533114
P 10.35331444437206 10.295916015545096 5.361063500439335
P 15.838853565730105 11.028645663177212 9.307043902835742
P 8.930611178681561 11.692043325898696 5.955207689740775
P 13.220366345639956 13.788611905627928 12.675841881935002
P 13.377858846117702 10.587676701587752 10.949072506477052
P 9.900452993231958 13.034093796303077 10.359075355756474
P 15.376920772991816 11.531429890466375 11.438525463028588
P 11.315341085557458 9.905404218905371 7.319686963884602
P 14.097361797981831 8.7641628446264 7.855686287858246
P 7.999478986340151 13.177855494952892 9.101843416305996
P 12.027631188969528 7.798841887346797 7.493010059718705
P 8.922870685644016 11.391554574227012 8.128430914819361
P 14.794068876049467 9.135206926846912 9.909252529522782
P 11.345420280875762 13.12328511614348 8.706264717887487
P 10.614660464405464 14.087139065628165 13.560841455865772
P 11.778505326047327 11.391293867429013 14.715226855608636
