43
Energy = -221.81232739 eV
P 9.653584084924528 9.773013512783969 8.814841347099803
P 11.84716922893579 14.132484378037853 6.827354445335804
P 13.93950463626721 13.32105210509799 7.390364865321854
P 10.059000740241379 12.720957210952625 6.9583930364621915
P 11.541962953983251 15.72400490069004 8.275885166872715
P 12.723009882602065 11.652794767238268 7.957873274997706
P 9.551715154559362 11.97007949511282 9.020666811489633
P 15.117624240538634 13.608990748644468 9.441133628492342
P 13.769451407508647 14.719995034534566 10.903838424059959
P 14.162819613399586 10.208334356939902 8.68399666015472
P 9.940875598801743 9.277786634755238 10.936289607637532
P 11.541831279272964 12.437593971347837 10.087015570778577
P 10.572844835920456 7.092942260652185 10.836416384168016
P 8.509019177445216 14.198499400429785 7.491131814201392
P 15.601697966955316 11.441761631429669 9.937716941914234
P 11.663139511214627 14.6943634745626 10.213833101842365
P 6.497825808656184 10.207777233385778 11.086858908465533
P 12.548133022089385 7.6505896379546785 9.960649120216514
P 12.712367813883438 9.823626092123554 10.363663173280399
P 9.335484457902028 15.903816274426768 8.307364132650672
P 6.6080102240791 12.432090570144087 11.018980331890912
P 8.480191068868258 12.930866109746304 12.252988448926915
P 8.754670250084759 15.043230849552188 12.589335821869144
P 10.90965729241458 7.09431581413256 13.056839629973606
P 13.378866692413705 12.776736571988714 11.853540278839128
P 8.087539079697358 9.097975460950035 12.214898965580375
P 11.614395565353936 13.107502072673334 13.206645188038038
P 14.025794820492239 6.632500707604476 11.305700237837316
P 10.385700333466994 11.824509980471115 11.958023456883888
P 5.409931493163048 11.401089972919756 12.516562817815961
P 14.597912931397333 10.233181621757575 11.600245174368602
P 12.928624706698578 6.123986806173673 13.251817491179688
P 11.935912385269386 9.09553772042532 13.323705784645046
P 10.19092188704794 14.810519997625478 14.123302848068658
P 7.887951894058986 12.151676282735417 14.213126507872564
P 15.558694600298603 8.204689226737315 11.762910071024319
P 8.465149306845403 9.996214621856927 14.24320458182561
P 13.336134917259693 7.86266071822747 14.58711133585106
P 10.646888690285968 9.937465058182363 14.944630330733705
P 9.530670052668647 13.07709460777469 15.467427492339038
P 14.880422415640048 10.75679309004984 13.633025230166787
P 11.469502218079098 11.994669518500702 15.138988640510995
P 15.359557265910611 8.586391005265307 13.973864424911328
