43
Energy = -211.73972011 eV
P 19.78163593210028 13.064767122581765 15.037806228052098
P 11.122730803245513 15.38895135362646 11.36146328171764
P 19.521073284809546 15.483581935068635 10.141956725795902
P 10.57680291897856 13.544442863534943 12.48830999544923
P 11.23487219370315 13.305361182149964 20.90335059505629
P 12.847151300317021 12.463197459295769 19.60747828210861
P 20.030912953776443 21.241155055317037 17.58246539021137
P 10.38799090841248 20.823991982155942 13.882571583892394
P 17.52835213808905 15.432510530818147 15.877551368729685
P 16.991510228088266 17.43565951928808 8.964793027076672
P 8.614430365604457 20.071908933704087 12.748204718731408
P 11.64673078292122 13.163475955900736 23.075142813750354
P 18.598892623236708 18.76881950479991 8.956821901839852
P 13.729887648788313 18.90237874370965 14.276523108358429
P 20.435227675481535 14.306014664592182 16.57250069674695
P 13.771524709576102 17.10428217257772 13.167458466950709
P 12.443528994815395 10.416568046715902 19.576607552256032
P 14.843547171964916 12.143650425163296 16.691139307937654
P 19.095286774015516 15.799257151156672 17.224983048925846
P 12.243231711802164 13.83233582345697 10.09435725271943
P 13.910331922376132 16.187036863352045 9.546197683772977
P 14.416971567466035 10.065917222242302 16.577110454208253
P 11.260957530389097 12.179514981088623 11.045741149268116
P 15.43202887722429 15.927349565616495 13.65282023812224
P 20.47264924212754 10.898259162377721 21.936095802397954
P 18.986182883080048 11.98588068143445 21.01924525838455
P 11.588607532503653 18.978738218400125 14.096806146740022
P 8.861617024369446 18.03471748663256 12.403966885736775
P 10.297840795448451 11.858004821297252 22.303289984484245
P 16.900293277395797 10.292655686189462 14.30397122234636
P 13.265176482005485 9.143314485122222 18.056410625757206
P 10.592813964954676 17.180167265585776 13.265360604055724
P 16.500193444781583 12.079151100428318 15.354897423255736
P 20.05002815350547 12.747514571636279 22.832546986096883
P 17.480989699328937 15.503240792536433 9.66917016720713
P 16.210315271358812 16.97812299467962 15.347839711963582
P 15.619620245658833 8.90674635806474 15.20216220350229
P 20.062211332276878 17.437204883252523 9.618660148587635
P 17.801121417388075 13.757404477229366 14.481912796299039
P 20.70742504010027 22.589030070267906 18.725148246780776
P 13.3025574732812 15.312489020022829 11.501364838858107
P 13.351814765817696 14.525019691575107 8.401767215288737
P 10.52143147884062 19.758119026587913 15.808579571641946
