43
Energy = -219.71659987 eV
P 8.616416903242916 9.817350242838737 5.647007429944846
P 9.950080661570917 10.917507301725381 7.036688650804418
P 12.144199980828315 13.265050807364819 8.122111522233887
P 7.144619513950274 8.898508966968258 6.95309476096597
P 10.773139974820626 9.133881899706058 5.9999325154536525
P 10.415172329915384 12.996145544131391 6.773214902933009
P 13.100666965427946 11.335799515682131 7.4875453233491935
P 7.537458076076612 11.458840487865048 9.037316522168183
P 10.976795892938746 12.683285789066355 9.968961065169237
P 10.799865619241116 7.6051570807421855 7.570256816996945
P 8.197517104166915 8.575640090002116 8.841739422867407
P 17.624096150475616 12.530809854565884 9.62217672062462
P 14.910623770525802 10.422240786332578 8.443135818684881
P 9.394079838490054 14.276014439966314 9.81629705506136
P 7.384505620169696 13.321493181713715 10.254932125678426
P 16.091427056290982 11.101144838177078 10.191412132096175
P 9.540441562588159 10.397073898807452 9.122226735921267
P 9.95380444297023 15.072386848520587 11.853824891849156
P 12.902560749731562 10.086777539428622 9.306899185660518
P 12.236091567544424 8.000280601054735 9.016093000724016
P 11.82930068136256 13.838929228260893 11.73320021311898
P 12.10559239927308 12.417770062959693 13.437114995312523
P 6.7421423675251795 9.727968554531062 10.188939310150365
P 17.421172752394316 13.419904611719721 11.504596977064624
P 9.508524092675277 10.954828672081701 11.97576359978525
P 6.904392178633353 12.923088613911487 12.379235310471799
P 8.223305625236659 14.577916854931024 13.162812243622279
P 15.398097173153854 12.589647524218853 11.664604585521671
P 11.322413641156942 10.275812405484233 13.06221113264921
P 11.967868243064563 8.264495652026927 15.724662638054776
P 14.843034745150153 11.219682495009305 13.373427975231333
P 7.941730255089334 9.394656156305764 12.0893414479613
P 7.870995177476582 11.203356579387659 13.41037401914998
P 13.13282606544477 10.05289245022308 15.267240640631691
P 8.955272915070458 14.156472628783332 15.176112289438146
P 10.8665407052165 13.234085923494064 15.094410302599167
P 10.393830284155065 8.899295696045332 14.542261884336314
P 16.534537565743843 10.021497801451439 14.287322995651266
P 15.88576827261908 11.937956652618661 15.194720106001233
P 11.93848021726595 11.49967558450841 16.469618987744553
P 15.236170648172118 10.028304792148136 16.11851793540151
P 12.13213074271459 14.592698972676128 16.23540256540118
P 13.321479362073482 13.042842264196995 17.012411137148035
