43
Energy = -221.35415506 eV
P 7.249805330843392 8.816017641893948 4.978363262850383
P 8.726260940100026 5.891308198121874 4.917584300550447
P 11.864517576508975 6.250992566481903 5.040165779061355
P 11.077646822895563 8.32691613003517 4.590044423915617
P 7.446352092627773 11.075445272955964 5.228962654711804
P 7.094296096460375 7.6991950128083095 7.010569747162311
P 9.205688218604624 7.979569750246644 5.793622252980255
P 9.109894484919243 11.298873803001085 6.699412298944863
P 5.076559619514639 8.38315637609572 7.8556065974789275
P 10.807616315889456 3.689013604801999 6.984574904245754
P 8.732255949274547 13.395864347877923 7.563210791967417
P 7.156663635962628 5.469128533204738 6.471632871136753
P 6.522369553215631 13.374230285360953 7.755925735432579
P 5.710900520811998 11.621540119609794 6.569066306227769
P 10.258349813366026 5.822730259242991 6.620654688679234
P 8.156598990977557 9.771513985925758 7.9024439006809875
P 12.602254359714191 9.071305183005117 6.112272771766597
P 13.260145243905848 6.985525066945068 6.684282804994329
P 11.7515463650886 4.39636476173883 8.912684976451056
P 5.562934998699877 7.576270765320047 9.904308122605455
P 11.64375381716878 9.657828183787508 8.065969706109836
P 9.5568461592546 3.8263161042025318 8.833442366996637
P 5.900734606031373 10.366215232680243 8.350643371963399
P 13.194883294839572 8.79075509008518 9.364682672800425
P 9.629994220180375 8.82411239464214 9.271655155254543
P 11.829826917116325 6.582896498411176 8.430510427082153
P 8.509843858147574 5.7628799111125035 8.304015073252701
P 13.043444424424049 11.091495765291498 9.073585689421302
P 7.802265731020711 12.381982964806216 9.32869612629942
P 7.622995654784372 8.287744596737936 10.525171703780815
P 7.640157202933357 13.918463391726847 10.94083889965719
P 5.367107253769537 5.532445333994472 11.512200435507603
P 6.628466715468886 10.173125984083555 11.244973735940903
P 7.415075008557537 5.045310144885998 11.555420649104443
P 4.84781397508649 8.844835001486208 11.611411603786353
P 12.553877529001761 10.116944274824922 11.002831843387964
P 10.408800656507381 9.616809187117122 11.262452669961988
P 9.698929701242157 11.229201615452206 12.571358567957809
P 7.930770627664995 7.07886073202992 12.352989627600074
P 9.342991250935842 13.475273462401836 12.263268843116691
P 7.211224095067239 13.032770875320756 12.94384827259604
P 7.626134462569466 10.778497880653298 13.175117536403313
P 5.735740705284385 7.204608506028955 12.933860626610677
