44
Energy = -204.12190324 eV
P 12.07675332 14.256047735856944 12.07675332
P 12.07675332 17.392026002604286 12.07675332
P 14.21753251321477 14.21753251321477 14.21753251321477
P 12.07675332 15.799302051873827 13.826595275731915
P 12.07675332 12.07675332 14.256047735856944
P 12.07675332 9.897458904143052 12.07675332
P 12.07675332 12.07675332 9.897458904143052
P 14.256047735856944 12.07675332 12.07675332
P 9.897458904143052 12.07675332 12.07675332
P 12.07675332 12.07675332 17.392026002604286
P 12.07675332 6.761480637395713 12.07675332
P 12.07675332 12.07675332 6.761480637395713
P 17.392026002604286 12.07675332 12.07675332
P 6.761480637395713 12.07675332 12.07675332
P 14.21753251321477 9.935974126785226 14.21753251321477
P 14.21753251321477 9.935974126785226 9.935974126785226
P 14.21753251321477 14.21753251321477 9.935974126785226
P 9.935974126785226 14.21753251321477 9.935974126785226
P 9.935974126785226 14.21753251321477 14.21753251321477
P 9.935974126785226 9.935974126785226 14.21753251321477
P 9.935974126785226 9.935974126785226 9.935974126785226
P 12.07675332 10.326911364268087 15.799302051873827
P 12.07675332 8.354204588126175 10.326911364268087
P 12.07675332 13.826595275731915 8.354204588126175
P 13.826595275731915 12.07675332 15.799302051873827
P 15.799302051873827 12.07675332 10.326911364268087
P 10.326911364268087 12.07675332 8.354204588126175
P 8.354204588126175 12.07675332 13.826595275731915
P 13.826595275731915 8.354204588126175 12.07675332
P 15.799302051873827 13.826595275731915 12.07675332
P 10.326911364268087 15.799302051873827 12.07675332
P 8.354204588126175 10.326911364268087 12.07675332
P 13.826595275731915 12.07675332 8.354204588126175
P 15.799302051873827 12.07675332 13.826595275731915
P 10.326911364268087 12.07675332 15.799302051873827
P 8.354204588126175 12.07675332 10.326911364268087
P 13.826595275731915 15.799302051873827 12.07675332
P 15.799302051873827 10.326911364268087 12.07675332
P 10.326911364268087 8.354204588126175 12.07675332
P 8.354204588126175 13.826595275731915 12.07675332
P 12.07675332 13.826595275731915 15.799302051873827
P 12.07675332 15.799302051873827 10.326911364268087
P 12.07675332 10.326911364268087 8.354204588126175
P 12.07675332 8.354204588126175 13.826595275731915
