44
Energy = -229.2846527 eV
P 7.347183849981629 6.065414072170434 3.137850858115764
P 6.78066734526704 3.9787125571546675 3.7597675725420743
P 8.467216381340648 2.953404075781803 4.828094192361739
P 8.988941849780973 6.559349136276797 4.3629426310811885
P 4.208366163186704 7.316962917981028 3.492224274129543
P 7.100459584141631 9.631054779233787 3.6129356550795215
P 3.8842980676335257 5.189077661170191 4.276524310102882
P 8.642866475349265 8.645592114232283 4.896464651666392
P 10.81554771157289 7.231143081222785 6.109505748422965
P 5.75804641736824 4.9448839702784335 5.5039653459245015
P 10.814652459474324 9.215448322578924 5.0712687156585154
P 5.739130848619642 8.149163556605652 4.858700439175242
P 11.573079470365066 5.128491892452861 5.997771520119967
P 9.356272961720647 4.597745634890426 6.020097598430789
P 4.535658359514623 9.977796607037785 4.9434441197434404
P 5.217027387689635 3.12921545913797 6.729215382059772
P 9.818538306639779 6.594914800584402 8.55481066399074
P 2.301091543812534 7.859934558091963 4.706536485682543
P 6.423698668706555 11.269200951697163 5.028257805879094
P 2.561411994433957 5.968999047981061 5.9492690453873305
P 8.427110512005536 9.266957947460584 7.589631792460881
P 4.194846936893832 6.819288413188973 7.180791851232635
P 10.574790430467756 9.89268100813016 7.264317313572487
P 2.7004209481388943 9.577460941499933 6.157134251421957
P 5.966824368681092 11.648356979585566 8.265176069794292
P 7.467613703977507 4.744899943559035 8.521686754837104
P 7.713172243208637 11.306512692917389 6.889659162909138
P 2.6267533218763424 8.17536845667747 7.955201469949368
P 10.180166902244583 3.145521986808603 7.492709708608909
P 5.653827789725088 9.474411038686453 8.578385623920308
P 11.54541562428577 7.985593314617976 8.06112610758094
P 7.237649731113402 2.05100873664196 6.562105456866967
P 3.878829446077823 5.5342729430104445 8.967281500730763
P 6.730489132057213 7.158106082389719 9.751605728967553
P 5.425470372922835 3.889215855823626 8.873224165709747
P 11.369700597780888 4.914130412241555 8.283939146351495
P 9.569422800417158 6.496875716923818 10.808591504270646
P 3.775148402133347 9.011994923712265 9.690821182038093
P 8.245514137318326 2.65647361315867 8.50988099197573
P 8.765344750305186 9.990272378730326 9.77757661786612
P 6.687616731618267 10.71814974471843 10.136045378607745
P 7.613804352957534 5.313883627311643 10.70917945714214
P 4.630343057623866 7.0305508362590805 10.542775676469118
P 8.154031136388893 8.25997048620462 11.059969347981445
