44
Energy = -227.75325571 eV
P 10.664585006874423 9.912825252525895 4.861094198712705
P 7.703470979964103 7.959036236925461 4.705211907663309
P 12.30595780469464 9.852455818463284 6.440218658571802
P 10.88798939528152 6.976117455880208 5.221545162054947
P 6.672265151735094 11.096795251353232 5.412900336424711
P 11.810122596457605 11.926792193687954 7.190573892786703
P 10.214296920584728 11.999730183892373 5.579060154030306
P 12.576368864112588 11.520514026564681 10.99050729626743
P 12.7751881576888 9.858990403083876 9.522020773657479
P 12.599777108441819 8.068376173494439 10.96304792190432
P 12.07642265156824 6.6138246661666376 7.079701072289059
P 7.251429040814192 5.7720036961534325 4.971677644384221
P 9.372742372404435 8.462612999236503 6.0466876407705294
P 10.67724009071065 12.701796424870965 10.832441181594188
P 8.23100932281631 11.784013732557863 6.529153010957427
P 11.375687420053328 6.275854684244936 10.335234512865314
P 12.118256423894675 10.713100161118563 13.03848204495071
P 10.90469172445121 4.931637667525462 6.13444133965191
P 10.965114177091111 10.136420359675256 8.225412560146019
P 5.717638523439134 8.75507076079993 5.330735668319762
P 8.398215730096336 12.779543091893288 8.36557107774041
P 10.337711564100738 12.106421510528154 13.112642566106825
P 4.41736535555564 7.612765060537846 10.498130605230335
P 5.9736504834418644 4.5622334798538136 8.156387808746999
P 6.097955295019191 6.369293066692838 11.355901709321232
P 6.9349011549163695 4.650877070563676 10.186069401407066
P 3.959193735613973 7.554368228270298 8.282341769737348
P 6.628164665934791 10.0343524492646 11.949917866089232
P 5.0895667420059265 9.715905369268313 10.391836160390646
P 9.334199398158763 8.231467926739136 12.64025645510013
P 8.530799720501218 9.332253742674181 10.856561893824583
P 9.556051605842944 6.2062993984915105 11.75247056627824
P 10.331629048432402 7.038589528421851 8.475744916334063
P 7.800706784447008 4.495338399381464 6.827385036742288
P 5.913462509969997 6.717788652761473 7.653510821445327
P 6.982816361573973 12.193384695095052 11.30098242695607
P 4.77042728374276 9.504683374289352 7.2909395821429275
P 7.989011684265393 6.620391226759594 10.175962821122887
P 11.50326575834384 8.558503901754436 12.815248859944354
P 9.618326503618823 4.930231128779134 7.955119180590531
P 6.482982192238652 9.851026914824832 8.656169365507346
P 5.181923551155657 6.392347108707416 5.620114380882664
P 6.445294456175794 12.099501674985591 9.079653672411188
P 9.074468290707117 11.376808460177935 11.443277686881242
