44
Energy = -226.60538674 eV
P 15.201940053688384 8.957117151532826 8.686356437422305
P 12.16316047603352 12.112188318059895 6.288580221960097
P 6.458406344190531 11.913802906378907 9.987898410423586
P 12.427605933976084 15.077078149283889 10.82526536851091
P 12.87690908315445 11.247073457042386 13.713221879492172
P 8.275419720830902 9.317345427996784 10.162154072617136
P 4.587665616130352 11.572979648289625 11.072278445439835
P 9.703490806499158 15.85347774882882 11.720507091779956
P 11.714431805299482 8.776003314392318 9.385464701062332
P 10.373415041235058 14.330246742863554 10.115164298482277
P 8.505698310599053 14.322776614187484 12.882379331504927
P 12.827492011302274 9.11806339376407 7.389177995856347
P 10.741097115333776 10.72531451351742 16.44941744666151
P 10.091194984730945 12.983911957891312 11.994007419289279
P 7.019246595552365 8.531166734906265 14.08073195800821
P 9.234732733032498 10.955689448309332 9.016463111443622
P 6.698418598328114 14.482970007151106 11.565229363516506
P 9.311278253484886 10.96509355507153 14.789443815890616
P 16.503679992943862 10.73275929333226 10.91871009286266
P 15.626114210113784 14.00960832500038 9.975372928073384
P 16.30280330309261 11.874513923206163 12.785713344223494
P 11.598801306239292 9.870155136834589 12.508299614200705
P 6.601131531758957 10.975187060173335 11.964635411438628
P 14.490140303098258 9.866592270607475 10.520158460127115
P 11.355417949865442 14.756890710674776 12.795277081133854
P 12.021671726436967 7.008294795294204 10.603607862906667
P 7.194961913354719 13.827062474845127 9.560955765320841
P 5.566290964705668 12.840689612410634 12.607698736600137
P 12.705818768242858 10.898370315008847 15.86201913505891
P 13.694055583609178 13.232333232059736 10.738376426521752
P 12.29289377925218 10.694920508715452 10.472981682183399
P 14.714100622907557 8.616442523158515 12.287140158150192
P 15.271111783323583 13.806615961788083 12.165112950227567
P 11.13933804928106 10.326411705572625 6.199253740177205
P 13.44256504215177 11.168955423865853 7.8369695603003295
P 9.297480487694072 9.249819870153624 13.305243757963297
P 9.667894995816102 8.853935004072763 8.404412059314085
P 7.1159925123899495 10.361580285296716 8.526267508691467
P 15.674472628366772 10.897619642715872 7.685516662915628
P 16.753645624303637 12.164068631000006 9.280967231191736
P 12.586440568099055 7.856422212667586 12.51677058498915
P 14.92653781728205 10.318963957351071 13.781079625935076
P 7.978660764686273 9.397307063907313 15.848119425602688
P 8.892824294088687 7.646808332795524 14.787638043723378
