44
Energy = -228.14229372 eV
P 6.311958571311684 10.616107765426277 10.792138830562276
P 9.334104395622902 14.281688557852762 8.710412028434204
P 4.801820393218451 8.51407084999987 9.081189703826963
P 6.151878720775525 11.199920475394265 8.639994424864048
P 9.224390376360054 12.445844770762836 7.441721230578664
P 5.907202990611396 8.41205200084568 11.03595221959357
P 10.015271199533021 13.665113673054378 12.539593713773627
P 11.319218646467842 13.399655831002924 9.367089468641979
P 4.328661253661571 10.756052683486187 9.859209173542789
P 9.791268545148775 12.293010731456036 14.066660003001815
P 6.2770941492088825 9.212386936855326 7.616069519592738
P 3.061894297695253 8.094641788711971 7.638948080249964
P 10.04825526668045 9.241754292368379 6.559678529208555
P 11.198582874560046 12.51348959539643 6.338460363457076
P 9.04767820572999 9.513166309979468 12.886728994049843
P 8.503044781474507 8.034369811504622 5.535957649357214
P 9.443356051208252 12.280998149741057 9.647607548393367
P 11.604717952774582 11.040048588789853 14.339615304898567
P 4.352905936809562 6.403092467300018 8.354706454085768
P 7.587908113373971 7.032325410565518 10.656771617058059
P 4.440889744189094 9.100012743429161 6.228778917793945
P 10.440789465909315 9.83375943561262 11.148517425223389
P 11.908222508698186 13.910928646533977 11.503754624106925
P 5.538999110319141 5.857079333524253 6.5798906473393295
P 8.950770149146505 7.914211086892755 9.093967874775828
P 5.1552984862130655 7.2883852225449814 5.133924081078296
P 12.127845797503657 9.704536480618204 8.47392993188237
P 11.139537840486543 10.617645986924527 5.149599063359794
P 12.765914273988402 10.976233427374199 6.693808476478645
P 10.504548508638507 9.101415008742864 14.530581476767631
P 8.379974724575934 6.634227516488043 7.335599558743548
P 8.832881645059773 7.336123787252968 12.476832781119887
P 13.429480744175448 12.304125429095723 11.492844885716996
P 10.73086037203121 7.481130758100122 5.353122092372952
P 12.253795011630928 10.735432821231365 12.234414451783264
P 10.373382699728777 6.314957709022188 9.888802168310999
P 14.136415322162625 8.95011682376805 9.184663841972613
P 12.005359579664903 7.697033705849072 13.533036202456527
P 10.413220117004844 5.756279431609234 6.715700858581243
P 12.988761692617341 7.881391217617323 7.593110957487569
P 11.105134467581491 7.721748105907476 11.434139203184534
P 11.95084831659528 6.054097262752373 8.36492289054178
P 13.426908559765648 7.758506048171124 10.93141945902722
P 13.605772757585845 9.037655937942219 12.732957890223942
