44
Energy = -215.24730378 eV
P 17.24055813554371 19.474479658094968 6.743254707348566
P 9.40005851817701 13.789604651709174 19.23138177207865
P 14.498913656352592 13.628611679547461 11.781360372310024
P 14.30150185951061 8.368329427358487 12.91753513154041
P 14.519984249746933 16.122107913862457 9.647092947887959
P 15.30996443096859 19.05328717467626 5.9173315512928255
P 13.492072622371257 21.37855963621946 17.317573135141618
P 16.159307588492528 14.836554889469912 12.539266590909662
P 13.27042865852624 13.611756012061232 21.70715402159396
P 16.057389095191347 16.612743109615113 11.219508764083466
P 19.1296361033963 14.222708643695517 17.374852534446863
P 12.037853983887114 19.7957370581688 17.586974381152107
P 7.91103793187629 17.542618248836597 14.455906620455076
P 8.010809897796126 17.860563430277423 12.226083193145302
P 13.667232192697913 14.268728687710384 9.916854668749588
P 14.722318221626985 10.177040260292785 12.313906506445004
P 19.386974561378338 15.36951034867241 11.991001307516921
P 9.973306388912105 12.361359167150592 20.742356225828424
P 15.771612256634127 14.986856439178217 22.559376477360313
P 17.439162980855723 16.299520117966146 22.676484871446338
P 20.271254879509353 17.353545998110693 11.841818335117987
P 16.327379189475135 20.03073953679921 19.38667311064939
P 14.622213553627509 19.84244878751883 18.182155282732715
P 17.472954884423135 17.9797546951052 8.257743024190914
P 17.625219806514433 18.03035945959518 21.45675675054725
P 19.819693898450172 10.828736234523308 18.820485068142727
P 10.602759970480383 15.49262846000296 19.688916032297335
P 21.863079817342438 14.941882861180364 16.015828224641236
P 8.759879811398052 19.244481650799234 13.598644485342039
P 19.087931268563107 15.788216027922745 14.168193025188906
P 18.39332725271307 12.162410523074426 17.792279517103683
P 21.22271833878959 16.42615832687613 17.468732674170464
P 13.231065583979959 18.192034857523865 18.319136620414334
P 13.783890342656292 12.093367434162737 12.948642318331313
P 17.510048193854512 14.959361272463124 10.771970262428201
P 11.360804529686439 13.950805801924266 20.97383890133313
P 20.719019176982407 17.221162213684565 13.882368804765122
P 18.29529547967781 10.443802632682484 20.24705608535801
P 15.967747795241413 18.062782677628743 20.17119559191208
P 17.403292268415502 12.311001753687716 19.742011303905276
P 15.421051716756256 18.545621188214795 7.99475757754947
P 19.931854654984434 14.032805672540645 15.269090119829022
P 14.196749096825402 15.503423980026504 21.235929933050443
P 21.26484160779345 14.329255518003503 18.103211735011428
