44
Energy = -222.62741256 eV
P 19.173140822064173 8.72069784770641 11.147928508395005
P 14.163875948104417 17.514701788722363 20.43844600740313
P 12.198222569978071 13.90155433987957 6.933412305051832
P 10.908598588753081 12.285792679495215 7.05779669044527
P 18.77457529840032 18.348870984735072 16.068949022988402
P 11.504591933193119 13.649488095221725 11.818292458428733
P 13.09484902367019 14.822705219208508 10.847483360007026
P 12.253749647605947 14.00502057921562 18.020551692728098
P 19.583625728859513 10.714264104166757 11.028761856096535
P 13.35084565278459 20.025552544626787 17.69143635846687
P 13.815267382990607 18.70965833305391 15.005248926359444
P 13.599808738980451 17.934014696980654 18.41552361338503
P 16.24304457174744 13.23186778128942 17.50944419162729
P 12.64577570159763 13.517513809489959 9.04216597607315
P 19.48091713517605 20.140814207237355 13.944544244793073
P 15.031017569100355 18.736518808324288 16.879343123939993
P 18.950529561989512 16.21563988566293 15.54729986963171
P 14.261634946275441 15.418438279835701 20.755999612053277
P 17.58217666510076 19.574451003733007 14.527628576017754
P 11.360972734888563 12.690314226769596 15.15891523741992
P 10.601468834411122 11.09468181325794 10.916915323787519
P 19.581434941396154 16.681478222839747 17.622163032656704
P 15.491389762804108 11.700104190996143 14.313209392399218
P 17.76703090280706 10.117130186761251 12.162962361582325
P 18.89543050193063 10.262230043681244 14.059414176404509
P 13.684348423061726 13.755407299622544 19.647840741040756
P 11.697178809660677 16.585601947705538 13.777263192122371
P 14.884141461866918 13.076803457305502 15.839033890917849
P 11.900459998013691 19.06714012981209 16.13764894097139
P 21.044442530644396 16.7519928701578 16.030819830815673
P 10.858815512770676 8.908042043900831 10.637231001685386
P 12.742530791961622 15.585071029388851 16.3369907285021
P 17.372856543738237 11.200856790145767 15.161249090488825
P 17.949193960526802 12.174114338942871 16.97250241456253
P 11.759251758865291 17.243030277067852 17.432910569164953
P 12.750697479937275 12.708774947538352 13.41168796737458
P 10.945445853785662 14.966222873777667 15.242965357165618
P 12.555412409095567 10.962575587447859 11.924964602395981
P 12.042371894847276 8.867114285241193 12.344203208076165
P 10.655597045502025 12.67893084537914 9.233948501091922
P 13.801185050649844 16.59563454237698 14.395918207448812
P 11.261557801838425 15.835405692350495 11.687998014083059
P 20.724669425508285 19.141748031578924 15.502756388013381
P 12.898166720567508 12.328320037214915 16.751119965984422
