44
Energy = -228.25875731 eV
P 5.223876389510087 9.190308691491344 7.747651383087793
P 5.554360144399941 11.708912007574021 9.724293170475216
P 5.180514403506087 6.370778937545801 9.849788995623133
P 4.753733801011067 7.022308218799518 7.718368214533932
P 6.058542161259833 12.132014608664441 7.552234624971918
P 5.0042568471964435 8.337922404779416 11.001536203381749
P 6.821893386111734 7.756793680917395 7.2413753603564865
P 7.728460787671685 10.313128793692524 5.123554263432303
P 7.391395551984427 8.073030878348245 5.101114915175024
P 8.424408882653907 4.822922619869667 9.139621157482045
P 7.335551618570461 5.912556216560722 11.954879949439603
P 6.460415243622696 10.988556233886303 12.789653592482287
P 7.385170599161288 6.621481744904688 9.866921741022841
P 6.925701023380482 13.321599127754284 10.46700620681943
P 10.398265092788868 5.511178773700921 4.538846805657659
P 6.393962286226546 9.590448432451213 9.670789834838391
P 8.076918811644944 13.08119456805942 7.329517986893421
P 6.46132755973078 7.855107206131151 12.738045198425274
P 8.683714542047506 5.388709166037127 6.987532486216444
P 9.46913317583718 7.271818187723184 5.58768375668282
P 7.889442588580806 10.855470277524777 7.330767467821375
P 10.446680293362204 8.709471465563379 3.9984544377400977
P 7.83276570396234 9.51316595274641 12.037616136421041
P 10.318165590098893 5.383447824580244 10.273889514840423
P 10.619940971745969 4.522739298967289 6.5351789522993995
P 9.89001779896374 10.609618374197296 4.843678097315987
P 10.013613692000682 7.5757601307802735 10.650431873348655
P 11.048383997315877 8.017832695132537 7.028491446519626
P 7.734708229655357 12.77630418765099 12.503159866862358
P 9.556454239330357 6.098429974091876 12.25651062053923
P 11.543050734997795 12.438759134914642 8.895580297913314
P 9.77846905070569 11.323474735720467 9.949007547893958
P 12.299995432352379 8.438716649220119 5.202754316934342
P 12.537509328483475 6.205441942538248 4.868465812422341
P 9.53568777925783 10.219014727392008 13.391845436066113
P 8.853043485901296 13.343634209138049 9.422999077690582
P 11.61488434751214 9.299441900023592 13.28059149548062
P 12.034624656851099 7.981577732362556 11.529287390385763
P 12.261787648664079 9.973591746000656 10.54098511704222
P 13.351558932521735 11.143696631053174 8.928847572755213
P 9.839046350067186 11.99361649751561 12.1119296577409
P 12.202863658792912 6.0999741507623835 7.110301852356625
P 13.11356008966097 12.787438606454762 10.36052664615493
P 12.884484811517837 10.997374936420357 12.25174747295716
