45
Energy = -231.97030928 eV
P 13.371399938852432 9.809834918477494 7.4100217615925486
P 11.97610313754468 14.168238312453944 7.659932316009225
P 13.9552720860468 13.179088453624647 7.191885247056039
P 11.241461795408542 10.288476838646453 6.792230781633259
P 10.463450716354203 12.357880029748308 6.770507691531647
P 15.27133623597063 14.545524312673841 8.336622852410317
P 12.564504875222434 8.303383758140974 8.795260332943743
P 10.671628387780821 9.324587563085343 8.69959866465295
P 13.491632886761627 14.963230032325358 9.474661981817347
P 8.31216620996011 9.541738222854992 10.397791283335016
P 9.286423860944165 12.492378367309833 8.697979209016209
P 11.228542114015495 13.31575424115707 9.491844076123993
P 16.016139029832235 11.964502260480335 9.175518139691125
P 13.91524987383159 11.575024867125956 8.763281191552112
P 13.953379595923803 9.990592103584586 11.032344688059325
P 8.942396621830701 8.079434025340614 8.912535207890448
P 16.043684929410485 10.763781015268354 11.134400783816606
P 7.050452514875574 12.543585376889464 12.052286739390434
P 9.98505738032222 10.95725164302046 10.157432083203116
P 12.459618401101839 16.395520108451493 10.731944762654905
P 6.493506205873228 10.874851253424408 10.519765836120293
P 10.88444724051156 14.99187142752108 10.896429455018984
P 13.645743426735933 13.382953132578843 11.317754984691135
P 11.807554293160717 7.405122354472332 12.479201552502175
P 6.447994063654915 11.570509577858585 13.936356618984894
P 12.541048197974423 11.475134787345329 11.985031848429076
P 13.895828533422584 8.279423613499501 12.517152518114678
P 10.616464258707087 13.000461704567348 13.03147787784889
P 15.782861748748306 12.884823877474368 11.684081707199738
P 8.557862944269525 13.927343995685519 13.257931503695053
P 8.396564405729242 8.498212576000808 12.360709063648914
P 5.333066684177825 9.869779532856944 12.014945828147583
P 13.826250245945491 14.54113612559712 13.303378640041013
P 10.463945406879107 9.196799594392953 12.924531456622764
P 10.938684372430124 7.721761257436822 14.51523574347264
P 6.765685949852752 9.375455878079347 13.612151608354454
P 14.110462441600191 9.332406019617357 14.47528015400766
P 11.955452939591929 14.077561563126574 14.549465372763262
P 13.66260173667344 11.391295807533277 13.875979182602366
P 15.276011141488697 12.926237801999513 13.913327210294407
P 9.745782501993363 11.36798996905845 14.272433611134632
P 8.184939989353648 12.737232157172874 15.08528396111574
P 12.28827940564527 9.00896131188998 15.775194828045503
P 12.780287332491305 12.313866437368127 15.6614335491872
P 11.056179465787036 10.946407317470369 16.014791618265303
