45
Energy = -231.82127917 eV
P 15.128119535825018 11.714898628112971 6.246982637232199
P 11.20553888019312 10.266728251760432 6.806433283934797
P 14.21270656214954 12.51680123152671 8.125600043025862
P 13.5484760846069 8.90215542404175 7.223568398830689
P 10.999889775035012 12.491615983821442 6.372494917596267
P 14.22859293664388 13.566579781386592 5.351192170276098
P 10.686711272938071 10.808658198547288 8.843986595458942
P 9.205995032376858 9.749909602247232 10.091960049791908
P 12.651870136528233 7.261057617897265 8.365992338837984
P 9.952671609577376 12.799854284443388 8.331692511619373
P 12.709097342261225 13.78597710854184 6.997399492416823
P 7.716107189467426 13.248955712138414 8.370218156023046
P 10.53601629566114 6.774864205986425 8.011454816777073
P 7.622570072099329 12.628998305747261 10.547797796976948
P 9.836930832220308 6.276480717421254 10.090707797668951
P 12.50289055934195 10.31955956524148 10.933442171126032
P 15.178023534893816 9.206897139990968 8.570460728365259
P 10.540406115808063 9.384957109382075 11.924099803237361
P 10.838452530006164 14.129850086549002 9.824871255410633
P 13.842418650077624 10.142726528319614 12.685721320024129
P 9.703755001739532 16.033344445619502 9.600027225206441
P 15.77526425352832 13.680158635013456 6.980356329003204
P 6.986074989792252 14.539224768031133 11.503264627248626
P 11.247275073061225 7.254861076598741 11.617797003496243
P 14.9640018028233 7.835557591912674 10.398726281665802
P 6.550145386909993 10.989084274032907 11.935271385752605
P 11.310109251093664 11.238826928561904 14.346275683172465
P 8.847700945398833 7.91716897019897 8.933959157258547
P 9.760341436954324 12.924831298645005 11.377784112349657
P 7.616389264994645 15.252083339444951 9.310744062019614
P 12.806948151065388 8.202344954521735 10.341349235256308
P 8.040837187334537 11.569767631927553 13.457439895721496
P 15.579047491544305 9.002946525469437 12.127770862517298
P 6.066266170537887 12.537073134321076 13.329113561076936
P 9.782492341291807 16.51301783709932 11.709287995551229
P 12.306728805061505 9.202785045295366 14.181784668801287
P 8.805960732449416 8.167251171086816 13.821979492138857
P 10.64752183614123 7.541002604807002 14.73716462085177
P 8.951291351713078 14.740119499871494 12.582802966480472
P 12.405703093760021 11.709995608550395 16.244939010463632
P 7.964566770163832 9.872707650583008 14.994935952791922
P 12.870316040429492 9.312971192195985 16.370407280272882
P 9.915866104754425 10.534354672855002 15.854198973911917
P 10.792134281475152 8.622388451989101 16.692590255739105
P 10.479201956818589 12.148031876813114 17.153377745170236
