45
Energy = -233.10213706 eV
P 13.185479261653866 13.154126632408817 10.471139240535782
P 14.483881864987646 14.230826601685555 11.942523844593694
P 15.714671274897952 12.547726076245228 12.64802739460957
P 12.83268816882943 11.669498468518126 14.56107731524627
P 9.993692789349852 11.52851110746658 13.33599100143577
P 12.16646072257859 13.705860416121153 15.236635701476782
P 14.523395634043878 10.396843839553577 15.18591366538884
P 9.9517945303549 13.184143198239632 14.83930980864015
P 12.958199348721488 15.029397655354456 13.537070484639557
P 11.270398858546296 16.072543206163836 10.6079244770516
P 12.924672311741652 15.102761715220355 9.361171778670416
P 6.8223795370980564 12.82515983691929 12.809757030109033
P 13.302002987711402 8.997122066381126 13.980154011545485
P 10.122020515078605 8.940264750078965 12.827744900919036
P 8.43096635066 10.00321774239826 13.922631745931831
P 11.309651991976388 9.9569812827888 14.489833915501034
P 9.437448923063513 13.09847079704316 10.425728941638521
P 11.481487726830856 5.698641783058379 14.244489847652021
P 11.304822857266513 14.491362726553001 12.178202749354469
P 7.376609043896907 10.814745621216558 12.111652377547557
P 9.707731597180388 15.050276572829699 9.276202094633504
P 8.091545535464453 14.337740362343771 11.786237699736542
P 9.551039313560894 14.943701118887452 13.439161426594906
P 11.574940719713958 9.179566143030254 7.345467116009208
P 11.529303131519137 6.704669248740835 9.403031966823349
P 12.071872449811105 6.787081516223812 11.58954038559319
P 11.373914971998317 14.464106162613259 7.8195240477223065
P 9.638713777539783 7.76431455795122 9.693721489441437
P 13.099465335464096 8.137022877675799 8.613251325845253
P 14.324450996570866 10.749114453586168 12.920820334447894
P 12.745680122676319 5.052604491029729 12.733210407660268
P 13.35229386255512 9.889343847808973 10.048443949656928
P 11.172260526956121 12.29586001899433 8.318572082433262
P 15.324275780690327 9.662921416176605 11.11183869609003
P 12.587656370430372 11.1950641639201 6.956783460751592
P 16.30770920535607 11.661791640800413 10.658983999796284
P 14.357508245649523 10.790759637021704 8.28216875970159
P 14.975891003730942 12.72973145675042 9.17763513910483
P 8.332195153743859 10.439388995782336 8.128037377979544
P 10.227852554018648 9.738951973435672 9.08589203480449
P 9.249074200859967 12.210848156515038 7.118555286908579
P 7.886274744769442 12.48787895280668 8.886270031004827
P 4.956353855300294 12.534372977599354 11.684040074193348
P 5.207689073311843 10.480850729779169 11.926557478534072
P 10.208920763422835 6.711169766909638 12.726410110464547
