45
Energy = -231.67183702 eV
P 11.103738998032464 13.969977812142128 7.615585303933083
P 7.879319601305207 12.475233572085513 7.889167835083247
P 14.363660432452795 8.124927518457175 6.969830961254474
P 14.736122651845346 11.600025331597594 7.906262208976742
P 10.732586893413517 11.865608454432573 8.054566723506497
P 12.479682408432797 8.673576957511772 7.987312772949427
P 12.70250898086029 10.811556957328387 8.37661990590755
P 9.168438890656871 11.076173333025778 6.871620504362156
P 9.10386949675697 14.463561095355008 8.361846512736566
P 15.895493002988598 9.719313608110737 7.5289065692105055
P 9.62515924325867 8.702871341416822 10.085310105817614
P 14.051294190634845 7.588702584261119 9.16825590500548
P 7.962373907993827 11.87137629191262 10.056761952846847
P 13.15968048172847 13.657760525453755 9.470057422709973
P 9.191623158529039 6.7087401416705 9.320058626538167
P 7.5792112922895445 9.649177368103157 10.060465947757255
P 15.018122119779562 11.629379421268412 10.234029251019304
P 10.142794988409772 11.8775261760145 10.335941413225981
P 12.756638143236826 11.603398651605932 10.517929286996617
P 15.057813922236088 13.758872713358143 10.972543315701504
P 10.030352720603126 14.10735241114442 10.41357400767373
P 16.005631716931795 8.692298429623785 9.500405396552399
P 10.587744138829578 5.898318807452105 10.648224322384591
P 5.4199686559332685 10.889030504051478 12.30705482416617
P 6.994034335544359 9.361656694020235 12.20424661941089
P 12.142849359839166 15.001400945312879 11.058833275577667
P 16.320765429986334 10.17310671283911 11.021770917270894
P 10.325593971162524 7.616095895705007 11.962846707138281
P 12.423905298092766 8.351550084429302 12.397112134496117
P 13.271577079153769 13.462482429721215 12.241166794851434
P 9.054076933580783 14.681569262345539 12.462544659532249
P 11.688295360015921 10.46922248047037 12.730911567374452
P 6.646102389402632 12.252092240478465 13.54246730911156
P 10.840920273103508 15.914763585565689 12.91121144721837
P 10.079705138909404 13.037606426937886 13.645497385071655
P 8.386616165668013 10.877941744985575 13.103811787043401
P 13.557380026602702 10.578768102605745 14.003394413808259
P 12.59737811124171 8.640998002205915 14.696761627956578
P 13.400783716885753 13.907998339304088 14.426728864569428
P 11.273272022842583 14.632948208553858 14.679838142745995
P 10.557460300092034 9.612475000458655 14.55022766960464
P 7.585901499962851 10.952495086792714 15.141492516905927
P 12.946686866592476 11.993916657816206 15.5859738817538
P 9.06899175696066 12.597046181733274 15.618320749146672
P 10.799917193716544 11.185149176829409 16.078553719589518
