45
Energy = -232.51467802 eV
P 7.126152170706457 9.89479191970093 6.190301636643862
P 8.8365123089533 11.156730879848372 6.8527836406223885
P 14.922913680601143 11.680838319620861 7.334860604339343
P 13.211148656552886 12.891870527554524 6.534220852467159
P 5.700519717246019 9.315365183523728 7.868243673285074
P 8.136813914892612 7.963670645505448 6.435344283268745
P 14.177460427339739 14.572296342481035 7.666757923148978
P 9.207411842162852 10.040046490817417 8.720758930899764
P 7.693139859415455 13.033096374468085 7.18366818985707
P 13.820713105104016 10.198076907215702 8.55009078966983
P 6.61233535514652 7.278819837269839 7.683001350891457
P 15.534505859574413 13.331295547897327 8.654051849452044
P 15.528193633255121 9.510356389708653 9.728635309222165
P 11.665010716733294 12.34124806929429 8.039725900481173
P 12.506716304050746 5.190211947716517 11.439836427503145
P 8.77193980463738 14.530754147855339 8.196062217320224
P 6.974219344100348 12.049704295393978 9.897691871958775
P 7.06630715114432 9.862096922575454 9.517819921801296
P 11.014662677057608 14.486176633007448 8.46888862319785
P 12.482817264855933 11.356214247287491 9.878843508665254
P 9.08968365063453 11.574137404646049 10.392885752496229
P 14.08196668615345 12.448202132154597 11.047177096621159
P 13.29599544146331 7.142835097684586 10.635242107851305
P 6.619295169233926 8.766799153962863 11.336457148621207
P 15.57471036853156 10.844930672461224 11.44496152359934
P 9.062101263889314 13.837689904935646 10.455559043013293
P 10.992328142603737 14.77434246408932 10.62272756386387
P 6.110131727507603 12.248345622549541 11.957052577206397
P 10.51993830332889 10.252275537356809 12.49006818636261
P 6.6408865937493164 10.25108907305482 12.891316715903116
P 10.880535441346673 6.144966402044373 12.63639709117421
P 12.962601648225686 8.725143750794084 12.163199328523614
P 11.118525917354587 6.606821406335888 10.464183180215889
P 8.004100445429085 13.270122217335198 12.662103457457516
P 8.645118907507062 11.199072594520596 13.339135558247612
P 13.338138469996217 12.698599497777238 13.150931616349482
P 14.894433146217498 9.401984968232025 13.04304552616534
P 11.180914163139569 12.31106785693246 13.107366686867152
P 9.342475158739035 9.031166747883857 15.717697391956126
P 14.227715816201606 11.041503715291777 14.404511644225256
P 12.253447633246923 7.431323090549775 13.82672586162498
P 11.002133951925707 9.169652923647746 14.409804690319548
P 9.084673307658512 11.197611928355851 15.55493981542166
P 11.183070320460976 12.157327963948223 15.335264831578996
P 12.465104907792252 10.348846620580199 15.62917847550586
