45
Energy = -231.8186042 eV
P 8.995739502178141 15.333478977389728 6.3768098268260305
P 7.854993316072344 15.459237508659706 8.291775498161394
P 10.486506763322858 10.101621909572799 7.277892679174967
P 9.546128208139656 12.119798343132654 7.285062399674043
P 9.649932291565035 16.76464159789624 7.946111998823233
P 11.019351425554376 15.087712743225966 7.355449334460181
P 12.052154578987803 10.461956683293433 8.853947617597505
P 13.38091341698811 8.59976183355874 8.615624393018669
P 13.31983876587685 11.753022563051216 7.653520511225105
P 9.03606651588629 14.211986391548265 9.717794958187083
P 15.154541539982512 11.695060563940531 8.838615499878953
P 8.634710543142296 10.39541930693895 8.489035092724281
P 14.826297330069329 9.772928197368907 9.830900859942407
P 12.689994704222618 7.184436930988954 10.29072183899418
P 8.935373061393843 7.770940006921256 9.798573790824372
P 13.245878879157711 10.157443037094383 11.549415895021077
P 10.81951578130273 8.343390342433535 10.766423629024427
P 10.809050295842955 13.317622696225014 8.730402675773234
P 16.59004506983637 9.119882800510549 10.73976655713881
P 9.759964020057012 15.596029918104916 11.361920484480502
P 13.77325916525041 8.010506007245766 12.115947471060686
P 15.501512386992825 12.694377438253056 10.882126272436839
P 8.111639289343582 12.707656796994563 11.056869353994019
P 11.480186355235507 14.267471851111635 11.861089726775681
P 9.368431685641685 10.855379282656653 10.609711529636032
P 7.936572224231773 9.163289525456243 11.186315575789996
P 12.636568394317171 12.939337465182842 13.976177434510916
P 9.547773522678577 13.76577827446396 12.553509717321615
P 14.669446615402432 11.554034776811445 12.616195992079298
P 10.340635742550123 7.188177242533445 12.57081263548435
P 16.73349947689864 11.040778622770404 11.8311127853109
P 15.764150024150537 12.675478554662554 15.185920788494771
P 8.76073020075107 8.611858991001801 13.289659397407018
P 8.954975676534776 14.053568565794919 14.590233521586914
P 14.209216845561464 14.258947650408311 14.847278070542503
P 11.810269720150451 9.989210846592163 13.544476916277395
P 12.139247524470877 7.826769199045049 13.738289001536435
P 14.86566973704111 11.167635936491672 16.334714285352376
P 9.797189815308634 10.520898157507974 13.721198137320622
P 10.87773976295868 13.532372013344718 15.374627196989659
P 13.570278902548315 14.623275344898625 16.949071826303904
P 12.950761243987095 11.146285757979937 15.303898304738674
P 11.182163561239456 11.6905079216134 16.595074903882384
P 11.380164102878565 14.931957011951933 17.05362722150711
P 12.38006354679208 13.087215945864232 17.991437925203662
