45
Energy = -230.7939279 eV
P 10.66174934557824 12.461561750344991 6.040158473724548
P 10.425305068170779 6.788479378602887 7.636225511324031
P 8.519934422690252 12.57917881745972 6.733719607596932
P 8.625827923231556 10.554654880997733 7.673710736279897
P 13.471654138474799 11.135702264957636 7.453808446694014
P 8.469421297155897 14.195693163876797 8.293583655593649
P 11.683102772998168 14.099781945271301 7.138698662439464
P 12.049222460333736 7.915247222786336 8.888471654035252
P 15.20859715214413 12.036790454636476 8.57598511921023
P 6.590148271297066 10.029855873511163 8.568380240125148
P 11.54690685286283 12.078146527027801 8.080329354649791
P 10.246714779053201 15.387938081087519 8.113326035137558
P 9.456704389628038 5.367401372057379 8.969494379405505
P 8.839924236711902 7.391994948560792 9.072017650273798
P 8.987074619350038 13.010130263586047 10.12210657155275
P 13.088306697512522 6.655805018814117 10.334589186266177
P 14.35680092377918 12.982163573519903 10.401815412164995
P 9.723609470810008 10.83841616917684 9.621608059497209
P 14.43796837773783 9.956955565057426 9.063324601944577
P 6.691363692059786 7.777817001513608 8.605374610967496
P 7.569807570815999 10.349782374922672 10.512252139578475
P 7.160813062306121 12.383072634252827 11.247948501721023
P 13.518088072403858 14.996009121451044 10.462560614946419
P 10.457024608309851 11.183246293409798 13.078668648967673
P 10.583547460747855 8.286997449733724 10.666237641222153
P 15.9187612264869 12.487864445880845 11.877045008091727
P 9.92125803912197 14.575228167048532 11.451511270345227
P 9.1314221442817 6.312980657775464 13.020031310276314
P 10.842606896718324 6.1065308837123515 11.35188855326549
P 12.180938949776332 14.006358692724728 11.831270088552674
P 12.630304919128651 8.33857519179486 11.743951478573816
P 5.854680067330507 7.527069581342881 10.594079024253102
P 12.424800913255758 11.995710114434091 10.768315719517958
P 13.724612406453673 10.209086531212975 11.221426104514167
P 6.799022117796024 8.887978061881268 11.995233210893613
P 8.97142239108615 8.41009605202369 12.602361645530632
P 8.413418433116286 12.044751900304236 13.123264319914561
P 12.541367160294906 14.067068896844765 13.914641902824414
P 11.350390899576269 6.234151174671021 13.522960205475675
P 15.366608534087014 10.54917408339506 12.545019126886528
P 9.106926915388469 14.129078206632668 13.487333671417822
P 10.791033596048612 12.972862833449293 14.534191729585622
P 12.447530962875298 8.094626755650866 13.861243468519566
P 7.645862946272344 10.875944594925524 14.697963727450013
P 9.500317273758771 9.664945486696729 14.434777377808965
