45
Energy = -230.25803629 eV
P 7.207449005471241 12.270451670425903 6.948790300279483
P 6.849566431284959 10.401133139751792 8.032901556145628
P 11.701471200657354 10.11746710968154 6.425079598808954
P 9.700262073265101 11.51517857398581 6.328655578219842
P 7.58559790453395 12.209101037473681 9.052355314160387
P 12.385375666783007 13.814473729392319 6.581159756321307
P 10.5255390696615 13.233444203676568 7.495550350096054
P 13.388372606787536 11.278866609179293 7.4693558162795375
P 9.074881757605048 10.596966685851376 8.273788386787341
P 10.671766547718603 8.849820019658125 7.844147451797103
P 13.836095303092447 9.754389653117316 9.142155506824311
P 15.574547891773229 8.545567096978917 9.362937729663804
P 13.080662833606384 14.340349074355581 8.632766558795323
P 11.531550377249498 15.682264846288387 9.580286702652025
P 12.463058312477099 8.068498011698598 8.836617310079767
P 12.089166392978417 12.344838878977887 9.04029510084351
P 10.636996345293896 14.10159002289269 10.871194009752518
P 15.486665000718673 14.043300089642727 11.366220068941551
P 16.607510457000267 12.354020350460038 12.051115740003763
P 12.320073801013463 7.592430431098494 10.977097349883888
P 14.642719208556112 7.497410739517557 11.047266873139069
P 5.658618734610579 8.320583105732323 13.22346079525601
P 8.692506857232186 14.927768246533859 11.834273731244656
P 13.520800739321981 13.654215972110835 11.997435854044449
P 12.179550533438267 15.413975632589112 11.718282312281488
P 13.213654453393373 11.028497560507054 10.849193566971117
P 11.920194776605745 9.602214895256282 11.923352961476306
P 7.594398235215279 12.991407645342067 12.459983094200457
P 5.887883853540548 10.288251570816888 13.919443381888916
P 7.473027964863868 7.219809022088988 13.311382532726478
P 8.760219347231144 11.079889448664751 12.014711767250601
P 15.149300538995362 10.971255223384066 12.915386253214105
P 15.118886004694703 8.608569521114871 12.900558680801987
P 10.666708777491333 11.94060743178119 12.814602718868878
P 9.156609846603954 15.409552339840307 13.933126092311012
P 14.281938665329333 12.536098881700967 14.201983821610673
P 9.13350051468272 13.296700038703028 13.945485226937079
P 15.629290781589258 10.837209337488133 15.113780130103343
P 8.041671080557029 10.268868463565234 14.064272757686373
P 9.051244804014937 8.34104428667729 14.12209522065053
P 13.087955651350999 8.613602422182787 13.693968232231523
P 10.868503005293453 10.8231750987603 14.742973672480083
P 13.742524920937651 9.707602909832332 15.601815224686913
P 8.953648328734557 11.68195102081903 15.57878949250104
P 12.722286813630681 11.689841367290304 15.624158835987517
