45
Energy = -219.74686951 eV
P 15.045692862307174 20.481418488856555 17.759741590576805
P 18.380672466673975 15.250444402179815 17.17513729311271
P 20.175960418872922 8.0477205650215 10.944062050947261
P 15.09063113247295 15.882178991361398 13.139763210346748
P 19.017995753316487 14.955887799727895 12.886344740937801
P 10.31117527842714 16.204984376457617 12.862848666876605
P 10.473512944474 15.457737782165191 16.595415811359302
P 10.771671970912475 14.377704633663333 21.688601662332093
P 11.759549480911204 15.175239096071559 14.192938610988078
P 16.82252744015069 14.483518006572146 13.158739902678766
P 19.98540916879986 12.803407380965096 19.54461699638988
P 20.58324312698793 20.205606633372803 14.789295372525881
P 18.189933173403414 20.806833613330195 16.679033991488357
P 11.938284933105532 14.454681910285856 19.78975024334296
P 10.165319698846941 13.321509615180053 10.590642604439887
P 22.203285211812563 24.69012524910339 16.93679483207851
P 10.001839471988667 12.275571408453622 21.856901193826488
P 20.204485754628614 14.320667004122253 17.933490043817137
P 20.59343368700657 10.004194073998892 10.27027805701173
P 10.036354412778271 14.422660740266748 18.477455193363753
P 20.98457101039181 18.787014908825732 12.883311154058916
P 18.97599875577397 11.325754888570243 10.288597178136218
P 12.185832402668218 15.840623795519669 11.765432001374645
P 18.14096656562953 8.079863055588989 11.44339076577444
P 9.170034030560215 14.329902546047093 12.271895977678179
P 11.783963239471612 14.518115919574766 10.141097285206781
P 21.01928108507898 23.16024284304736 16.723773230358287
P 20.411667597916345 16.61521982734107 12.232643795334948
P 18.02348284001582 15.473477185462638 14.774646493356247
P 18.051562983013152 12.926463284821365 20.35048083899116
P 8.738400322290298 13.09787746245141 13.972864644938262
P 9.364364457622298 15.473872117146803 20.367269249158955
P 18.7258130039956 19.310343135638167 15.21585104785894
P 10.374309154507541 11.267469858668214 20.110628460462245
P 12.360333013473902 18.416116487955478 17.008357646172584
P 15.860624443701509 18.85145278021097 16.71854898342218
P 14.208655221144038 17.667322806213743 16.25618671172475
P 21.2514774668024 17.18804060422754 14.195988201796661
P 15.663214340585364 16.244054257521952 15.09188592298153
P 11.380766081919 12.624326994907774 18.728673311455744
P 19.309500627736927 22.120061391091756 15.464585569152993
P 18.347482250617293 14.772149555750515 19.343770773239896
P 10.377566953895053 13.751628411270907 15.260290337260004
P 17.49916465452145 10.05058963264176 11.028721827215524
P 12.978491108972644 20.125947343606786 18.050585081315518
