46
Energy = -233.83935725 eV
P 13.557318179239829 8.95080518186187 17.136939884188386
P 13.150120996838995 17.641103606089306 13.639750860956363
P 15.594710831089774 11.613982290514867 16.22508003479798
P 13.607665585274185 17.771157993941145 15.771338617161176
P 10.83454811506651 7.921765176616355 18.37682977177644
P 10.542503806783197 8.451879381631601 16.332995483929576
P 16.98844487476124 15.45769256005194 19.59814653593064
P 12.45762129970386 13.662825402562563 8.751818238037874
P 17.165704936415576 11.969562621499126 19.64446829199212
P 10.976424566408529 16.93294773377086 10.558683598049244
P 10.767636814539323 16.388278552150034 15.40522187833465
P 16.46126736428993 9.76381836521747 11.714574513949703
P 16.203851574429898 14.902847687230226 17.726547044529713
P 15.748991188641655 18.07680796837878 15.143650825486866
P 18.93583400965375 11.501594060184965 11.990018044271082
P 10.890942292646503 14.769741434945804 7.88950767969221
P 12.14587439608874 13.67202653001868 10.824379913888617
P 10.2623879630767 17.41166533699113 17.396491373723254
P 14.82824536534467 11.45203059210585 9.423447936795304
P 16.25533033504655 16.45773059177942 13.569610587279058
P 10.600406023080003 14.495424602173124 18.551831212265352
P 17.930131761241842 18.775722508981467 12.257745741750954
P 17.51086387049956 13.734185767539316 20.723928836238645
P 18.380523308689856 17.064109089682283 13.36140603844976
P 11.029681143588139 18.203074967539372 14.064665332481203
P 9.001029797012059 15.81930494435069 18.292579477710294
P 10.465710057398322 14.824202919087673 10.024345986467603
P 9.781972102501127 17.431538385972384 12.377333964936135
P 12.820776456395272 8.243288204346939 18.961553724050443
P 13.107771378320669 11.651406664747386 8.049363479646646
P 14.70599146213587 19.335665473444756 13.595221463691535
P 17.006022333014943 11.515845597950696 12.998108868780173
P 14.604590578522508 11.844727454566547 6.448402785283676
P 16.397279754720152 12.82731127662989 17.89156273051041
P 9.586063687306426 18.221697390075587 9.477289796704191
P 11.974653688207614 16.125086334397704 18.10617291116843
P 12.31307240317278 9.151319257392219 15.462124898918775
P 15.67530353073104 9.568350980423698 17.128154717410247
P 16.00464078923825 10.876103513137748 7.652799208070308
P 18.044780196125327 10.510715493488865 10.383514860785
P 12.82073102491243 15.70004806208586 16.050940788199423
P 16.363416023541586 8.905856867274158 15.131666881994592
P 14.41016119712365 10.023021325002754 10.975802882093303
P 15.848612286179431 18.098935828717103 12.075733368804562
P 17.400958508367896 10.837339508593248 15.099657356191662
P 9.188981112016972 19.215984139585483 11.276673410992926
