46
Energy = -237.92552045 eV
P 17.68293066482789 16.233466209215628 13.947482241258859
P 18.279008235609687 14.121112599172212 14.478897353067701
P 15.707967153674673 12.060570945173058 15.914028436851206
P 14.518777975126902 13.580717873704431 14.792575473371198
P 14.59939098316 16.97672477607178 15.267686314504642
P 11.379507721070945 14.051978601205278 14.37663148674513
P 12.464795593993195 9.781720949113044 17.504770869346444
P 17.709193521771002 10.53023976426178 13.085732867484667
P 17.87189644491511 14.61860528155665 10.60032579939782
P 15.095097142802704 15.084343406522152 16.322996999145502
P 12.620044428842832 12.825241901307166 15.676524796879155
P 17.617694552795353 12.031913119837554 14.88353852203326
P 18.656638180611136 12.749585766172263 10.932570695609492
P 17.373432619613286 15.459945186914966 16.037228788153342
P 12.535283492386835 17.21232862943101 14.451854789849149
P 15.847574170679362 17.301461858811912 13.429557877275956
P 13.283411860038596 9.360740575830894 15.512889138933179
P 15.42329163390902 9.900148872053872 15.5216200673827
P 15.960009420275137 9.227876799571195 13.450361779300708
P 12.680907783647372 16.83148189530926 9.289343568981808
P 12.84509102232566 13.816907906491286 11.205542431328224
P 9.568519950446998 9.788393929997298 11.867033970700362
P 8.794193327313362 15.03460555155348 12.053555360063935
P 10.709082059241418 16.379268559190624 9.671202161827848
P 9.446544452265972 16.86128954833852 14.74142895290479
P 10.406471145372599 10.157207618785012 14.793089610754198
P 15.121294986325424 11.455087091323147 10.516332694456015
P 15.698712081664393 14.641321201225116 10.416122197055635
P 10.483055000998482 16.477504066510605 11.867771232925154
P 8.695814466728416 11.576080041823996 14.490369956680013
P 11.525201104595881 12.561749678271875 12.420454386543105
P 14.871740930547729 13.179085793165735 11.891024317103778
P 12.443731861816051 15.69962433546222 12.627791661167544
P 13.420854454470131 17.260109206014945 11.308640364411072
P 12.406524025115369 10.944426776721405 14.173213416628299
P 12.591460062247117 9.362556041718122 12.386025844479233
P 11.425058986642128 10.600100747605971 11.031780883568503
P 14.668288110898898 9.577134058656634 11.617527252985509
P 10.518103598329299 10.231733324505633 17.010946773504916
P 11.217417164422502 16.033786450638566 15.72709878345038
P 15.54975757195066 16.707697542229628 11.269182539387836
P 17.266412642448298 11.043327825006001 10.95627385246823
P 8.351963254667186 11.596314723348533 12.22265387849195
P 8.234508284866418 15.073200137344111 14.280102478928681
P 9.650724522001788 13.146060039174506 11.32863131914191
P 9.42283058826381 13.49543202937754 15.289795049186754
