46
Energy = -237.23073743 eV
P 12.359465449954225 7.3662246156839375 12.676633530306727
P 9.361847092183018 5.980068894539881 13.444721032737814
P 11.332952957035545 4.991677069517578 10.47720947033157
P 12.937269670061651 6.355335225001503 9.502329704276626
P 11.50462643135256 9.454025598823291 13.084602658706467
P 8.775980183042334 4.205179779217312 12.26766854003321
P 13.281478999346481 8.198771128364832 10.760285735733415
P 8.170200694532015 7.474501581948236 12.25502895487244
P 10.545624393817546 6.7295231602073935 11.610422454271252
P 10.011774547865556 4.786795413116351 8.68463652188876
P 12.175719428861237 6.844213802154552 7.4138933687057795
P 11.383233218765517 10.344581149665265 7.810681497588903
P 13.069783025973623 8.90084220177935 7.688009186596435
P 11.554998706593379 9.705759415878608 10.870407455717753
P 7.362515523812472 5.350139553839084 11.200897543983649
P 7.795406964264538 4.60359781240416 9.180049545944597
P 9.200525529028523 9.278318591506345 13.211943848055466
P 9.236942813403955 6.3886175171917525 5.899516228699258
P 6.244732487975377 8.308527660243682 12.856594116348067
P 11.141530981025728 8.768239822438506 4.826707537633276
P 9.990861129551433 6.93053871441975 7.925980047904126
P 12.799862185554494 11.809347630433377 8.708856713739165
P 10.22619367190726 12.153361202217448 12.1380370615859
P 8.856209369486411 10.54498383057133 11.388994998065808
P 7.3373183974669125 8.211605518996695 9.530826816502348
P 5.4925965612247385 8.497287187795655 10.807440572139475
P 12.229570878784532 11.84389981484743 10.903821983709939
P 9.528300139193687 8.586063537365106 6.158622200458101
P 6.953637113409247 11.520602202096441 12.07663583286931
P 7.68957083416843 12.43518858879107 8.750622377201775
P 7.021812124047328 6.626831431874751 6.348653483843958
P 6.538712978724873 6.345003456436936 8.544317374722526
P 5.289835186087562 10.764490751773565 10.757692226577952
P 12.415479384755734 13.655514788136456 7.528391168717553
P 12.508250512005402 10.16150719805748 5.896077651357604
P 9.911923682802579 13.725214799593891 9.339401393520086
P 5.73215621333829 11.268179328943566 8.58946503894494
P 6.08572345596628 9.184142709153853 7.950668063058762
P 9.171318975668894 14.032453487896317 11.43272617072367
P 7.151324509604872 8.839664745754993 6.081425392791588
P 11.640627323408339 15.082007619467932 8.975702605713517
P 8.49130102525771 12.204465987886708 6.555961542666082
P 7.155747471583997 13.352649123881372 10.881985109570632
P 10.200413078092902 13.587415640968674 6.707251265405564
P 7.239945633219263 13.880948722284788 7.17641332399031
P 9.356822968999028 15.269704625447144 7.91011941259702
