46
Energy = -231.91171095 eV
P 6.502220270232911 5.839465457589128 3.376406000825895
P 4.7524157608622355 6.918102005434905 4.48279482246886
P 8.663503517954561 3.919323325071173 5.346085799817209
P 9.387995369526925 8.932622740161946 4.171657651979545
P 6.681594880154394 9.935638930292557 4.714578596676328
P 10.190498488628705 6.736083347706411 4.373319236205918
P 7.936936795496435 6.964432276386042 4.470420631913398
P 6.191236308890521 4.517143521142709 6.3697120726946865
P 4.1596330142477616 9.17420194349739 6.871699210719554
P 6.550676009953711 3.7519392195904486 4.28200657031952
P 10.501899890832574 10.77957691135356 4.990139049569752
P 8.240777918255747 11.495400365935435 4.838634607190156
P 11.917791353350653 8.633711460262724 6.490708613996942
P 9.778212659858966 8.093041134660345 6.168527591276787
P 11.000533096377467 4.541194854350487 7.2045698595390615
P 5.340531222766753 10.978945236074216 6.169658301538288
P 5.752427595066369 7.651010674507908 6.3492610745433185
P 10.365777929257542 11.299626405087725 7.114062109126057
P 6.825005091775561 10.727023526442789 7.791193239987362
P 6.216904211485693 4.962582261701907 9.411307650166293
P 7.945123534070099 5.849465887126694 6.396315954462216
P 4.39433160802192 5.848023329227877 6.40578330245545
P 12.120062809349617 6.132595002051767 7.731133885066679
P 10.241708875175604 8.601001847428499 9.446882101231513
P 6.534394943715017 7.202203091571722 9.315483068253421
P 9.345787857864998 5.624029756458699 9.731878036074102
P 11.721825198601293 9.897908588281265 8.24972677342365
P 9.3266146611635 11.778054702536988 9.93711606727189
P 8.10592647589632 3.7895791919232504 9.15980256946384
P 5.981746390766226 12.358616379830805 9.08851565305734
P 8.203469021458613 12.270734798515617 6.9246151434257355
P 11.345938983834754 4.742312656561609 9.368875714559218
P 4.234687069040921 9.496254358759753 9.09373793232184
P 8.146944666482023 2.7925084042376582 7.200773105835273
P 7.876832667521063 13.347859327197753 9.903558075810395
P 4.304181435780671 7.28518289026771 9.46104597225949
P 11.748189376785314 7.45885994791141 10.471218244111943
P 7.503454655905583 9.98895854931319 10.890348095592024
P 6.456458934871072 5.183650326737613 11.600760411540657
P 10.73191499704827 9.048970216676176 11.561527110439751
P 8.07286238636706 12.086932757807146 11.783894082320296
P 8.803496842057823 5.579155744718463 11.914604070555143
P 5.7022264626298815 11.2420309092365 10.949913756548192
P 5.586146580146757 7.356747003937131 11.350007964587256
P 8.809016186484527 7.806382294093815 11.721699045590793
P 7.317025632953531 8.897856079308838 12.870980812154498
