46
Energy = -236.97653961 eV
P 8.334228919421795 3.921242713196242 10.124732441784175
P 6.404365303690643 8.276923391452721 8.566600420654613
P 5.424607387955851 8.32259391435069 12.721644466732197
P 11.920382665250898 7.819986955187084 6.1343008142397695
P 12.107794096656901 12.374696045924303 7.944531415518824
P 6.178759809484587 3.432628894617326 10.049875635606082
P 7.680927154880396 12.526303922687685 5.45715339421983
P 3.9421423117687566 6.822474393548388 6.4048975330857125
P 11.336130000343296 5.76454477919796 5.294242514147046
P 7.237994988543282 13.105004659374755 7.587068934649812
P 6.856407590203252 5.320419439966787 7.415313818466277
P 10.068493707507766 5.417605822435004 7.18969184958983
P 12.14335842063121 8.557026218804658 12.712710585743112
P 9.708455284583758 10.356852018066434 6.538398995552996
P 12.589384784147757 10.786186444353364 12.59908502204007
P 7.586342239787521 10.32269256394075 5.790836587054441
P 7.364600424979692 7.888222952766713 13.346801445799713
P 8.792887781447007 12.392549820269938 8.994563089379929
P 9.97574029849047 9.022692490547357 12.30877827997294
P 4.693307718251712 7.170584537372158 9.5341064687755
P 8.903948936163832 7.717838442375182 4.6633209438888725
P 10.607235698140206 9.110579804665266 4.911802288701572
P 10.40898232779698 11.21614337730512 12.098167313861552
P 12.437124080411376 13.069866589952538 10.075594755920303
P 11.632825267348103 5.8901828838251165 8.746879340045968
P 11.086451537706903 11.340009026729884 9.912416499229115
P 7.430481515372474 9.162131595814527 3.8285507452289522
P 7.445522667064037 5.9970465012993355 12.17825262864476
P 13.249577072178306 11.001198374429583 10.441078062839884
P 7.038619352719297 12.905366522038989 10.377170556414573
P 4.8055413099038 4.842903441732502 6.634203687659106
P 6.6848223354527105 7.404549266111367 5.103207747773093
P 10.461859979618302 7.518127887526683 7.808195409290675
P 5.9278988032004065 10.190357824859364 9.66344713857398
P 5.315437520330868 6.465989960670922 11.562066410439186
P 5.550046031734298 12.247189615480785 8.724924054001306
P 11.251405794183738 8.23618419356826 10.675041716673867
P 10.478951403835135 13.635142192688928 7.424662330697015
P 5.180355836611091 5.105986952381964 8.842871153268673
P 8.48355814162815 6.185733919325133 10.188980724316046
P 7.490961075566092 3.280470365271665 8.192121282032103
P 7.8572642073888685 10.842665807358152 10.410491139757644
P 9.940755506159146 12.405995533232065 5.623637504642475
P 10.674463238447528 6.044012281939652 10.815238405519624
P 5.389752949032601 8.4780999119135 6.560564075250336
P 9.84286445917388 6.028013684637724 3.7447983075121565
