47
Energy = -241.93303677 eV
P 8.434362024334572 7.928947259982536 4.199861767156773
P 7.211980112287825 10.945658690726148 3.4331204588086544
P 9.89504622723537 10.926452123887014 5.736902783452415
P 6.454137460670748 8.912230404920072 3.944205194464122
P 6.834492918247371 5.494357830071737 6.818869211018264
P 6.353721671957954 11.83686947520125 5.178155359110348
P 12.970129146200586 8.530127269689377 6.124074103278188
P 9.519476813507865 13.146438927191927 5.79253014178813
P 8.49911142474882 6.092253729069674 5.453012876690248
P 5.321232744292832 9.928021781128981 5.615704819858308
P 5.679825966782407 12.022622744755186 8.514378334300291
P 5.300948999240793 7.102098484768486 7.198616143547711
P 9.007102883645043 8.059941242690536 6.3536167167548765
P 8.08099820682984 11.762190929947126 6.896231939762643
P 11.614305195638854 11.282978723629919 7.019402566270506
P 8.09609693628908 6.067933801162774 8.562796473427625
P 12.072914434076177 9.190192287527548 7.976190380891298
P 11.52928649949127 5.5077862920409935 7.5265161247682695
P 8.75643358616277 13.06904406690902 8.606148703587078
P 10.738712229952377 13.324856884363669 7.722113527471652
P 6.294755991581331 9.130746013495965 7.45481238171388
P 9.83082872605109 4.666274197580119 8.806808198093657
P 11.165972620450784 7.598459152496628 6.763275906186121
P 8.774058840076579 12.43443673417526 10.729489462165766
P 4.710500099760579 10.04439178868486 8.836799696976342
P 13.256533837811853 6.083438622869223 8.76413547887372
P 9.825424781866019 10.447356583824343 10.886304302144119
P 5.254485959846024 6.969840664096503 9.457688326069633
P 12.806664953109498 7.823378191644212 9.893264914587203
P 7.064257022828891 8.20733938338963 10.10359824656231
P 13.393843540473448 11.356239120576657 11.231025038007878
P 11.928970705440916 12.768901262145883 10.424525575612357
P 6.500585792647116 11.884233453898945 10.529726598164387
P 10.711645745864347 7.644060870358285 10.700256012136409
P 11.57763593941903 10.716144314308544 12.301468988927367
P 10.58584805346773 5.401118102213363 10.771595225770167
P 6.511982271837225 5.16664740982709 9.914803104116919
P 8.358161698969127 10.021019567074925 12.59786154892159
P 5.695037134993305 9.822530875354968 10.897575580816635
P 12.309009535559625 12.775811864639879 12.574537609590301
P 8.210795686475494 8.206158374840914 13.879751089053258
P 11.544117389106002 9.235922927717347 14.007469905137196
P 6.974632394611481 6.483712055430678 11.656855962669459
P 8.815338548639211 5.3177144678703545 12.13527277468739
P 9.454446344496466 9.894399546455846 14.565084581726298
P 11.514406856377166 7.370936623485868 12.800543395204993
P 9.718711232085765 6.556752067319616 13.80198965511727
