47
Energy = -240.87637415 eV
P 6.699866777361205 12.439534093053872 7.676675408338664
P 6.784020295861753 10.346362881467794 12.513480012021132
P 12.187645092946424 5.610931842147257 9.018453824733212
P 11.649637467887612 8.896284305432918 9.86954057262813
P 11.798427539635073 8.564189562006739 12.223435226270254
P 10.462431718359538 13.449623896614186 7.873434112140827
P 8.410304763664032 13.499016280628933 8.809776327384531
P 7.99605755212592 12.274437741866162 5.8090817040646
P 12.310421937275244 12.293052637713858 8.536288312045032
P 9.207858405681602 7.030625897376244 10.260469492352671
P 12.886776498836623 9.620212882413744 6.184151977013533
P 11.8134632351761 11.163239550669013 12.034631261071594
P 12.865698645503878 10.77002260055271 10.129487108234189
P 8.165178564610006 5.669044136494216 11.849445333559412
P 6.335647759400523 4.354379466206302 6.6092838726479375
P 11.036682227108718 6.4096082384706685 11.771334498133006
P 7.9220320278911975 11.370276366874185 9.20220081033345
P 9.65201040665992 6.276172803749554 13.452003081187778
P 5.031695011222398 9.292653038181706 10.15842792393265
P 7.501287667237185 10.675200121485013 4.339623330723088
P 8.287475802980028 4.9472493290839346 5.8874267388270685
P 11.96990809850151 4.691923225196495 11.031436362083403
P 9.104059731546931 4.380785729904725 7.863724290539031
P 8.578616645505138 13.055621900094929 12.134064166967383
P 13.769957414503335 9.264991867216589 4.188418090890264
P 9.012119000974884 10.358234237391887 5.871365593934105
P 4.921766410613316 10.47313032340317 6.648190626156623
P 4.028538475251413 7.106240004193602 7.53869072337387
P 13.227595313212113 7.536970887077929 9.345966489267482
P 8.550858371490293 11.318057514531146 13.56600643685613
P 6.8930221677482155 7.552724565874016 5.605560751613534
P 10.245195504649597 12.229919967331853 10.933687088386158
P 11.972789141923188 8.148057153187636 4.820988796551645
P 7.407397399351796 8.360608394023687 7.600874300457987
P 6.831231427415177 12.066734052092187 11.031397537040085
P 11.449972095859842 13.847970981742083 9.850476060163544
P 6.6053108928695305 7.021244358847073 12.440103784754747
P 5.607071885969665 7.20435839431039 10.523733244722097
P 5.251426055959323 8.841851856971356 8.041653550826558
P 5.109355183975073 6.27379316406621 5.896205545393062
P 8.844518893304087 9.725938243569479 11.974559395729969
P 7.235043311577168 6.752455654307402 9.11212554231373
P 11.812945555616574 10.308579443038374 4.391529344611261
P 9.94075100476172 8.543129464368548 13.55076406061671
P 10.163975951249961 6.320386758803112 8.388704378310907
P 7.035440475292676 4.586907403501319 8.757310811669422
P 5.700501592751804 9.351254181766336 4.957799498427008
