47
Energy = -242.65036792 eV
P 13.230660357159605 12.53505548112529 7.267040352826654
P 11.363111068245829 11.452357572578881 6.575253695576866
P 9.686851834740699 12.992204738796149 7.039910107047721
P 10.52749642068412 14.827001145849325 7.777233898781326
P 8.859434638608985 9.822110837879992 8.16263859326435
P 11.024983825990367 10.222456937493982 8.41712998395748
P 11.909129538153035 8.17065446556389 8.42822942748559
P 12.159233598975375 13.86500975130214 8.744179833109335
P 13.911414502751624 11.377095193346335 9.072492768798629
P 8.583057995330071 11.982722082223166 8.79911803541893
P 17.186570784135668 11.684201558617495 9.664557700566345
P 13.057977180634841 9.344862815821068 9.949757196616632
P 9.050393376482605 13.968188980824792 11.60247201336454
P 8.552637831246408 8.726307086942791 10.089260334464154
P 9.788980108293739 12.135302059197835 10.604652430874905
P 10.496610990784378 7.477868156017419 10.15037269116157
P 13.824064254044474 15.098541615921857 9.623966152824853
P 11.62715605356303 8.57952853626995 11.689547206234785
P 15.18325989568883 8.796817444354646 10.364237090977353
P 6.678370828668614 12.788684970580963 9.378332063970404
P 11.908813723249159 12.474098523269578 10.438392082927685
P 15.253949632258026 13.19599638185248 9.814070535653931
P 15.78293740153198 10.19021370829773 8.736604783496103
P 17.084609090275084 11.391498085543189 11.766753615159459
P 11.599765986821437 14.067747755572173 12.154565054855095
P 6.960602961286865 13.006414702869474 11.536074316952451
P 7.195152095103548 10.907735989806245 12.284447822153744
P 13.623767972544638 15.014083658060379 11.840637922076152
P 15.540028817142142 9.895087250635996 12.352057191033786
P 11.453512197843532 11.961616614302754 13.13753375113211
P 10.736719224112422 7.608919758632791 13.600368362131288
P 8.674381165764482 8.274493274201244 13.306583099240122
P 9.229532583150077 10.03911938435373 11.78419612731827
P 14.047166954688397 11.511752619583485 12.827366267451197
P 15.245584271926903 13.29002942103351 11.98815033442108
P 9.024990815154862 14.513259535670928 13.977628395652376
P 11.05058133297883 15.415358104634842 13.945762235060203
P 12.527002405651242 14.649360991052202 15.372716108303027
P 11.442830803533472 9.53773153928363 14.454580708952436
P 7.562649921294237 11.400041869450833 14.430538945723328
P 14.180511153368498 11.334033794538998 15.103834208203189
P 8.168980483178766 9.388371563106013 15.197821375750117
P 13.468083786092349 9.27739583626785 15.167338624442749
P 9.536971730297957 12.430634851122669 14.428243416857741
P 12.286449020256924 12.545426288572177 15.13236701935465
P 10.140659532456167 9.718837552825393 16.2516234343761
P 10.428089518094389 11.96948917899023 16.425082348238153
