47
Energy = -243.76270802 eV
P 10.080311940824002 9.25816285108307 3.9644573270104826
P 10.242957765669376 12.157676360240439 5.4114627801419815
P 9.215510080081037 7.351556733342562 4.83094034561918
P 8.18515543168339 4.714615822282002 6.1844715000227
P 7.170809112288967 8.249858793623588 4.998100145913078
P 11.968216374936512 11.018929614376036 6.2757064880423385
P 8.642502186780103 10.789576466669327 4.747419617276935
P 5.801364642273826 6.652872983143715 5.725957292607341
P 4.6239053288328416 9.598679050145938 5.006111171963955
P 11.684159463907994 8.932516590196345 5.530189826341328
P 10.192687543938176 7.830036800263114 6.821795766758474
P 4.234913013967341 8.041472386272586 6.571015668691762
P 11.186180530126489 10.831161395275085 8.347946816437359
P 9.968899275733317 4.342717746334532 7.40766217437616
P 10.886337040715077 13.060847061764528 8.721090528256868
P 6.654236194604318 3.857867253924186 7.583095386124903
P 9.560060804196809 13.608473584691557 7.004471404187248
P 11.443132858776096 5.93671415489569 7.122645744524695
P 7.6797728127972045 9.815875977530592 6.534243923667184
P 5.853027313706481 11.12219396112769 6.058684030371885
P 6.976544639655069 6.070471405230714 7.539521641999079
P 4.666290635308158 10.909916654614623 7.92347449731983
P 13.910382246830375 9.030633848365463 8.17849721524468
P 5.399359892635732 8.871137471103639 8.298263918005233
P 7.940321557594056 11.083121026727175 9.488367411779004
P 5.822530238431182 11.899550980705044 9.554165485904349
P 9.041573185176539 5.332199616383691 9.457196621904552
P 13.577123805234944 7.778112343159964 9.825483128535044
P 5.2036141129573945 5.642062400745672 9.89395734178703
P 11.105674311422359 5.921428951093909 9.494814694707955
P 13.208287519954968 10.798550165636454 9.311094587703055
P 8.66798019789157 13.168174755761754 9.018042756688837
P 4.0822192364587835 8.697742372980473 10.114132215544837
P 7.735450906613099 3.4304536992502417 9.51437080834509
P 10.592744880028246 9.205145525925088 10.816341433368795
P 7.263627567818789 8.114843091447018 10.939682591776652
P 4.849502157259562 10.585685918898118 11.137128259878953
P 6.566002320014152 4.541228766048041 11.000783973050895
P 7.990678765824382 11.452429521799882 11.717622006555949
P 11.53839784511069 6.116923070419268 11.546262309599662
P 5.215506586542547 7.2634128405722596 11.401968579903254
P 9.467562604589379 5.37770535422063 11.767383925438704
P 12.81165590052145 9.439989636522483 11.078362875378886
P 10.008051409926493 10.694009391216131 12.387117660256036
P 6.6325262579099125 9.806506232730515 12.282567578048575
P 10.178350515518838 8.50424843876605 12.881542026658817
P 8.362832708864815 7.181442654424845 12.673318238214971
