47
Energy = -239.58519558 eV
P 13.441624752359527 11.7786404983891 6.031112810491862
P 14.738479680549103 12.320345184012847 17.572690795790713
P 15.596615146061751 11.47209815533921 10.285882349330722
P 11.701773561286352 17.820583350691688 14.09642546953828
P 13.968019115127799 14.260471801363266 17.763061775896112
P 16.019224334913428 11.924691676725663 15.207398952994591
P 10.327021279885852 12.259423185863454 12.998009573664122
P 15.141579683272223 8.786607787326588 12.691702301956141
P 16.51998401847381 13.396613586489078 10.638437283098952
P 12.417811575439647 12.465838080167353 8.955590551434339
P 12.571451370865638 10.402691936078943 15.013845134332827
P 17.38266830036196 11.069455633445818 13.59068486232032
P 13.395079085459045 13.621226351637118 7.30741427550593
P 8.219042563025495 15.064631326168346 12.337099842112506
P 11.23851652448434 12.357323545769821 16.949218463758886
P 11.171815100825832 13.383326947075796 7.365983203462191
P 12.44140301035068 12.368402750201888 13.915903625543024
P 11.8541636818616 14.287230593504434 17.396567167663918
P 18.031755860387612 12.77267840484265 14.882791600371695
P 12.980908806777625 11.078713165417374 17.11124377674125
P 10.688326147241712 9.124379377038931 10.248349282857147
P 16.219080137254295 14.044765060844702 14.61931179409178
P 10.933814564125392 15.528757868944433 9.716612555851732
P 11.336765076430751 17.159145752098503 12.314401904494463
P 7.1994907795914 11.252156920221179 13.889576738136624
P 8.369629730582242 11.353758440465626 15.868789223079235
P 7.244518695125408 11.817560701722996 11.032737137322286
P 9.305511117198087 12.066374850668515 10.665080440984516
P 13.38239630037201 9.838856297886538 11.680405880528616
P 17.474567901512515 11.541407103591567 11.395691778909667
P 13.90114798573432 15.418699054618862 10.516535380944006
P 12.063228216422052 7.410774310140664 10.42611938503716
P 11.795223213706837 8.387304981854735 12.389579603906418
P 9.571054183913667 16.405320383438195 11.200605163642443
P 15.402018328393629 13.84263188736894 12.561597883531004
P 11.38599910530789 11.514254415764889 6.146653472498447
P 12.731458460773021 9.411534211633839 9.547718814624348
P 7.944506868817645 13.816348048167008 10.46580108782158
P 12.223414359233113 13.873527731882906 10.703111773398065
P 14.462867738840927 9.070498690434265 14.797708122298415
P 9.307498787239298 10.55279720982784 14.00433764126364
P 14.548509842634736 15.748315068562793 12.58276530917428
P 13.765197619406065 7.376662862556534 13.621968810216472
P 9.437560116429973 14.084698359730709 13.91328145113612
P 12.417052784746529 17.110566934991834 10.328587608365337
P 7.64284819852737 13.1801112257793 14.892741828040888
P 13.699212031427118 12.084055869414083 12.026231620415375
