47
Energy = -243.49384644 eV
P 10.21594751829594 11.66947590283189 6.412661940377875
P 13.446774457026757 15.880517043464824 6.729302976004899
P 12.443049491549436 11.896658303296281 6.003896346375147
P 10.25495523749276 14.762103069147667 8.022244886412677
P 10.640674361118005 12.543773909404576 8.441728757264904
P 12.202008342870748 15.715396237643473 8.396221770063958
P 10.21094187364005 9.449699502252281 6.776892391656348
P 12.255263895627436 8.804221814548432 7.320328426857137
P 13.37648356744425 9.933100769814375 5.871495824390245
P 12.841774962813552 12.292444170923847 8.188393900286183
P 15.150403333947565 16.669833347277844 7.6609945159933295
P 9.26892693472006 10.465161801063164 10.056916095669125
P 9.27102049806946 15.377204425030273 9.974717121703275
P 9.022756156428244 8.793379552900795 8.571027643296267
P 7.55821407020455 10.479946970455503 8.679421872202413
P 15.099247497445614 9.773367492512051 8.695899469962242
P 12.957223359737629 10.1871206893895 8.99549950833858
P 8.488902431762112 13.304450991588464 10.286844130203212
P 12.890735204045539 16.279427020945313 10.303947488732765
P 14.804731786325167 16.931584779479326 9.738006214450861
P 11.652085198596911 5.3532199385586745 13.680883095688824
P 13.311281693937467 5.276052748660904 15.120398587452748
P 10.460310458135735 13.886600723582943 11.119134914436376
P 12.989987557970817 6.822740306663216 12.686027289404741
P 7.291170624273516 9.665944490785147 10.751503031125877
P 15.83944787841468 11.088048404362544 10.124734812547503
P 13.928270085306172 9.531543046139408 12.511378893943562
P 13.93025133603267 11.357242527064749 11.21794773561844
P 6.932019143647628 13.467500169350007 11.838996111185105
P 14.22092973975519 7.189709075584179 14.536790686514431
P 8.56502688374684 7.286617214891947 13.400671643889314
P 6.20857056655061 11.277908486850952 11.903160984398909
P 10.207283627598377 6.727249445697022 14.78560692921003
P 10.203148804655608 14.163285003554341 13.294450004686404
P 11.843081537151727 8.706401809204186 12.399096793252383
P 10.776769603577016 12.001755119299213 13.43219665144817
P 7.988174719697356 14.03494671705487 13.709475688989961
P 14.029276100301727 10.566616225248856 14.472002765248094
P 13.845439207020176 13.126169285619135 12.411035959626092
P 11.29165893020474 8.65491510205781 14.628709935254676
P 12.851569501440249 12.462850671632255 14.235954637829437
P 13.160332071459031 8.876012395622602 15.709291269624234
P 8.730023503093477 9.472228048739547 13.438560704579936
P 6.792368290667758 10.490210196065265 13.928203468735049
P 7.669758261347903 12.261641649013754 15.069953866720468
P 9.867407691586894 11.869648734505072 15.45510206994053
P 9.509867928421038 9.669620595376157 15.507836113561925
