47
Energy = -244.36778785 eV
P 7.804091181935004 11.448012378171462 6.942570362210298
P 11.1369060602689 13.267167494996242 7.530123837319652
P 12.292951489872884 11.397416590920862 7.222771221395954
P 9.995828586231735 9.125305587434847 8.446359217996491
P 6.4200067005331505 13.110309884697005 7.692336821694264
P 6.827660884194526 10.227212238149285 8.558779424180614
P 9.356165815354974 12.17452758767298 8.375754758131174
P 8.580423156596536 9.936192176328658 9.965854852100112
P 11.704515599885811 10.37202165904982 9.157154778774864
P 14.264646968272796 12.157633714494203 7.957633184138361
P 14.957792455434847 10.248748168959485 8.989136339239487
P 5.624287674905806 11.99483821249265 9.495283825602337
P 11.179401078862835 15.731462833312804 9.873871825047102
P 11.517280011649353 13.49735683098929 9.749911151909226
P 8.046765277223733 13.942262986539225 9.043049357588634
P 13.265580160788314 8.886607609000915 8.597577792841824
P 14.566347483340554 15.208382306642289 9.964199052311669
P 10.033530792062523 7.0981893672619 9.557749055027815
P 6.96173687162477 13.200249062406101 10.768251848178473
P 12.999746224871574 16.40207061666868 10.95944412506988
P 13.6018007677599 7.533125781981732 10.330344952810286
P 14.56885616524427 10.816349701303439 11.152495046063757
P 9.642970186827696 15.703054127048022 11.42929369153687
P 13.696310738581214 13.159531833666861 9.913787311844304
P 11.047960432533898 9.175310529764296 11.829692711176568
P 11.56340592589209 7.136769628630181 11.186881999569609
P 14.376749818344328 8.74411032896294 12.087436913784277
P 8.280131480719737 7.803513805411226 10.820843222708332
P 15.850678320856922 15.192997863646815 11.79551574325595
P 17.246946771167647 13.527899223930925 11.794267509291187
P 12.889688224365552 11.608542715546706 12.39193833779407
P 12.656272961748384 15.64661538808638 13.052869956333456
P 12.641788962007734 9.521600658267634 13.33224661357167
P 9.078938524006801 8.659002527324363 12.736952695987657
P 8.51617679993572 12.984695135952036 14.431907985421194
P 10.726445446950404 14.545971127652523 12.856989658419025
P 10.303428905857237 12.33119304151912 13.185346077899158
P 9.733148398006625 4.947875147710693 13.318489824631147
P 14.625204522180766 14.665064116212614 13.556764591326257
P 10.103133132009042 4.023879377155516 15.164192120659381
P 9.334767331144802 6.884961003666374 14.01827639147208
P 16.23817978098039 11.791268434950629 12.473866409259116
P 14.47780339744956 12.433456473282835 13.734567225793521
P 10.000581875598003 5.4281629211186555 16.75873301718833
P 9.78451664753256 14.776608314838393 14.862533606404208
P 9.508627062185171 7.338754676570437 16.052833488484225
P 10.475133893484891 12.699029756891756 15.38843101383854
