47
Energy = -242.29430875 eV
P 11.54661097163242 11.505597337487256 3.7915780809991544
P 7.330126747806424 11.088759815508114 5.649677010644387
P 7.249569110946945 7.190929897307995 6.006738284583778
P 10.884036738970435 9.489666915847506 3.2551420582265504
P 5.191246618008344 11.456944226279221 5.842571735787931
P 12.496457734420423 12.505127392070147 6.953441989969
P 9.371769244025387 6.5369224779340875 5.906318832751409
P 9.766285620832335 13.583697578110517 5.9518358231082695
P 12.825646588989672 9.73340707291284 4.189671242833564
P 12.40654486083315 8.496758928007456 6.033902874466873
P 7.124190179020842 6.288810289207041 8.148279065135835
P 8.877827839747773 4.980992317429557 7.753664011295772
P 8.215075050498681 12.906874242458523 8.913262577475328
P 4.845556591174471 9.473711699403594 6.427904365127452
P 10.707126975170032 11.580868952887839 5.860300720107146
P 11.88331017714935 6.502436073135809 7.838220388588147
P 6.945295413438127 9.246999507309152 6.965174314120544
P 10.998401297613869 8.637233482726197 10.341636517854388
P 7.750225309747041 13.005618182537502 6.726928415948794
P 10.995736444132799 14.032425721951041 7.807074046236566
P 13.262666684080948 9.502514562890278 7.832984941861522
P 12.229987453397012 11.257470293924975 8.738683600825635
P 5.969074390754197 4.509207911155593 8.937076711637985
P 10.44530584485511 8.064583438412393 7.08485790661978
P 4.73507539185119 7.423170097324206 9.180879747158746
P 5.336460179877552 10.967170909590083 10.037947424462883
P 10.613660309441956 5.212028969449108 9.134466450544876
P 10.340559236810872 12.564474623447904 9.319545418156464
P 12.867557636677581 7.821987165086804 9.34200555311562
P 5.796595679035166 8.80781264712628 10.422022352736963
P 7.541584738905912 6.3643349510664855 10.793902724260311
P 5.134126573034044 5.8176360167681285 10.562585189251344
P 8.571735071374617 9.228842004359 12.13129800042662
P 7.570574989856993 10.91710289560316 9.698596059472507
P 12.7740117885748 10.545148515232297 12.232382440098345
P 7.826129261130162 4.243783066695199 10.106915016368918
P 9.899644939950797 6.678077626178779 10.605706319031498
P 5.196618381331251 8.991962431124048 12.554456386999236
P 5.692847560808778 11.195462704982756 12.293276854596431
P 10.956990406537189 5.972277160166372 12.402942542697021
P 11.277394611765088 11.241241376444243 13.349762542711415
P 11.879003896127065 8.297234525874227 12.387174471304881
P 7.073803776062136 8.471912764027495 13.615181880062433
P 7.577693702767801 6.3609090760871485 13.089012170606392
P 9.600521067848996 6.635942103673143 13.949484759910165
P 7.949854107283218 11.346168135935837 11.903019016699783
P 10.200645634469037 9.048924745629257 13.661673991887875
