48
Energy = -247.70821173 eV
P 10.495718198962678 15.480788875631104 7.167131423211576
P 12.980561391279016 11.035845462305227 5.89179995002393
P 9.049568433684644 9.22254677296477 7.051115799778335
P 7.927840100524787 7.434394470620356 7.883032034674456
P 14.314063189144763 9.29135400447575 6.166438055581865
P 7.309063467200089 10.656513219383053 7.358142735051657
P 8.623924368999406 16.029296982857165 7.997869869843394
P 9.212234486449729 5.765844985182013 8.484170515216922
P 11.720662146060947 14.520249647932282 8.58304435711627
P 14.850069650514907 11.228745339409988 7.147353368219499
P 6.248184128841318 9.979939887774604 9.338728052817078
P 12.7963289724745 8.255938128894323 7.5330161855488855
P 7.846733537053498 8.506962319210436 9.784133298304637
P 10.067973612614129 10.069013221520029 8.853981206007848
P 12.046368342042745 10.30701946608154 7.866316822163816
P 8.489062668371824 15.441199256614244 10.014762602445987
P 8.833903168191446 11.959267671647359 8.442693403313884
P 14.833943996617318 14.523139390154473 10.113787677158781
P 10.355699403273675 14.511889607430549 10.17732967917107
P 8.915935090788947 5.617976960286538 10.6173551610784
P 16.16563966109384 12.939231820589756 9.76157589897844
P 7.038614618092702 6.8146626754668445 10.977022303503004
P 13.601502902793348 11.422402145928823 9.019784195863542
P 13.57445257142593 7.6585765310762035 9.419951149820069
P 14.164338938516316 9.580359163268554 10.228629629690932
P 10.478866157745715 6.70607027409604 11.798842304960253
P 16.38196017666414 11.998614076411934 11.72002730680992
P 7.108221126508583 11.994607746975305 9.823184788182708
P 14.021459778225374 14.546633675161265 12.045060599392325
P 11.783984916114896 11.815695372261494 11.494875878782484
P 10.984390542885324 13.827906240909657 12.18050403738779
P 9.75896351357064 10.971774195250447 11.864235636839336
P 15.960005605347176 9.804101705307863 11.520067784645896
P 5.832871601261681 9.383842717165951 12.51206454643666
P 7.562004628934459 8.142594263500266 12.649941527169446
P 14.822787611623939 12.796041421309399 13.10160089195342
P 7.023766732815203 12.777791381701443 11.97951605362384
P 10.054952791630145 6.371784362242139 14.022605221226101
P 9.76748529783014 8.76214220595734 12.213425182887608
P 13.918945219804606 9.426803436773039 12.43433330305968
P 8.881234345230066 13.460542794240501 13.134784299842206
P 9.762493639683237 11.626722682412916 14.025169032347383
P 7.9077282824917 7.0376878748970055 14.51519037464455
P 13.092374050572802 11.316303671925793 13.251556271309557
P 6.345805110716445 11.244376615975478 13.50548812484803
P 7.965413580576902 10.874420193852389 15.044786086701158
P 10.698447842855469 8.533253455018789 14.215298056953765
P 8.889521198086735 8.793202426136427 15.534348111599979
