48
Energy = -246.82666369 eV
P 9.789057847833725 13.047413497975818 6.201246430204693
P 11.29653135335477 11.999572845190817 7.538611467072685
P 8.340172729911016 13.12089313281605 7.951723560227634
P 9.867117013633518 10.788655470676972 6.349926540053273
P 11.551165776265234 8.446251403622917 8.059410558673987
P 13.661387987100547 7.716963669627541 8.265404715299901
P 10.785672785853203 15.412286202927385 8.230118130766007
P 12.729298428713495 15.44826816090434 7.168807823659135
P 13.965607639079305 13.923962523153465 8.242556072411713
P 7.999982740407146 10.886805102220192 7.5797777469042815
P 10.84648764405605 6.556928009593454 9.061095035687238
P 7.658935881021286 6.498318657184878 11.246940949479736
P 10.09409764820407 12.656234223543718 9.327320114745017
P 9.394968680528402 9.37668157624258 11.223350423747972
P 9.69510330902809 7.116419936349744 10.978372502583442
P 8.795207849433803 10.845833919030344 9.674257474032679
P 14.552007828529607 9.72766756775483 8.681184917722257
P 13.354547308896866 16.885155820203828 8.77440568313296
P 11.405401158491259 16.649865491957996 9.786713526170052
P 12.578567754387564 7.287202419622801 10.145123291067952
P 12.53380774838426 14.806490588286323 12.118661146686781
P 7.270718368411818 8.62161030236722 11.385989767052466
P 5.810381301973476 9.585810505815447 10.122375749181622
P 14.510832290272477 15.256150231115656 9.732142586217934
P 16.11404797312747 9.764866502220663 10.323304215669918
P 11.985216316953117 15.453630865083609 14.194889545590204
P 14.968400069669165 11.628325736227525 10.710868078841168
P 13.006282052538493 10.748952619051538 9.939951665311623
P 10.782799131054 6.243271386672655 12.62994489676705
P 12.255373154515357 9.175410352802253 11.33392024637643
P 12.8836468856559 6.039056532124464 12.076139995895552
P 6.725661515797888 11.481706170176764 10.509678224746867
P 10.876407490912845 13.798728122592346 13.161733413037227
P 14.433495837403836 14.02928354744579 13.077596175131129
P 7.122907340764887 9.470353798427894 13.453022616746381
P 15.841474595128364 8.166841382278843 11.974121921886786
P 13.74968080075189 8.046488405603172 12.58675194642466
P 14.8229634287522 11.873458241346066 12.931431840825322
P 7.220810367301073 11.576760437814526 12.741657130411877
P 13.519889986173368 13.932479098008303 15.082193909109767
P 11.885389075384882 12.45720446438821 14.677144862302097
P 12.907168805504947 10.945437847532494 13.464354212156536
P 4.999947849989043 11.590017383919756 13.152265673241807
P 4.848990082524869 9.392037352723628 13.619289247386055
P 15.973503281568965 9.286724874206618 13.887734671470634
P 13.868515333358811 9.062982376592183 14.519557505869786
P 4.61076540842644 10.056656724223451 15.733983669787648
P 5.0372189983509 12.045499375732971 15.300562977612664
