48
Energy = -247.77008981 eV
P 11.98603131629329 12.57309649852104 6.724762298560249
P 11.8638673430482 6.967526811937322 8.223667896962201
P 11.399400505058356 10.493508159951828 7.100861846730939
P 13.459395156810334 10.135714354519765 7.897148198372606
P 7.649542536704548 12.415025575857669 8.21433511963862
P 11.527176228992301 13.618500981706434 8.487401680999033
P 11.520132860256803 5.6978577272853705 10.026650431327512
P 9.924244562842427 8.0262012363288 8.684867035866917
P 11.223563154666309 15.769133833447272 8.04842993272071
P 6.437298416721359 13.607536892132973 9.545236879239269
P 7.948908336559127 10.395337248852622 9.108837628499105
P 13.580256241323285 8.127356673615141 8.960391783514549
P 9.098119191052563 15.589421587564825 8.930723899990282
P 10.26558259001136 10.234568484445044 9.072887365472134
P 12.939663396087582 14.300896302357007 10.323081821951835
P 10.335945407016677 7.329767239400292 10.73567814627985
P 9.368571214445556 13.406535526610382 9.15443565822518
P 7.108146396954106 10.8188122285893 11.211522344651762
P 16.261439254584342 14.98111266627489 10.763765925147675
P 13.206070188867526 11.06708673997473 9.935017755043152
P 12.596303128343987 16.437011436266488 9.760557950631524
P 15.287560705546982 13.616883757648429 9.43510962108348
P 15.353383193858987 11.594277554876786 10.450634561383632
P 7.176757454247402 12.998921492247764 11.525568230301257
P 8.559556763604807 6.5504489958588445 11.782605369241372
P 14.664491586375872 12.335530211212124 12.464778118679593
P 13.282327027130615 9.078014477347805 10.98853690008779
P 11.550928276201276 15.679137651931933 11.5543396386493
P 11.137698855657856 9.258161656264408 11.616208209661883
P 9.637174014791654 5.625617932768351 13.490151738584911
P 14.577494102459783 14.511322604772682 11.969496668858797
P 8.58157945297246 10.121851584886151 12.803711469930214
P 9.38021552587012 13.287407787489576 11.37769646226931
P 7.949385112685234 8.036766528043456 13.347610979619748
P 12.492583309459329 11.876932980143804 13.06864945299391
P 13.311704316816085 8.393517992569022 14.465571685865937
P 11.289892763882651 8.801426847755064 13.820738245092386
P 9.389277195318327 15.560498131181257 11.190318692986157
P 15.758821461526855 13.008001141689926 14.357574216187324
P 9.63030549177289 7.4537965243715405 14.674499697935149
P 8.2695843553239 10.915461815698661 14.824342765171352
P 14.350955283014985 14.750531525990779 14.243610695284412
P 10.358288474107043 11.036073963642584 14.438977927362952
P 13.228328217798664 10.479076053352351 14.822760177216809
P 12.332477093533786 13.731362618969372 14.276887724620762
P 11.713962659675268 11.012227896586523 16.311912045089464
P 14.691144762037153 11.787646672355505 15.937254573530465
P 12.826997227208318 12.989627504224751 16.332724642004543
