48
Energy = -248.06770562 eV
P 12.787066305137577 15.040804558834239 6.73998981770939
P 8.108686456298685 7.774697361920623 8.473551054127515
P 10.955102072683406 14.00618551620484 7.4130495672579215
P 8.983115288725205 9.778607556608383 8.285682710100097
P 13.476941179852128 15.32274831533908 8.815296140774276
P 9.606623132564467 6.141704092160444 8.44837811763542
P 9.945123769440675 15.423825015392465 8.88605820291418
P 13.761225302806503 11.910512612173568 8.154312909845347
P 12.847721500211986 9.771816255254258 8.408149311173057
P 7.565333337719064 7.500198136205019 10.635632852692597
P 11.76557470064721 16.429235594107073 9.78725147041975
P 15.622597280120544 12.081698950428253 9.46581088581691
P 8.837977230878439 5.603930656408687 10.521163525266637
P 11.567448756611348 7.000819987625501 9.374789775189399
P 15.68790292252791 13.74420178684886 10.975814475394573
P 14.770229458769844 8.816315690749656 9.18961355508362
P 12.378923338526281 13.439034690266705 9.018328544057125
P 9.953524762263285 10.164393129486319 10.134776524138172
P 17.314604039792695 12.991586150648132 12.391576499957495
P 9.535798282502878 13.530448997725296 10.052579177910479
P 10.884447502475197 6.13796399531328 11.32974958192506
P 14.883121155319087 10.433598627451802 10.666772183885385
P 9.106823746789445 8.73873323334462 11.59757123598357
P 11.506752391671457 15.369113781734226 11.721555262294363
P 7.155734860403745 11.782614937415687 11.461691719690755
P 11.452098152847928 13.203763912330379 11.1160098521297
P 11.933122652645377 9.03813326968796 10.352674204879655
P 8.003294697814429 13.821629532151976 11.644432501958077
P 8.120981108047955 10.313046959716734 12.822203037355541
P 14.059803627025273 13.403655973610736 12.468314211352867
P 10.62905013528318 7.762276562992844 12.780548351416895
P 16.667445086917514 11.262937169442228 13.635282432716942
P 13.028791280684157 10.43125652574121 11.88774203937593
P 10.561436109662289 12.754340740482604 14.05276442553856
P 16.144408629377388 9.588712800561781 12.245213122088492
P 13.38851155302185 15.506897739660563 12.92120561092558
P 13.837076508519072 7.447848920833033 10.728470560633289
P 9.400631377048093 10.746221572827803 14.536532149630164
P 15.686055058262246 13.207240781087991 14.003270648835409
P 14.104787719500274 8.635424369639072 12.702221871198239
P 11.458843279705416 12.26194158268133 15.972963222086312
P 5.687436241335073 12.086073549387487 13.13172937956381
P 11.965901975626037 14.862332319756392 14.52035259177222
P 6.299705764644897 10.08287470611933 14.086062861129461
P 8.697297870904634 14.112835236488179 13.765448468836151
P 7.523589301541797 11.225087449827402 15.635068075129162
P 13.037761042159403 13.661962583679735 15.927690367759789
P 6.893043492690242 13.238187551651476 14.704126352449446
