48
Energy = -247.08511997 eV
P 10.886425472728211 11.853978806363209 5.84932347707127
P 12.524496521227139 10.345649483308197 5.423252696631315
P 14.075705679092732 11.624902895114621 6.142876338904379
P 12.599971832276037 13.259987016117744 6.2403219429614705
P 10.289272160773654 10.650751048582507 7.611083700391742
P 12.078899565486047 9.395589814018209 7.82695184493072
P 14.088262391015245 10.06586358324384 8.51986780969652
P 12.10666080936601 14.104741055319243 8.22591436153576
P 10.463930362231686 15.341064056268543 7.768520550452323
P 9.786608998712833 12.039850853725856 9.256666313205534
P 11.77203510071968 12.830892073334761 10.049349627867619
P 14.776780511983661 8.118860831164158 9.467246391157422
P 13.744458559949623 15.393653917993795 9.054762313383343
P 14.270900066656749 9.918164131528405 10.690928086566183
P 14.771684399329592 13.853952741834208 10.28153892643978
P 8.975346804420036 10.578221527855865 10.739197017152561
P 11.404049000084584 7.606850016902068 8.736702315668625
P 13.180517507944765 6.651268197796472 9.283965278709628
P 10.346714085277837 16.133933798849476 9.773601540193491
P 10.487833089331641 8.941069560229542 11.235945692341067
P 12.432379538604279 16.26050677220084 10.628740411848115
P 12.31594775233181 10.116737386758844 11.83909118139547
P 11.063813479112746 14.560543358271548 11.26192631519902
P 9.351230763206834 12.237864713190769 12.210985156837825
P 15.670145545374922 13.189794394586414 13.241399003836328
P 14.824053060156588 14.889532883387178 12.07926886133018
P 9.091118485966325 14.696888919432805 14.391743793151846
P 12.548942131259476 8.422224404224433 13.291304433552805
P 13.974798609240835 11.767829133507501 13.389380069889963
P 12.688294427406097 17.149316678122368 15.269230718137798
P 10.510710318815482 11.13271875668158 13.71689433828221
P 10.2845269040697 13.510648622594093 15.655127613233406
P 7.9338684098600725 12.823166094658848 13.899095858210657
P 10.31481659743023 8.899299744039784 13.500738578626574
P 10.79916768930299 16.74396523296943 15.64459939329218
P 15.146461795437004 10.433973435480516 14.620534368117399
P 9.127521598431422 11.596091827076602 15.42501507459793
P 15.637618243051778 14.051094833688865 15.287319237273291
P 13.48718266210219 9.052556332029758 15.273612924557238
P 13.456117450970915 14.794470616211948 15.206734337922935
P 12.374771162012262 12.322744161835589 14.990775911936787
P 11.817397292311515 10.314077439620771 16.053341716110623
P 15.636067272124686 12.017712888979249 16.362886545572543
P 10.965879748090735 14.190186655789281 17.659989355776716
P 12.51520845434032 10.996953678852975 18.111914053083296
P 13.194078998814039 14.602094426954812 17.403870003942583
P 10.866939039691378 12.284329149895578 18.733470626669558
P 13.591950040429188 12.484992437962072 16.92455428090868
