48
Energy = -247.75819707 eV
P 12.19653394506052 12.337114729792178 12.905725682242961
P 10.170828437254109 13.118773696071838 13.640019359265905
P 10.026744695955138 15.90169976001455 11.112462342132611
P 6.83502063002163 11.1222737987533 13.697255180046161
P 9.122947648389568 14.356984291721712 8.55646872604133
P 10.333258718961554 13.79920867101162 10.348703428637371
P 11.775154450347657 15.38402146876818 9.75212221581914
P 11.669097962216886 16.02500764191892 12.644578563717781
P 11.194456317402837 14.876673173916293 14.54885470870515
P 15.128957204347305 12.083215117243611 12.67648245150634
P 13.083907152862936 14.830857785707174 11.494685812623539
P 13.158601427414345 13.739513960470234 14.353687930078062
P 16.82833088965758 13.29198553259088 9.942686493818305
P 15.095877017759205 13.073703994211423 8.82603263757777
P 13.88672995434603 14.318654067155068 7.6547669803056415
P 13.207887566859247 12.515963381404637 16.227161682520485
P 11.510981207413439 11.027691976137529 16.1556446616986
P 9.75458408804503 12.261954142981407 15.640200753430543
P 14.15436956834508 10.578206565269607 15.514431682497806
P 15.907191996016877 10.573870102406442 14.078267506539015
P 7.821711107113466 12.104567731480197 11.92706864770798
P 6.3107429550891325 13.23636403989601 10.695209116545564
P 6.031081975635094 11.064534277493914 11.075426438458006
P 9.617790847137497 12.610698278798749 7.14101387674405
P 7.473085166993692 9.03404084564162 12.794152228187473
P 8.145121761782741 11.174388995083694 8.151123934964557
P 9.318545398436326 10.29563325617569 9.90988887923256
P 9.753008521955488 6.893654851520467 11.944883589416737
P 7.3859723743171655 9.298477366694412 10.502651969538837
P 7.240987766034702 13.144431039486737 8.700842597520541
P 9.724828719572377 8.72078189713714 8.303097333790555
P 11.337128391323382 9.806106320651777 7.107946176630564
P 11.41621303338402 8.005268825301021 11.16420268458825
P 8.46922151470921 10.493957439098255 15.21389152168038
P 11.425914999943371 11.801679262518892 8.175223119882729
P 13.095337632176497 12.411935160594423 6.788507885472757
P 13.03930223076986 8.670892013733713 8.170463091552485
P 13.497371830795336 10.28572252615897 9.655139776167658
P 11.407692027755909 7.365937925836516 9.058007079528966
P 15.506037688636956 9.581112651404617 10.512186150244283
P 14.636138168820136 11.159707162819082 7.91556896986358
P 10.14224423850701 7.526040170929063 14.011652197151589
P 12.410774157182646 10.321144132699969 14.14877636806346
P 13.211799312457433 7.361375020765399 12.277496135717941
P 12.359667833044744 7.8888745527859765 14.165730219157593
P 14.439511703830817 9.873417339966423 12.519627351110238
P 16.637417176385707 11.457400330042022 11.138728760755786
P 9.506466341741799 9.597058973529917 13.463830855329446
