48
Energy = -249.30801095 eV
P 11.057667654827627 15.072441030205912 7.7965636632636945
P 6.778772158351485 12.404493549510498 6.489781565616133
P 7.844922133966128 10.384871967129893 6.391965911326607
P 9.966975143666087 10.372395357281432 6.862355080860807
P 10.079215351408099 13.056047497223172 7.79000468674624
P 8.137043920990243 13.993885176601742 7.275620614188456
P 10.183134527449617 16.087203955108553 9.671184564844948
P 12.793092973326198 14.431412532827343 9.078454553883006
P 14.377710237102132 11.576332597261665 9.205896933317927
P 5.642608350048812 11.588167028982816 8.27525521142738
P 7.215864147872618 14.469484899514079 9.264117841404222
P 6.734970656396412 9.581222969842546 8.15936850710495
P 8.971511856356896 14.535077575360404 10.651744671105362
P 10.089516079085499 12.734285036524074 9.985492859205085
P 10.121836229240504 9.197849577867517 8.58231643987347
P 12.132786663427025 15.938470046507035 10.821830650646795
P 14.204962524288437 9.69778008335313 11.676717196227512
P 13.939360374391908 12.986214940604972 7.622768875933194
P 16.322510718231882 10.143559220809195 12.232647436098565
P 13.054459680036741 12.653452353335139 10.937737765455077
P 6.451859410585282 12.536916235388395 10.099604507139613
P 8.26163266950406 9.38860219718327 9.748459805390747
P 16.436126231678323 12.380289386705881 9.693028658733656
P 16.660652655168217 9.998578413948705 14.438616221443551
P 16.653308533195233 12.293854193736035 11.90957825595645
P 8.368458018965802 11.481351658122014 10.592406157003438
P 14.78304520484537 14.990691563260741 8.282879557110316
P 11.963622310461002 14.361508891020316 12.305869700161853
P 14.793258515691473 13.659072213142887 11.887128706376487
P 16.006299720731107 14.518113519846185 10.0810410176589
P 12.46725362917861 10.904958041521095 12.287178256697263
P 14.187411812478764 7.795759364491939 12.707791105175696
P 15.025483928463625 8.518587277602013 14.942985116709325
P 10.408579832388918 8.66449485841966 12.700786988052261
P 14.646844546482434 10.663725912042084 15.08762978477187
P 12.154190986952432 7.545646582932314 13.472188977408901
P 8.034671660658327 11.612836487059178 12.692211881962907
P 13.830159235169969 14.641251080352133 13.483305144953638
P 11.547534475785296 11.841969423649019 14.206359257536992
P 9.78160365330803 10.646521967677865 13.57597411638815
P 12.826105217899046 9.302664864153714 17.156859119806086
P 14.9452091590103 9.789489111643729 17.105265799600996
P 9.11739936377285 7.734662073076822 14.332146604596995
P 12.505853966421103 7.583512645076099 15.709643567288557
P 8.472762605428814 9.80612054705342 15.146079381652996
P 11.622300868414259 11.02293206907823 16.355830094885416
P 9.92119293325603 9.711418890836853 16.87614310813903
P 10.355145081671733 7.576710743160387 16.228071686898847
