49
Energy = -252.99171104 eV
P 7.131810193845033 11.03922725903079 6.316573470149052
P 8.960279223890081 13.928841402737762 5.6811948597521935
P 7.088760790108276 13.294468612033247 6.530318643625384
P 9.277969255275618 10.559788509012083 6.646242509313639
P 10.3299350707442 12.592676861283886 6.676107642836571
P 7.876102139844405 10.61761047851745 8.356574451930655
P 13.958742991518367 12.86733200509159 9.997517273774635
P 12.737205232108824 8.343396157003781 7.922661503729056
P 10.76501513735513 8.898969132498873 8.855104941544475
P 7.659345903557239 13.835768912458246 8.670178732134216
P 9.252389253420858 7.416139411338547 8.116042306713476
P 9.783275950446823 13.240556978783886 8.73270271581413
P 13.557168716351583 10.346609401911707 8.571131943525982
P 9.384320965380416 11.768541576152627 10.466176585712752
P 7.477057050699268 8.494986668376958 8.954062379344816
P 7.212313302753726 12.40974352807683 10.396234809042705
P 14.495538695122391 14.699897737598207 11.330710780339247
P 13.17751290138422 6.822629656968631 9.560595151437433
P 12.277983931930331 11.41993831544665 10.15032384326314
P 11.232499054902922 7.425318663034928 10.51438181938719
P 15.320980366164669 9.626152857579159 9.714648271502078
P 9.694000100380764 5.986416991403261 9.81560637427259
P 13.692697202780513 16.453571244609098 10.400569117662675
P 11.183185643462965 14.978305531188898 9.040385858795538
P 7.805843808636204 15.773268035538708 10.535349608913231
P 14.981717942403423 11.24161153971498 11.215302299936523
P 14.072928413666846 8.252169395810167 11.013399850773508
P 8.040552667087853 6.447863016118232 11.314685994665545
P 12.820153060624158 15.766293272895666 12.256905168101712
P 7.589092937888526 8.600920018615703 11.172136916001712
P 7.66419673674388 14.09593763395572 11.958135284813471
P 13.117692991809236 10.306660093098806 12.10354476775815
P 9.880461766915861 16.369232453528497 10.380533608952264
P 11.073878484819932 9.24863805683383 12.99912727981267
P 11.04953930437453 14.72760222203368 11.251718514620112
P 11.230660339283272 7.064056811622347 13.289997635957407
P 9.695119251525908 13.238897207544056 12.215115120915797
P 14.979701359697984 7.366462256973379 12.691408952889741
P 16.12794508229366 10.896048939988702 13.109158897326168
P 9.165139939500158 6.183223320836393 13.219582079528935
P 12.868369653135522 12.09033873051539 13.475565212472105
P 8.962951639998881 9.901971851460866 12.382756151281257
P 14.822635527267716 12.46140451187448 14.060684023776902
P 14.711838466417227 9.256955227326166 13.702465820749728
P 11.048673134498708 9.64980196515681 15.189513691501805
P 10.541076210699512 7.487629792780043 15.504949688864238
P 8.337299365941137 7.429510158629269 14.893566892126866
P 7.9025779357824195 9.571534842420458 14.300045992410757
P 9.203349331783013 10.72456517881408 15.56778898646893
