49
Energy = -250.92369958 eV
P 10.670523051121757 10.913382304653677 5.871894404006208
P 8.604829877617684 9.974539989562068 6.570489089918937
P 12.208516080180422 10.003363821333123 7.2575666657529885
P 14.513704719993607 9.608323864691132 6.88997855061771
P 11.323462913968317 13.005215609724713 6.45932997391499
P 11.53602038447054 7.829556521488309 7.294982845449695
P 9.91592354078013 14.15924139095288 7.812542864307939
P 14.531009231370007 11.765459103873868 6.240850468741055
P 8.004805240039596 10.819283470290982 8.683540655702258
P 9.467626718915959 8.381258435457264 7.866327426030556
P 10.084687036684514 10.200729518337402 8.9608693896543
P 9.759467660219437 13.130027094680464 9.814280111532291
P 7.693155391514093 7.301001061971897 10.199804001709952
P 13.017370717144217 12.335537007925812 7.74878968280085
P 6.734241557931871 9.219768647370062 9.912114423052406
P 11.429399239855234 15.519502853467355 8.67269708328101
P 14.866342854016473 10.198467354148805 8.944820543410913
P 11.741976134370738 14.038584574555925 10.269830044204467
P 12.125194614599758 7.872528387232461 9.55938098211997
P 15.915864281918298 12.974243724804914 7.483896468992516
P 14.307859862701633 14.041324978424539 8.310411942769868
P 10.884837463336304 9.246061909775618 10.777680724728839
P 8.388875152283504 14.817453606577581 10.360778628857945
P 14.337379377094315 8.187216895776738 9.638689891322976
P 14.143729996753768 10.261750271970763 12.1281572178292
P 12.30586075021544 6.361774751799098 11.210173156175475
P 9.358612589721536 15.900469977665013 12.040825201401681
P 11.533133453660223 15.1812105107717 12.146679493551826
P 7.009673480276339 13.78197050257879 11.846175981951793
P 6.727665227387878 10.095812018965768 12.006840619333085
P 14.11282062419508 8.063232581715393 11.877412944425016
P 9.2965076303379 7.844663471292597 11.523134367464293
P 12.272766306785183 11.45036980848002 11.70898335783161
P 13.451766441934456 12.795807695229508 13.080363389057268
P 10.440467117273553 6.084004217252771 12.140983265194897
P 8.166492394312037 11.874191513291438 12.19020205623325
P 10.816616539357137 10.592291749726085 13.129032467681453
P 14.166912248958154 10.984111997993338 14.268968610900243
P 8.00309877293834 14.92317669924745 13.464728502929002
P 12.237080423454758 10.032249011315072 14.794785245386256
P 11.831118853100335 13.98067903734247 14.042494322075065
P 7.850611633511827 8.553208942615587 13.16124396835502
P 10.25760150462648 7.724649612570524 15.258150696517692
P 12.367450069030756 7.940591986744251 15.184298550481595
P 7.838165887025894 10.033922388485362 14.879746598430225
P 10.339476305951084 12.262736412095723 14.461713729980676
P 11.03911810166699 11.165743356465754 16.308802529195926
P 8.09976817015377 12.241432503880274 14.389227126298861
P 9.450504508995435 9.507968987178632 16.335421872190054
