49
Energy = -251.75656499 eV
P 7.188906304793183 14.173386856268953 12.988256052913412
P 11.160658594712508 6.917373103014763 14.165356085083447
P 10.168274017013925 10.435144822061357 12.634988148291828
P 9.451262424375647 7.818760178599808 15.002374330014591
P 10.900894346033828 15.27130527793772 14.211796847797896
P 9.725195420723512 9.646253363849555 10.567220377985743
P 11.197353827145918 7.562106219471774 12.18056340637545
P 8.227115924977928 8.210023489329371 11.445247476390241
P 6.747827477553984 11.104205533877185 12.968721570399609
P 8.596171432049339 9.097199928407004 13.478393749660306
P 6.672576447828923 9.831816503702449 11.103425574788464
P 8.710715767764091 12.33876414626663 12.640246221287846
P 10.769933082171057 14.214974457499617 9.974495558773572
P 6.008449071181158 12.82707372626108 11.664701554924456
P 8.00063838738106 12.86042603452134 10.487625030586083
P 11.072908534389763 8.487111258152474 9.049209550929614
P 8.03975264498612 10.690882145256856 9.535026653310014
P 9.183642239951256 13.674838954445987 8.563591504524984
P 10.000649959962143 15.538855500290195 11.467300091940814
P 7.905726283905147 15.117198181979893 11.115021225965844
P 12.65883876802024 15.087645700191194 9.18098802101112
P 9.893185948611007 11.870820524370295 7.656358888294753
P 11.753892698385721 11.773980448170176 8.771579517619427
P 12.370700819091192 9.851372984683707 7.805305443888557
P 10.779353478506719 13.23853804913892 13.290764312005768
P 10.797468776606124 12.382998560736896 15.39724065748237
P 11.755243652658015 14.287460616250431 16.13317539129982
P 12.978404010566978 16.578701104587044 11.328504123255295
P 15.000370316408235 12.846187363711852 8.801044697809994
P 14.214020428605782 14.208502074459199 10.462741964263872
P 14.15678911470654 14.033346472950626 13.475051984558368
P 16.499810134767362 13.101448141028271 13.655062293324624
P 17.239999601449863 12.571797148531806 11.76547525652523
P 13.953009950724553 14.097754750961121 15.69279790652712
P 12.918044270751945 15.8738896152662 13.399131193260663
P 15.44295384994292 11.24940958084317 14.362678723981073
P 15.084309706473455 16.025254285991966 11.291615276282588
P 13.541516395511639 11.80617666037094 13.340857141235027
P 14.39857710932464 9.187496251584545 8.75104325757522
P 14.765347074653834 10.989287925931123 10.030216493011629
P 14.223227417024725 11.926957940900339 16.190232001062157
P 16.180221303594806 8.667921980432833 11.511163347793005
P 16.767503213352622 10.600203414764888 10.773699829491829
P 13.127914520854386 10.576500271997373 11.512725765632334
P 14.268622133494171 8.924785175307036 12.550873917221601
P 13.049196904884825 7.585546671372239 9.53926534341378
P 13.287011469086757 7.1000610344904445 11.700312577491248
P 13.094591835454745 13.210317700125795 7.719438901158162
P 12.497520170214003 10.954235623864474 15.093392761578437
