49
Energy = -253.06861358 eV
P 12.140195835065263 11.493409734632065 7.29053638498394
P 13.485912713048089 9.780444460892658 6.541095792809785
P 12.6841056246368 7.824558060501589 6.84965527892699
P 13.670343855275357 15.141529009830062 7.516881670200032
P 12.004654923683189 16.15230184373176 6.6770354509010605
P 9.941593299521447 11.064202630593398 7.509076876113443
P 14.886502108489823 10.616151150612167 8.367216032731656
P 9.437246207178621 8.86875112104849 7.774048420397321
P 10.45293631436403 16.382945701061224 8.07017752801019
P 6.660486537170337 12.354635323439853 8.964515530433331
P 11.152792630102654 7.590221529294401 8.40247140243651
P 12.873001561823552 10.690842299174554 9.19509482398819
P 15.622384178164848 9.0464047178753 9.764976026754237
P 14.142516240722356 7.377506081016224 9.638342669785484
P 13.266108489649048 14.676670898436216 9.52712484935481
P 8.64641370592502 13.09065290619428 9.591592132845078
P 12.716992599358354 11.98128564668756 10.980072418056825
P 11.253830364778416 15.284050752201777 9.672082861796673
P 9.968904271116742 11.339390449241687 9.777945848601448
P 12.211298373429376 8.351342501189885 10.218129249068763
P 8.65076345717927 9.500225698657042 9.777732186758604
P 6.550686795400653 10.310846228047609 9.669455866608509
P 12.228836566232118 6.6544415908511345 11.899719138405594
P 14.491283344405932 6.571312966243107 11.781294758338465
P 14.671117676147169 9.800837199964048 11.681008620798826
P 7.6401406298089505 13.88458570469878 11.393565841352629
P 9.058127639050332 10.975628678677872 12.654804691541418
P 11.220031506732175 13.742171146542557 12.911215162709436
P 12.507751776251128 9.91406930410769 12.178511454398777
P 14.87119004227996 12.048081128934253 11.763286479894717
P 15.34256489594575 8.222383543170215 13.080655863132357
P 6.14815734901385 10.533705337900633 11.861460594891348
P 10.904824247016041 15.803875223958629 11.823457956923294
P 11.835479538030315 8.071106244145547 13.492970149107778
P 8.786146092097317 15.576720256666412 12.581954387271022
P 8.67321069162129 7.947514186605347 11.228023482246098
P 7.27796274796636 12.242654197023592 12.846413224475485
P 7.767347293448404 9.166124459389449 12.815972969985433
P 13.710850891521922 8.533436026571446 14.585319303906532
P 10.279976679460221 11.591461265623584 14.410525276356779
P 14.458458106667475 12.196545754575771 13.978175643865022
P 10.3168377673735 15.238244409063105 14.26498270285685
P 13.148882635193585 14.026655775594428 14.018346626027897
P 8.986049319355024 12.45877053993319 15.947927365628146
P 12.888147473807436 10.682470872733903 14.317716138127114
P 10.298351687535584 10.731209827848934 16.461069787809542
P 12.410535449333738 13.647317343282692 16.198486973351095
P 12.379998935047922 11.505376191737511 16.728134057923576
P 10.247994990145449 14.284858137368431 16.28966810468497
