49
Energy = -252.03931158 eV
P 10.235477066594264 7.0357726811564945 4.340131982185541
P 8.56604070261295 9.245084058584455 2.1867604321563117
P 8.292523277423609 6.062414514811284 3.7396356631199694
P 6.268037810480269 7.118983456515073 3.5748544814960614
P 5.815358364047075 4.935209459944553 4.195722062908353
P 7.122210913692327 10.336384966506865 3.1905950373580767
P 10.482731245571152 9.058945466824893 3.329043522399501
P 10.388624468501675 5.045802922897269 6.785327774566146
P 10.051259830960008 10.917065332291703 4.423333078696781
P 7.82943924730587 2.227489219323591 7.805741702831987
P 3.634333046655863 7.091170398665075 5.052284434231163
P 4.42658902623603 9.795234212771629 5.906479078035993
P 9.847208386033941 7.234751579813416 6.54370289832706
P 8.022315133800625 10.660914305052382 5.172816783126681
P 5.619165413008996 7.8191802557367325 5.653439017013117
P 11.97459267805281 7.120935024773438 7.336798625541519
P 3.919522599100018 4.904528909198792 5.469014594548965
P 7.801070680553965 12.736615091200807 5.837601488622986
P 11.136955079774669 11.526562948454458 6.206407079979627
P 8.713113673506248 3.605740649636164 6.228637256266069
P 2.6881683317861946 8.478325550571322 6.591768399377681
P 9.682221197239606 13.213481146630635 6.573126785708701
P 7.418564518429044 5.401712641305995 5.730442288099051
P 12.35059482978081 9.056607613486685 8.492214929552548
P 3.177808599920913 5.926055817650972 8.563010135628446
P 4.184268297059801 11.159553666529005 9.267882254834982
P 4.948430013424069 5.232088709405098 7.412270438984063
P 5.279791316695861 9.720894874542571 8.004828484305273
P 11.735774143786394 8.051118347857996 10.35392005400761
P 4.496345732482213 3.400576674835486 8.637281661243598
P 6.2591215922087 11.659651802095647 8.66022009740117
P 9.551296626123621 2.392370190280233 9.228451903339923
P 10.977978547650796 11.846620435042047 9.71387228163077
P 3.1723952269856497 8.058673289538842 8.728807130651578
P 7.399191453860513 4.973423500748582 9.627244208456265
P 9.77073900544535 7.281375045582102 9.66546961406603
P 6.695533512949035 8.636086621554217 10.233582608070687
P 11.070650478236058 5.587306319022486 8.868135722969784
P 10.604123519988233 10.439177932709935 8.159639823592943
P 6.518317915463288 2.9613385007710202 9.428999994340941
P 9.401598607327504 10.408153075768347 10.152406157651956
P 3.937390743382167 4.7800334987356825 10.354636319552489
P 5.8921178829685195 10.73010839215322 10.653133093858603
P 9.227646728318643 4.023540162275197 10.479441226307454
P 10.537248145771914 9.324832878688396 11.786193426981352
P 9.447815250347428 7.317379701028465 11.943050089798929
P 5.607976136933949 7.423203325713268 11.75149651461479
P 5.963375290199446 5.269595346720608 11.315755044477353
P 7.508334329796286 8.419316103069537 12.29577893555485
