49
Energy = -251.0531624 eV
P 11.407443950132597 9.17544683717228 6.759143195304677
P 12.453421946032147 12.469486696095174 7.287710585474899
P 8.756120980527223 11.697207555127328 7.1451109849051955
P 9.794823632516442 9.946560398520917 7.941697026416743
P 13.069069411505255 10.313764027218175 7.564521935229941
P 10.48712002210808 12.79098943804713 8.313664949915118
P 8.507309602254729 8.248541759804711 8.486880170587751
P 8.727764947652762 14.46696382070347 9.822364589111272
P 7.981416479140842 11.681733101039853 9.44085641676894
P 12.051814549196584 7.889832499429724 9.73580464922539
P 13.592931709410044 13.268903192153422 9.128636131444459
P 16.06378124241234 10.543131155860744 9.002877528721745
P 12.716004216143793 10.073230345129783 9.778679675592866
P 9.836692829914735 7.516135242588053 10.242404514256357
P 6.886461347115767 9.721665537357831 9.170420701795422
P 10.167176069921263 11.148461623664254 9.867686694428304
P 13.054423454339808 6.851869571582895 11.35256158587918
P 6.819476021794231 12.471953422405663 11.281233720896399
P 10.705269276438468 15.484878053397207 9.922910189347673
P 8.719193954074429 13.62398813479644 11.823980763298485
P 9.275315425799398 9.281440276742714 11.438708781140859
P 14.214352190127258 15.37267452359432 8.93788392035492
P 14.798834190047323 9.98294502464227 10.697490467473443
P 17.043008482292905 11.978137985028358 10.164838578799815
P 15.300342239746653 12.068639999482581 11.48070029644989
P 10.766794328725947 16.535447133035234 11.884850266008845
P 11.786044201108965 13.61325190998933 10.260453469886247
P 16.564655226221188 12.168490706951562 13.349973504363938
P 9.191176191821917 15.429196296988124 13.127082810156214
P 9.947656224276196 11.969570853189444 12.693100739957696
P 10.959326665208454 9.480255185247932 12.837757697435876
P 14.246677703256536 16.245061114633867 10.86546495157154
P 6.340090250784238 10.72048299867912 12.625587977960121
P 7.493415766075756 8.816972670135204 12.711233115441262
P 5.9311376354903045 9.10919425955638 11.134653809756765
P 12.881488248497542 16.138086807673343 12.587426649468
P 12.021105892624597 12.557355424113767 12.115660050810789
P 11.24817876301081 6.077017233924496 14.342874687816638
P 12.181364573929905 7.659515373967741 13.127049458782684
P 15.796125374544793 10.82184469603665 14.909564198699798
P 15.535819902730507 13.05107354674598 15.12185994314863
P 9.670551944675593 12.474217753475397 14.770835028614455
P 10.246319611441923 7.251727405892395 15.68908787899965
P 13.719850514524365 10.749454979536791 13.982451133428535
P 10.440923293854407 14.50355936237112 14.717415113030462
P 12.364498948836621 14.089508279061715 13.635188707675722
P 12.841496442831232 9.005005990588636 15.084429707372635
P 13.308410920938478 12.635887284313831 15.142219777822332
P 10.662503136137556 9.404422444501876 15.070191201165025
