49
Energy = -235.17495131 eV
P 12.921716717328161 9.992669289747928 12.350760513902761
P 15.904022225941649 11.246902158849961 12.666031535155772
P 11.816323738321346 14.828547939757922 18.735658810980823
P 11.941411878995003 12.713556956612344 19.991008968110823
P 11.14840713660809 11.145442523994605 18.21640212583783
P 11.701341094779206 18.842151674351065 17.087186021518125
P 10.229372319389753 20.763562026651993 12.108854753658965
P 9.419650244398559 16.951330191251106 8.453083762332307
P 20.734547871730648 10.421858069235387 14.826735782725676
P 17.103538117217465 16.495612049577016 9.850323431660874
P 20.319497522810863 20.53977685227536 22.967148243674504
P 18.055026863538714 14.021879941324658 20.183549492098106
P 18.214956461307537 11.414001721459917 13.094446875110643
P 18.979297196584714 13.556126283649176 18.25392720351429
P 12.644487194712346 22.724450042737047 18.66171759958467
P 20.268474175939392 16.21961641075059 11.06255496214275
P 19.797074728289747 14.88396890481487 21.254960040122096
P 9.608166279491353 15.093692325653686 9.352129093299204
P 19.127156029192605 18.803829996225453 23.238923604586745
P 18.334754857366626 16.577797831823418 21.18121943948551
P 12.04518491400227 19.215305082349243 19.147474621752437
P 12.126484753743847 21.094268608699036 17.526227358578968
P 19.63485600138232 12.909772164548352 12.831568775347034
P 11.021095241139543 15.993244916052568 10.951132920717939
P 16.777057356896442 23.65088951055628 13.79829686355683
P 20.21745575638473 11.183177625625671 16.72342684977783
P 18.988961025728 14.483450245755197 11.521751522305486
P 17.003833211778367 14.763026215608383 11.02048612174766
P 21.973613858103253 11.705534990370733 17.66474275654787
P 14.051672138536 8.657507016356938 13.557936043089134
P 13.983583775962417 11.67594662087858 11.745647274726018
P 10.256021729592312 15.59304502329312 15.635859896929507
P 11.16820539155129 16.434181677056888 17.297589495696563
P 12.545909616752215 21.081224950024634 20.05108751379355
P 20.691294577417093 14.118995879001995 19.284876964498483
P 10.395415364961123 20.29677913631589 13.962378628754388
P 22.795926567984417 10.401478395327981 14.676335220283438
P 11.371501242079098 13.13453946075117 17.479717343313567
P 11.429642591671024 10.734933107637497 20.32035927791391
P 16.832608618415804 15.776342799572458 19.977436143469795
P 22.200425228054655 16.58866616113735 11.450760161389933
P 10.35770205983151 17.987032430131816 10.150265994229798
P 10.606959890899361 17.380844134506226 12.48613649913369
P 10.875891221401993 17.33875165679596 14.552576117665689
P 23.596169949768573 11.207685491785291 16.43119444078642
P 18.9826445480067 17.407625616212812 9.81358954118606
P 18.113028096329177 20.693314379991495 23.076402644165945
P 15.970362345948457 9.44090478985638 13.746624754213036
P 17.854674610877094 24.771363936003375 14.87902634783233
