49
Energy = -253.91785468 eV
P 8.72247346502787 8.41759941651419 7.479149600716831
P 15.34727423339306 12.70426953900468 7.8120066960618075
P 8.802518150927423 10.58636889869627 6.868111202306704
P 11.729388478215768 12.692365140352601 6.822735343435614
P 14.398103854115531 14.701994703835318 7.85215721774765
P 6.654809539923696 7.782114522396298 8.179028224074209
P 16.29786993229324 12.31003831425548 9.86112469594854
P 8.905420989690914 11.865476518299952 8.684923712117527
P 10.424564800107555 7.934347468679115 8.825615083407609
P 12.364343679764163 9.849702122892564 10.569226969988287
P 10.704122154990658 14.587765607686189 7.540842570335705
P 14.809696506310244 10.72695096279031 10.330892276397487
P 8.602390341876134 14.017925574132887 8.047785632804674
P 5.617945618858336 8.793546800834536 9.773531473393742
P 7.441501438744612 11.428152423356075 10.2307178736989
P 14.677365344708278 15.623137093537625 9.903352257498378
P 7.427725941406363 5.980231298885527 9.287324632064195
P 9.70320169798577 5.852023612456129 9.270639095548809
P 13.233278745412473 12.934417918235166 8.495152427736091
P 10.792277353463401 10.960999396908196 7.9034556336276305
P 15.80509662465398 14.148858153644403 11.117950895960233
P 7.478133233057637 9.008233844508728 10.862106762904986
P 10.248832649084656 9.21144492055314 10.649705089770983
P 7.36710469493769 6.719755685764296 11.38044972355514
P 9.480854831894744 5.8326136041535666 11.511611343574446
P 8.999095578886696 15.245978019311437 9.937981893609638
P 11.886704371079972 12.544601663540101 11.29399748015384
P 11.107989789016539 14.482322967791614 9.737226858799755
P 12.598243210011502 15.852197405673007 10.787438823427076
P 13.598255782927234 11.418050944318345 12.136699231845142
P 13.427440250560142 7.9435621167028305 10.88367761187405
P 15.373495516398394 8.914489262966086 11.607697416775515
P 10.428722961927273 7.702933017620219 12.26461432280068
P 8.46093445197711 12.525982264519914 11.855111918401132
P 7.154075270156049 9.341567948820638 13.063333170078216
P 8.06769827106971 14.647096902847887 11.790820385053026
P 10.348418894897089 11.593992421981598 12.504594597574405
P 14.560855148359018 13.515095231884448 12.849446367911863
P 12.557229931924489 14.3860488159892 12.513035363576387
P 14.685862448339307 9.931826938497734 13.480964646949474
P 12.61046165897673 7.08625694668848 12.774094942511258
P 7.324969175280712 11.50169919311843 13.57122898509984
P 8.772566108999072 8.061099791295035 13.922205662363142
P 13.273661252824585 8.507082912336204 14.412574916524402
P 10.40357418714834 12.743851803351623 14.461577065941505
P 8.77404062234669 11.371606706035994 15.314556400763154
P 12.23729617806177 11.78651606334126 15.183977870520676
P 11.620474836238207 9.995998176093083 14.15693394321972
P 9.825018447763817 9.36318758891789 15.369992335566073
