5
Energy = -22.29260528 eV
P 11.753538361121205 9.19469307548864 7.904739558248043
P 10.237552476827918 9.365958439535088 9.06641320526012
P 8.715067517981028 9.66879305403326 10.41972514370273
P 6.935101850590389 8.710219768803228 9.5158227878474
P 7.046806652922408 7.748402521582858 7.781366164384657
