5
Energy = -23.48401903 eV
P 10.116625073060606 10.812895691000458 10.054010112725202
P 8.875024048298114 9.885840667780984 8.47070142495806
P 8.11176852421934 10.854950432352123 10.34410096897739
P 8.87965621175369 7.713924385121234 9.183044455933882
P 9.95127859914805 6.666741280224996 7.8824954938851315
