5
Energy = -23.49422118 eV
P 9.223947508429298 9.241619275298023 9.139095140433412
P 8.016674677454699 7.3352167336769405 8.82613228721691
P 8.23053089787577 6.319995096031416 10.523867007748358
P 9.755536640150495 9.78295086130121 7.034208153388307
P 8.103809497525663 10.650717255128333 7.807196632648817
