5
Energy = -22.90082138 eV
P 8.323540788796022 7.90142005281168 10.158186049083648
P 6.717000439637202 7.642359433241996 8.852189475544682
P 7.348944748033993 9.612265895957062 9.064381859865106
P 12.231017139794655 11.87207117780996 9.985601902089401
P 12.606163426935256 10.1985499833767 9.166307256614695
