5
Energy = -22.96652409 eV
P 9.634488620840667 10.986968201050386 9.899563414197187
P 9.27354172595041 7.792088907552454 5.970059409225664
P 8.681223781667216 7.267346529738579 7.704595444864837
P 8.26967890855138 9.426310780933246 10.20981480882461
P 9.711603002732787 10.13487479204231 11.786487006905862
