5
Energy = -22.89261349 eV
P 10.399585516434461 10.037163532098706 14.91090713174037
P 11.857428534959595 9.828245483119083 7.474574362600241
P 10.517063038067299 11.798042046555885 13.792704347846252
P 10.361747569609596 10.160039066352901 6.347837701336414
P 9.448462217767256 10.266204426092733 12.882755996819803
