5
Energy = -23.13043713 eV
P 10.661118929992497 9.009967966920417 9.289107589327527
P 8.716739092275018 8.665631753761835 8.966504463829805
P 7.856176507421548 6.691348687322305 8.842633070667247
P 6.961332112022804 7.681503820422276 7.1811481656929415
P 7.559941410778209 9.706855824063243 7.475914762972794
