5
Energy = -21.54428145 eV
P 9.06686805683832 6.819359439693006 9.048956889837605
P 7.080948790457858 6.434512155467657 8.880449166090418
P 7.880586813971936 8.184395241333926 7.7237154553234575
P 7.436340028094917 10.117461070274645 8.352485638487032
P 8.149880008349674 8.03549241551018 5.665863661978059
