50
Energy = -255.82032695 eV
P 9.792670898981656 12.350617843481377 4.004437952657439
P 7.774382913504196 11.732864926936765 4.220642809703415
P 9.376197750985662 10.209711061526013 4.511885512105341
P 13.632451815935301 7.864310308960527 5.311076108711425
P 6.550006538819779 7.6298936787398315 5.857295055828554
P 10.030371169545429 13.266229728835558 6.30478315657526
P 13.51150719125628 9.995021027177472 5.472630128484159
P 11.497727399637053 6.963009463108041 5.2483313400177165
P 5.671422327005696 10.385449345109661 6.902571677445125
P 8.07946647127216 12.258242427904452 6.622726816987801
P 9.39014994709433 10.282526990939187 6.784121552374159
P 13.992918890222759 6.764202601498639 7.266141091035716
P 12.365504782981482 5.35604099336461 6.62430563762703
P 5.067239005169945 8.229763004225536 7.488722974117407
P 7.251938021083082 5.713884056275981 6.737628189316267
P 11.938913684314864 12.312958110453389 7.097087076863843
P 10.785492788232379 8.411055720822752 6.750150703768785
P 7.49802469859543 9.170059023247006 7.129495103368022
P 9.710120188617756 14.282827007912317 8.426317920336944
P 12.426327531753678 10.084598711247724 7.29256428509805
P 9.107496694780556 5.655350663391363 8.041510622470495
P 8.470790068644373 12.536366494440763 8.830244419348299
P 12.31637949516453 6.245898457932597 8.641422719519708
P 10.077952442004074 11.419772962490955 9.962212614047454
P 5.057007906036927 11.542584515643965 8.690187893080934
P 6.76078489789305 8.251543136912746 9.021251728372565
P 14.42265952033062 9.115785125582034 11.029041600718992
P 13.88602030314212 10.954457784928316 10.409737793194997
P 7.118415884376579 6.03508017059601 8.959892310347184
P 6.500065737222509 12.455283862025246 9.90381809714457
P 11.47294912562626 13.008038765810497 9.181112304351565
P 10.380919693989945 7.435630103051972 8.635685976800474
P 11.545968926013765 9.821534281459028 12.60153162288021
P 7.361212104227904 11.077050567438649 11.715923251458397
P 5.544613861887147 9.782263787545123 12.291223334803915
P 10.43084848830927 5.364675562293935 11.385309317594393
P 6.1153698642316465 7.679123992722354 12.550637858574488
P 11.670941696191738 6.876983404414604 12.233116024981173
P 8.449425346651202 5.4080913322987785 12.089410575349778
P 9.593618620956688 12.752928700766912 11.699778285790108
P 13.680238970412676 10.526615491270173 12.589230132374153
P 8.373248699926771 7.416238310992132 12.94611379398105
P 10.542532258570985 11.679804393554926 13.340710553688563
P 7.221779223084442 12.259130489893973 13.565807266172351
P 10.7319159619626 7.1366871148321875 14.141999968944734
P 11.25875133426608 9.104331668714421 14.688366131140896
P 5.672359770569704 10.692695971572787 14.35252061919845
P 8.639178415814555 10.508011272300864 13.625092564544973
P 6.934950874034213 7.471526391267856 14.624868744328886
P 7.364807372319597 9.569286765737543 15.245364356024629
