50
Energy = -257.59345546 eV
P 8.241557149468065 11.03679137033101 14.654977800531404
P 8.677431296377081 9.361196704950679 13.241606197042742
P 10.199856985035424 6.83350584034274 11.005370590629315
P 7.996042373395106 6.556345009161461 10.947514598686839
P 6.994828434321374 12.551267413490303 13.609994864256626
P 9.81428884410768 12.68871459238041 14.786188452835773
P 8.322208843930067 4.275103029141904 11.537392801396429
P 12.678601070776478 8.867604228523984 14.020402920107927
P 10.402139248778532 12.446987149800544 12.672605638696313
P 6.84276715032738 5.722288368478997 9.286839484972377
P 10.337800541281036 4.529616134955871 10.872564656359101
P 8.759625659039896 13.8563934364883 13.14580810085986
P 6.549052677056937 9.308070998635563 12.558479840972623
P 13.478344162118734 10.769672313431341 14.774376717791942
P 7.4743403088470775 8.789404388960383 10.56873245490566
P 13.307516833086748 5.965775425941579 10.137454219684138
P 9.44372134556002 9.488914636822829 11.123378810200498
P 9.673265733475032 5.733554702376292 7.268831604254574
P 14.779300087598848 9.412406497076514 13.633424914125724
P 6.051431969122842 11.433084710410501 11.886571865472943
P 7.651994731465039 3.6722621413409566 9.263661547360721
P 12.895994114201331 6.241143115593821 8.026422974319306
P 11.74957525198105 14.251936109016883 12.369104961229915
P 9.751745327502487 3.9489514895414315 8.556567135445139
P 13.165532622688037 10.493883768717248 12.613978944061202
P 14.14843330776051 8.20840371963592 7.616089535524562
P 13.482585896313504 13.309695477336337 11.310530767674626
P 7.007735880033296 11.461878790126734 9.899279462135
P 11.882256208272981 7.429339893013405 9.552968475689665
P 6.918056634975266 4.111883462198915 6.872016324643466
P 10.945942279834666 9.083844875835753 6.034865376506106
P 13.062854332574192 9.429215653611966 9.076212916190842
P 8.136101325069115 14.194406994506659 9.048310238257404
P 8.985070504764034 3.834078855833901 6.27890107066066
P 7.4669821003463595 6.253920686245191 7.2507545707183905
P 6.21568827142032 13.145662627431884 8.682476847739267
P 9.13183875077926 12.199840291952471 9.831084888183671
P 9.224650284302284 9.243308364074924 7.464498801315233
P 11.93568580205561 13.993009462400023 10.165387396453953
P 12.870602198653977 9.885073604502967 6.918157855408549
P 10.986012850800728 12.299496993854675 6.803642333852646
P 5.480908005340248 11.428872983752221 6.371196662179616
P 8.340031792876033 14.414011305278228 6.82349219290129
P 5.90737173998743 9.41252708083038 6.468712845630942
P 7.952095244529892 9.26605197834226 5.582689094200647
P 9.215920306217113 11.44006581905879 7.79581924477246
P 10.64746521789383 11.055712172246553 4.977819523764397
P 10.340152588361676 14.290623279867324 6.119280975683119
P 7.4987644478170346 12.335504501814624 6.604498486471872
P 8.399025707210328 11.254218901969965 4.744096365154798
