50
Energy = -256.90355071 eV
P 12.45400541707456 3.397987958893115 7.661542311047727
P 13.170323093136378 5.301169420873001 8.545558190074123
P 11.081358438838802 8.650480018206276 7.397814544125248
P 13.08886363459866 9.268941401665018 8.060731621725653
P 10.54272469404727 4.4947324452659485 7.1603426406223605
P 12.53937611505645 11.362858465983514 7.332587135224549
P 11.430731336651522 8.668893554348484 5.178824476191597
P 9.457733652184748 7.897004823614018 4.358913206052183
P 12.855906493655631 12.491700370832929 9.12791462651661
P 10.16601273089791 13.272444238731861 7.145691089003698
P 8.519835229217348 9.891210287261414 4.448138508670518
P 13.888656966233201 9.381285423932518 11.432931497566752
P 10.526397423717466 10.762455441181336 4.960239149657374
P 12.07950406955961 3.8889418556554474 9.821058272986214
P 12.463587298088047 7.646888792624803 11.121496559212295
P 8.642831231672949 3.4815515265674435 7.370948988770225
P 10.948170924489094 5.669696150403087 9.037037718973648
P 8.122873317283869 13.88258694538915 7.610925983997532
P 12.139872951259033 9.583134958063859 10.08482875131971
P 11.287222704294875 13.933109463372094 8.850561618737927
P 6.792583569283671 5.508712557275819 6.264387071486865
P 8.156424668435022 7.257391634969445 6.156144628752066
P 10.248061839188148 10.895985669124341 7.219118946907592
P 6.168512481151857 7.464523584914136 5.393844990514544
P 12.346254629860075 12.669423676009583 12.46161858707332
P 13.251963527290131 10.684470988507403 13.181530825851388
P 8.988761725172886 8.856171886699068 11.573746411366221
P 10.522098441076833 7.334874016753205 12.299642888277617
P 8.084815010431317 14.351356517316564 9.83289666905722
P 6.848486951691183 12.007679400066086 7.2869251776771
P 8.1948130049103 4.727571361118711 8.998868778230646
P 10.561380083203511 8.34014826701071 14.301174302776625
P 7.433315512485639 10.83523411533646 9.065079393456564
P 10.339576662951188 12.108814046135983 11.59310421521663
P 10.14731007987712 14.241039764710093 10.745553753644252
P 11.128378584277726 10.209586515420332 13.172696322241865
P 7.864100196405059 10.014722152870558 6.905583676596483
P 5.852296990815712 8.792868068409422 7.343215336469417
P 6.153624301601342 5.509217236402543 8.438342047911624
P 6.841941294724245 7.5968521766504 8.971279816936542
P 7.369991199331336 7.693804116398752 12.528310492537337
P 6.343435374635781 14.214392527946961 12.703358941787844
P 6.553384643068048 13.106572308035119 10.841393095583532
P 8.495599283759262 9.17903606441831 13.754997866361508
P 10.602114176237077 12.332274805561406 13.816636655121762
P 5.287506525779728 10.34428169069589 9.033502473478523
P 6.997679728759714 11.293752275251286 12.178314542060697
P 5.109230389084109 8.433483173046218 10.204410231674116
P 5.800220969209083 9.27602244444477 12.178055506323389
P 5.951011578320793 12.416025809581793 13.705419184629797
