51
Energy = -254.64286982 eV
P 7.405631077007381 7.4247774045176005 3.90657707060487
P 8.330202246344427 4.026337406848704 5.264570600754073
P 9.43414381535221 8.59505306842952 3.7088692433956716
P 9.813241083536722 6.0926190946875565 4.053402955083878
P 6.17186946175317 8.857084897274417 5.202730558633706
P 5.20742391652057 6.202925103579448 6.88306369485494
P 11.232190325467926 7.669113218628129 4.603268424960929
P 8.280128569586191 11.303337140738812 5.215739489257957
P 6.159189745967568 11.200544348170835 5.095475809944983
P 3.276987474307947 7.395812740916949 7.100252738507739
P 8.360087297392445 9.182610955431128 5.669381718501729
P 11.913789862657353 10.50015430368359 5.733063320629369
P 8.359839903733006 6.208191935626753 5.704553075478895
P 9.88107673832551 4.2593325311833095 6.70516857496544
P 6.852292878554837 3.4007653823017745 7.735601410045088
P 11.308505710934295 7.520226567660687 6.79717289343655
P 11.834940399116297 5.342292193579752 6.29659641997746
P 3.8896156441276464 9.63322417886558 6.913127403392229
P 5.641126177103596 8.339339063151144 7.51460096634213
P 4.298054023927821 5.390038632967969 8.733757259147621
P 11.651771067310039 12.399773340829578 6.794064808933315
P 7.61053450982941 12.890807302728776 8.155171242443888
P 13.087174762349061 8.82036329719287 7.029270153212065
P 10.218143513904362 10.79571660407798 7.170167127351049
P 5.621771901996035 12.568935337757939 7.194827148516151
P 10.43409132227764 12.372681695173045 10.15776645457142
P 6.710951469030285 10.819662135274507 7.97455195763765
P 11.41556730667791 9.24379351479097 10.428988518315366
P 11.731603126640302 11.063532221890169 8.850280135822244
P 13.092360268267303 8.562632179432596 9.24603776400783
P 12.242770062127834 4.614495222407441 8.35379381171595
P 3.439619673133393 9.942977472372062 9.110274730837899
P 5.392412859419551 10.601934272594468 9.764577501261826
P 7.834821510571548 12.84231453332061 10.419702279577402
P 10.58027214602997 5.89924780258516 9.134516293092396
P 8.837056116582637 3.5310323248372173 8.731279527098009
P 12.691247709847577 6.419012382453159 9.800565673697045
P 3.762928628771467 7.557220031349088 9.452694214792484
P 7.540485413373977 5.259522094223009 9.228203644182232
P 5.867586153761075 3.985184942033362 9.696031216677621
P 9.408210664685745 8.538710951029326 9.67235552247874
P 9.03230136565951 10.806957880070856 10.728681443360038
P 5.908215872250034 12.19363324446199 11.27303232478741
P 11.026665760907706 5.684688420229397 11.263349809667055
P 5.24403582918288 8.333524864915649 12.848030903038417
P 7.467958324349858 10.873184790335241 12.338278103898155
P 7.95647285398076 5.935611936110455 11.843838005569175
P 9.599431064082182 7.381363723181416 11.665312884672526
P 5.2397139527556815 7.071428473977851 10.994094844033713
P 6.551574553318857 8.9480754947966 11.158715116736373
P 7.432453799909093 7.778741260026297 12.965113124801075
