51
Energy = -264.03067363 eV
P 10.73018289435093 8.512579480448142 13.825570793357523
P 8.71679885843187 5.868291271665665 12.819541495637273
P 12.150434943620219 6.150258519332942 11.909226499457226
P 8.729829978255383 9.586032993651921 13.911051866275018
P 13.324920756469053 8.774767313923563 12.011819530535043
P 6.872679116585608 7.02455216040254 12.436540544974717
P 8.860853586179445 5.089444281706968 10.915070131470099
P 11.512472341721844 10.6553303615394 13.977102782738488
P 11.040830304076092 4.721014867278967 10.571160833648126
P 6.034687143202399 6.760057441925391 10.359832164456426
P 11.181837508590043 8.187568524230324 11.627761799364096
P 13.680622051001233 6.250413321843985 10.206567633091826
P 7.826952890063226 8.990068681557627 11.936603176324011
P 9.855886413427386 11.148921109512129 12.549661124503743
P 13.334964705999118 10.920328425507956 12.608461483890308
P 7.429874134549256 5.879240513562304 7.386387758130185
P 4.619823336432036 8.403869439560621 10.957566693379837
P 9.533410563968802 4.999887739746701 7.689505233564947
P 5.8000985503861715 9.853743761135053 12.370073029233534
P 7.329412508949415 7.734866243605277 8.728012609042006
P 14.24519622508672 8.369901049344195 10.05091104958639
P 9.475996094741054 8.384333765477521 6.163657345789281
P 12.2703024853678 6.627101525862508 8.419820280809185
P 10.160996180724165 6.363337087114924 9.345562512653448
P 10.815312895989265 13.348714180733799 12.40478599704116
P 11.790912714055587 10.26391875161351 8.25795901173984
P 12.956596343410615 8.485006733923864 7.540440362483024
P 8.697016167444708 11.750234878969069 9.676802703961583
P 11.882264343528337 11.775481971953914 11.18537102302567
P 12.582682224043351 13.218113657791152 9.63421423232469
P 11.418342728884625 5.629139316416247 6.489296203240496
P 5.426285651909544 8.173601799812563 7.581872607474537
P 5.624161209685013 11.741958769329324 11.18828524422312
P 11.550851033407046 7.697406167222575 5.710428159613266
P 6.840374257663749 8.293556036429788 4.530945310062053
P 4.337066716656221 9.513382912580193 9.008084790043716
P 13.44552940386443 11.725693715501263 8.216914733050634
P 10.070461970036925 14.710540222616816 10.861100043141686
P 9.033472595643106 11.255013667489978 6.828118438332179
P 6.1075429787541395 10.807350170996852 9.27107771683367
P 8.884172851699832 9.207721320612777 4.180705403860377
P 8.164187541243969 6.716555336236214 5.477573229308457
P 7.58924453733164 13.002288753966814 11.190469972445687
P 11.99612202912764 11.736866299042763 6.5336227712445325
P 8.679415592121416 11.392480865680552 4.610728630746443
P 10.385647808416952 13.244288775345261 9.254476140090558
P 5.797011879816205 9.674255630728297 5.98334026994542
P 7.480969209986528 13.584831185145308 9.02260021743311
P 5.683837915925929 12.613377349750305 8.118390432882729
P 6.9602829271875 11.641504124500383 6.15791125983545
P 10.287802787454506 13.179220207576876 6.982543828626333
