51
Energy = -263.79476784 eV
P 14.895042387153744 16.119733266830185 11.90766804506351
P 15.30760829878252 9.552482776044776 13.384947175135583
P 12.188304534423121 13.826497511557797 11.904730250051093
P 10.097746521698483 13.566572137125622 14.93900260399396
P 11.251320115611714 9.241051577320873 17.455088626690735
P 8.553030378014052 12.67632461755864 16.352019154638022
P 11.736904314112442 9.852591668673755 14.028275921578597
P 9.178495863351014 10.731005066765778 9.87337342556458
P 7.427764585555252 10.218956302022972 11.165635606731298
P 14.29145014681486 13.454249194936619 13.942637709673551
P 16.094888758169436 10.714095196244676 15.161069091788411
P 9.419044631677838 10.751158238489266 6.600793730836764
P 10.16105526788801 9.347900515698358 11.340860561614239
P 11.675442408757128 8.374166122912737 9.990044899924866
P 12.917671110911897 9.390885832969111 15.843611154662844
P 15.209551546134993 12.619496619673443 15.830577704144849
P 5.8891767586101516 11.284526933526246 8.182937279387854
P 12.891198204806326 13.094122504291702 7.542347336195392
P 13.324188608039268 8.23473658179552 11.47369417672674
P 16.745434680853116 9.039308949987861 10.103117455185233
P 10.19376334344176 7.837044469014155 16.128315854840302
P 16.56741355416318 10.432395809775462 11.783667000163375
P 12.940868802635439 17.214143601338126 12.101215683071313
P 15.52315972581391 15.280609065924777 13.89402130610727
P 10.340245598121133 14.379759047548443 10.708460490731165
P 16.283700025368173 13.436218915774075 12.90615687116172
P 9.847753816768833 15.874495877827155 12.323775523174332
P 17.230477663795092 12.585271562081834 14.782046886972172
P 9.150050495182764 12.489201843673085 13.228440132449382
P 9.554857032253155 10.595713180109307 16.706018683995968
P 9.14556195579831 9.591840202305178 14.912395196510628
P 11.569176893232935 12.074536260535957 9.179903431682026
P 11.078021598530091 13.548515937100941 6.298546862030478
P 11.883517153473909 15.616965853542009 13.23423351785141
P 9.75965331337595 12.550323732110881 7.917382567277915
P 5.543019142802835 10.648429229030292 10.117693232622882
P 14.40879866967598 9.944075324697543 8.563893611769462
P 11.974503915579628 7.744500586768082 14.684148165066638
P 7.618114616044229 11.650701284274191 14.662372146246978
P 12.059137754976735 15.139617573036064 7.4665670236868396
P 9.003150095767513 9.219382393837947 8.210229847350723
P 14.702566451625444 8.086604479061803 9.721667147059675
P 13.049609065732785 16.502531406351668 9.968057159552169
P 13.89568657890083 14.52296291109748 10.638460491029132
P 11.017990380497029 15.95082134525472 9.281834332041905
P 12.191471194053578 10.033397119335323 8.489610945856965
P 7.346217728505517 10.085629002881348 7.075534515142176
P 8.289690065891728 8.183703661277503 11.139711637755646
P 13.379755249346742 10.266335752772713 12.488851944514925
P 15.87915148757983 11.167975662605242 9.810131059748835
P 8.546051715575224 14.580059944371895 13.70689247576667
