52
Energy = -267.08675913 eV
P 9.997544703771297 5.8715152359946705 4.288025516003265
P 7.528278610122801 11.905251236835392 4.509694873494248
P 9.15093171643326 10.440775537570929 4.062311138648407
P 7.0173028722718485 9.731604326643987 4.404689880760269
P 9.966280529858293 12.601963258193809 6.4771758809304405
P 12.73333688233767 8.235533293197012 6.013920542495338
P 7.2753422972053405 13.701748190346944 8.083044597999839
P 8.087950813275468 5.808572635826355 5.370867516691103
P 5.366600008012856 11.536741382197306 6.728630771271085
P 10.897471969718515 10.967852177104515 5.41061711326893
P 10.660128758080882 5.775473150099264 6.40504588217732
P 9.304241841426206 14.140492470168084 9.114657368926732
P 7.691477449189136 11.859929305176763 6.812871073690728
P 9.45786061251949 7.495034867331854 5.728672634421854
P 9.220435838117462 4.356561283732396 7.349559418874721
P 5.64048161429205 9.406136019147828 6.203694416750201
P 12.905540077413521 6.1290938355300595 6.807458433050626
P 11.02306973424105 12.964000727759498 8.232393135343708
P 14.472634463284228 9.068085770826185 7.095257347463954
P 5.849142736690922 4.5133199928264265 9.23699810328243
P 5.144655525232632 10.845080659530659 8.829335398379687
P 10.64312062250348 4.292934853082083 9.149083698969276
P 7.780260331519894 5.57157105589777 8.963637623436632
P 13.213098056277387 10.780398869528966 7.678188536018573
P 11.353456998683065 9.584699432388593 7.194943347318819
P 5.882202771540363 5.933056395234537 7.506842777014108
P 9.068359087447568 4.494310482139786 10.682010503366154
P 8.979118993075856 12.572515943895796 10.592557906490756
P 6.185630194033164 6.378511958207933 10.444623304151426
P 6.524320808179766 9.128461580777685 8.303802385515613
P 11.088737576199055 6.477608143974728 9.545328482952854
P 6.774573863415382 12.149231254831582 9.662722639435708
P 13.211206427427925 9.757574481147794 9.752081357818835
P 5.100147218803473 7.4973499089502615 8.86335692866685
P 13.24537444123837 6.147388448060962 9.014150540655493
P 11.77004898442467 8.502414412536103 11.462063904981223
P 10.711607820631059 5.694328665181405 11.619991885707908
P 7.204678987007367 8.903828278269916 11.821919237129544
P 10.502613835945304 11.218991240148553 11.016956936835324
P 4.209599226281746 9.815349348876037 11.88397237453722
P 14.477795248944213 8.022835228418279 9.3636113038391
P 7.9679123791892135 13.56635598269252 12.30877591660523
P 6.279241754296213 10.846661216679138 12.57168009206185
P 5.3390435587335325 8.20583836483457 12.905794476590147
P 13.445919295292638 9.821079553395496 12.088358063547517
P 13.811736103090617 7.713674520357416 11.758018033380226
P 5.906704579741124 12.908509244923113 11.579086157131691
P 10.546651570101936 7.3859000970600865 13.086051286535547
P 9.888553483406975 10.736769967600875 13.108788626394619
P 4.833342457995586 10.119036375558313 14.013321157421789
P 8.083284700441332 11.862030738042476 13.72874509817012
P 8.798836616982369 8.773905647613896 13.382501419740228
