53
Energy = -276.12252832 eV
P 7.7736209724970875 13.367678415918206 8.391120643498645
P 7.804041918581315 9.663766700021592 12.096186200302197
P 11.75668876246045 6.363025486938661 5.5376376727965955
P 9.631688831663155 12.696826054611899 10.766203632416765
P 8.526782605250258 10.877222056115254 13.852107706346548
P 4.400754123206654 9.23127621015225 11.450376141919925
P 8.66283952743674 6.390725778494208 10.086987986183606
P 9.802941302185271 4.465687095601902 9.742519701631146
P 12.494214110699764 6.377061903275797 9.983345532021858
P 6.501986210264184 12.484964793299815 6.758844095573068
P 8.317132530918586 3.89749689877647 8.110839002995231
P 11.952980690543898 9.300855651253244 13.787979079592247
P 10.32837458512028 8.09832404065546 14.211308576829852
P 6.9270612124399955 5.429804684183833 9.02435978585255
P 13.582052556321973 8.022012497600265 8.883637600647203
P 7.506337764133795 12.873890518801385 13.422806448350702
P 7.755665172227295 11.760252063923998 9.982340981444422
P 5.53908936953269 8.433613267145693 9.70903190434784
P 12.831904809218186 11.093541583791955 7.211869010114354
P 11.021856247584964 11.842903358169476 6.081773321456735
P 6.699758464226812 6.978796372990982 7.424842664057405
P 5.812370984651276 10.55657437654381 12.52358534946005
P 10.85594838488809 10.995735861113644 9.97882360563321
P 9.207696163413503 4.870441770262795 6.288659206208461
P 12.908727085371124 8.070657147680349 12.230425942314831
P 5.106954704742359 10.064020659758357 8.191790022492874
P 9.65751530743068 12.54788411187072 12.960382300028934
P 8.262425430030316 6.0134638678154415 12.277466710484514
P 8.534671064139026 7.871280730571187 4.880771808887677
P 3.6947821526299522 8.753127435769999 7.065260751636103
P 8.458242576630486 10.95653196228689 4.337492668440905
P 6.675418066847624 9.774774197983067 4.960495924398849
P 7.166559171194012 7.779270166426151 13.126433295924295
P 10.45890384650855 6.4216352622791 12.742196970787823
P 10.282648241391792 6.5969129661292545 7.210325888995001
P 7.452741340630307 6.017696542252241 5.522255843502291
P 11.371050411095897 9.263738014970784 4.245051474932845
P 11.47486786843251 5.170396909693767 8.418852454558769
P 7.012078339267918 10.326219657857674 7.061024864354029
P 12.850853288120131 11.266561254962086 10.920796495996408
P 12.877711682644806 8.327635519378525 5.707994180702506
P 4.542087349201423 6.680682471377246 6.9767807828926385
P 11.049629359531643 7.737953425369591 11.02394431830689
P 10.428551628575057 7.221413137543214 3.885135068803911
P 9.64889653460388 13.327486621710719 7.0160248026261876
P 13.982696189914968 9.348687536358188 10.713042702131217
P 9.870134293531109 9.952618876205154 5.772155161155721
P 6.290734995012518 12.511069354937327 11.52529963921015
P 12.364002832399857 12.316547421379168 9.02393409523673
P 5.22557987703028 7.301846087221176 12.209873840411129
P 11.967570950146499 9.058079924202886 7.636797250256526
P 3.694939519902548 7.405933208967928 8.892333015048752
P 8.16083195937841 13.008991453200421 5.3240692416032624
