53
Energy = -271.59439027 eV
P 13.295627336221617 12.848400368561643 6.883438902192373
P 11.19590219313498 10.968811590809338 8.989233815619832
P 14.159854461039261 15.469284985472717 11.924930460605214
P 12.658218873528114 14.428843104779423 10.65022039037513
P 12.09423924165409 16.373630595221755 9.594873202199475
P 8.782769760284884 11.113773271190908 8.159404402930589
P 8.990002302133696 9.525626472055343 6.735082349868445
P 7.814755307416085 8.00640260977604 9.779368840498222
P 7.309814154904492 13.847706296281695 11.97345461516064
P 9.25093998717441 14.239507185942456 9.538431379182772
P 9.87295217253013 14.046571562370016 14.832346235430188
P 8.909131123479822 15.601745796203428 11.72501764120043
P 12.980415795711552 14.01306944847642 14.857899622772639
P 11.144248640019983 12.534579627641632 7.417813365695525
P 10.16928174525107 16.10642659293834 8.49729802671975
P 10.187376779940882 17.152084323665342 10.38749633412408
P 6.882481005208804 11.533831039418603 9.132130183541568
P 8.984817309818888 13.18223070506758 7.435518919579328
P 8.10766457797997 12.299833514255853 10.734075655076358
P 7.350431067602952 15.24074346397179 10.214996446165118
P 11.395024783247566 12.690163698093842 13.951939891827568
P 8.144639560198721 12.603724384535969 15.345747183350495
P 7.422170471944973 11.114357302011957 13.803513768759188
P 11.400455027241485 13.072339344421511 16.134822257104044
P 8.865717811530773 10.647021701590019 12.115402900097871
P 7.212755664942706 9.189624079134381 11.56339575573896
P 7.915040859576647 9.505429145201187 15.389396617917221
P 12.402243950265797 6.082446110371562 8.847241014457799
P 9.84356689978771 7.842330691571073 10.694980239378758
P 10.959980927267141 9.180334278850466 7.624898783028166
P 10.363624523815245 5.885701850404915 9.690534111898922
P 9.769475998622818 8.29092291338215 14.572553694074259
P 12.085734466270772 5.135864587656369 10.79847137425384
P 8.057645650737792 7.1227442610405545 11.804271846138349
P 10.763897653997283 10.228023038113443 14.97456873252955
P 12.672012260065825 9.208521167150241 14.46027580335877
P 15.438344137478486 13.630250221522102 11.834251451185393
P 9.084908193930108 11.008087819307372 16.542732631272003
P 11.282721457985962 8.47580938939386 16.195075350250207
P 14.547349554273419 12.565391060833123 15.601571181958755
P 15.462930821819903 11.378846860960062 13.927863117630501
P 14.139488668389255 11.79740592577434 12.106452979251461
P 13.695896417388257 7.388658627581417 11.667862971980847
P 15.587713527604148 8.66131931124191 11.72050703049494
P 14.296709643513527 10.324251351991366 15.530190029097474
P 14.792638077758902 14.643225694630987 9.970924016214115
P 13.31958606921514 8.032227201562433 9.588906050747795
P 12.675295321934016 9.706725708337054 6.28701020702656
P 11.872446677663236 11.667053808650186 5.523303671286146
P 15.28113356187215 7.118980145952608 10.140248805801816
P 13.496292718505462 10.960109747496 8.04126146319101
P 15.492054261803203 11.131932022514077 8.75046546386921
P 15.630654298524725 10.688147503040355 10.84740330747081
