54
Energy = -280.14986989 eV
P 11.933207350030106 11.239810454774672 5.340598613101446
P 13.892173089430408 10.730124687265747 6.283489101099371
P 11.350716371794038 13.227449993022939 6.175437943508554
P 10.609931316545902 9.635085044709532 6.201557320719545
P 9.12492112399988 12.99239034354014 6.27567876079817
P 8.69776723638592 10.763636548924618 6.471012537468454
P 14.468029573820527 12.83182494273358 6.882529751074
P 12.691070550091244 13.837012253258306 7.836822665125611
P 11.136048762034177 9.29549323239167 8.318534775515968
P 13.23769356991061 9.120530995261856 7.720100783999608
P 10.525534311448483 11.188589543677896 9.320865400859725
P 8.03449723719991 13.050418682115806 8.31594000186187
P 8.39441090487806 10.848582715734969 8.720029877643913
P 9.043410378877219 15.934936305752831 9.794111262543536
P 14.707393337716777 8.840747109828806 9.368726260903312
P 15.145085983719117 12.692089503667624 9.020804680854887
P 9.458294289786274 13.79906796201457 9.843182378599112
P 13.003264014366696 12.357302806009777 9.460236526024724
P 16.009022986169178 10.685034302487072 9.526476124332294
P 16.299296905860356 14.67944766141836 11.85679577357849
P 10.364336181400226 7.693491558646295 12.770313509896939
P 8.992312211449079 16.58533662883052 11.766392329976144
P 8.898298608603278 9.22911514781522 12.111440340520323
P 13.574322345591213 11.218235343295218 11.882167948858463
P 14.03663014802411 14.960569602371805 11.985610662256079
P 13.589402641007654 7.994954480551503 11.338728307922553
P 11.457474589669834 8.285121982739586 11.026053209707847
P 9.087768042906307 12.849418782254096 11.928828700387497
P 8.366347556132615 14.763254475215385 12.75834569728761
P 15.743785503350304 10.866452370267247 11.744458360836278
P 16.983587827785822 12.63564982194813 12.227240644202077
P 8.112324975333355 10.376190626555367 13.858250291608364
P 12.74316267503069 13.231570402693833 11.499265627309924
P 10.670544659958368 10.407416703388899 11.4248895095771
P 13.438212422970842 8.02715396486847 13.709118104104649
P 7.238338752863882 11.910728399634573 12.586985976919866
P 9.031930805027576 15.033358735064816 14.821182300297352
P 14.261162733420965 14.53321933571079 14.172936575195012
P 11.862025846906754 9.54162078629158 14.173287528711324
P 16.397634031333034 13.808356010306262 14.004683426027357
P 15.239605215664279 8.445225659108896 14.75066459276212
P 9.819007769417071 11.524942318050558 14.852624793281974
P 15.055084019704134 10.562186969638159 15.307153659031066
P 8.49956110713216 13.11383124603401 15.778178013537614
P 13.38099451356489 11.176592930799938 14.057051566253646
P 11.16819838527785 15.4415030611162 15.131774174761809
P 12.54547677098688 13.131923573684453 14.688623238098556
P 11.9352053382133 9.209871619854093 16.37520024207617
P 10.12087133452982 10.471973855098852 16.829241002384023
P 9.599651606996805 13.711785622914983 17.649268953977185
P 11.270762026008295 15.14080373736628 17.17625408757397
P 13.63840039450283 10.565985830398366 17.05247219551973
P 12.996398862062957 12.712047166035115 16.891090891603632
P 11.124064882475304 12.09519024222411 17.941947077290294
