54
Energy = -277.71326988 eV
P 9.262965621393215 10.347887022380647 7.431422468051249
P 12.562353420461951 10.01307435650703 8.059653732190071
P 11.138314800403704 11.751979456837732 7.879306344936434
P 14.63956958529829 12.816414694297873 7.461010003527549
P 12.57182932348263 13.517741531850959 6.984711589776447
P 14.268255547810623 11.169329826008232 8.958841240858836
P 9.769790605096887 8.370114903753269 8.40499215934144
P 8.764344065610413 9.984053990843647 9.505123411325108
P 11.888871635386874 14.739258938901349 8.698501696275832
P 11.64037411127317 8.840372173597485 9.671596614018762
P 13.566619992214326 16.06646550912557 9.16019464495098
P 10.440234093587403 10.259371459946259 11.038511703409629
P 9.533753205607677 16.358483150068906 10.757371943791963
P 15.388827429808154 14.401384694802958 8.81703897711142
P 10.434266216393768 12.231465381447899 9.89338172485911
P 12.106039528175446 13.490146607996437 10.521891657674601
P 8.86122691496793 14.461086487854985 11.59258792925102
P 6.804355803537907 9.799937220194915 10.667867624200388
P 7.5280924848471065 8.458838008000145 12.194269340544857
P 16.036481272845684 10.03248512695858 9.262139296570703
P 6.790876695577934 13.913561350731912 10.886765860955014
P 16.98066378322036 11.603217252414098 10.459091698347377
P 15.615884477529308 13.385373126202078 10.764551431093421
P 13.665885945909828 14.654793611376197 13.234107849341601
P 11.188935132508483 11.835893832702933 13.340340194755893
P 6.446732723181982 11.780345051974441 11.6865180607739
P 13.012473550845877 17.10320664584144 11.006113566251384
P 13.805656324676857 12.118014296876973 10.898003743550614
P 11.249584990553886 16.25977371250019 11.995866776796353
P 10.551887096229487 8.57998195969997 12.899818511891002
P 8.702125805224377 9.085310663060277 13.947234440330583
P 13.527072063391431 9.408376076501423 12.543091157560674
P 16.657209201020358 10.919857955295383 12.643936711768138
P 11.432515814280826 14.100774706312738 13.027927304945417
P 8.185202555040567 12.25114841348056 12.944572253478663
P 15.664383932506206 8.984694440240093 13.145756314761467
P 7.215979687310131 14.319618468211326 13.068903795073872
P 16.77108753024821 12.548409749327531 14.149710852956053
P 12.494725451367431 8.134475492098003 14.061014906564104
P 13.220297182362811 11.261097048953292 14.03217849128732
P 13.391995280664707 16.46627422597763 14.47385007535177
P 18.526439368492692 11.15230485064541 13.789767822285922
P 11.204975978323189 16.851207969841358 14.300880730398497
P 14.063837543826137 14.535891069989228 15.416205740622669
P 8.139754955265214 11.139526020845663 14.840859927814307
P 10.225269422595776 11.641824889298643 15.350210708289076
P 12.4692872949466 9.796230822365157 15.563685305643641
P 10.235987695125804 14.862946686088543 14.721892607641337
P 16.028013151664993 9.192624865291867 15.357212494521086
P 17.287158137452032 10.99661976948206 15.63245326121797
P 12.849830586276507 12.78816120575471 16.030937144506783
P 14.285328908913757 9.798077090711597 16.797035109592848
P 10.730915675783379 13.494143453372386 16.471286653752284
P 14.128706087747881 11.879598373428845 17.51105008148207
