54
Energy = -279.8829903 eV
P 13.04215961177118 10.278897689968277 5.7421295519156565
P 10.420700287535785 12.438208778585425 5.4506419126881
P 12.071357139440336 11.966367896805304 6.8475286827190125
P 9.516396635231287 10.380511716950931 5.933081245339286
P 13.24388361556612 13.978348284870917 6.499208629651007
P 11.306296035452393 8.874513419265961 5.895693537967191
P 14.176548193233616 9.324774169750551 7.402610756685457
P 15.670079475421693 10.986326700744714 7.311805432050007
P 9.64360480921304 14.174368913004065 6.873983749043109
P 11.562164361299804 14.822419650438235 7.788203818464629
P 10.471699985776947 10.554178037768285 7.885765416434121
P 10.001850327706139 11.817763745122004 9.532824685546133
P 8.66002910325162 13.36484528862677 8.79302249795453
P 12.141887755335134 13.019456320119252 9.05326507323317
P 13.00932650508907 6.547324183022466 9.756276087729367
P 11.203582190228225 8.484701243672223 8.256928391040192
P 15.32734907465117 12.279428888635271 9.023687286941117
P 17.63406227980176 10.600887631826009 8.240468542254748
P 12.806989827138963 9.801548034979641 9.133338900833525
P 14.122703159805953 14.081353384913443 8.541879803086799
P 11.058152522042377 6.21816515158997 10.67412171503207
P 10.451593163668312 8.247079742645184 11.313335173593432
P 11.115300243159421 15.102077248433616 11.165589150499633
P 9.156472025502524 11.24193205856434 12.293133026670382
P 7.343242094679374 9.980911856421049 12.138298058696884
P 8.917158432798916 14.690051421942888 10.656986643031772
P 7.752520197794405 8.486972367647597 13.77392439326586
P 17.495806122998058 12.470293093319922 9.166548556349172
P 8.774972666369306 7.1750069930124685 12.32263402006197
P 11.954017887419878 13.050569952629557 11.289829680476513
P 13.943028118640624 13.64523122691368 12.0391190252172
P 5.598961479011893 11.32951232821697 12.697650144804978
P 7.936299535183336 13.13128813467453 11.958394047744486
P 13.690780597332783 8.373582009389024 10.714347750382707
P 9.65846916556716 5.6654773486068954 13.650519628997861
P 14.291883124992877 11.616905668318287 12.977240243701793
P 11.136070750325045 15.5928295569426 13.358065708661382
P 11.269747311821732 5.041722650515723 12.533446223454778
P 13.34564638069508 15.200075992284434 13.592845977001454
P 12.21760698700693 10.727999392133478 13.23388305599743
P 9.312177056665172 11.421823342653038 14.503234381871653
P 12.355399886240725 8.56242657525526 12.508206572034092
P 8.309707025366421 14.162961117280998 13.944261146558436
P 5.6160241917966385 12.345480415245977 14.487429550541602
P 9.554437159799921 9.273787981860194 14.888968485476088
P 10.511603405507161 13.505302199415134 13.998608369756479
P 14.447695697072245 12.1015252514229 15.155822705106873
P 13.40405696963796 14.114347625338267 15.584865162754468
P 7.629359720586101 12.558328110290251 15.372430609318542
P 12.918605093581892 10.463168483407271 15.402226117653932
P 8.860663914590337 9.47880761476309 16.981585031947713
P 11.792418692983606 11.715257156859025 16.813017137103927
P 11.260821756560508 13.74892282394122 16.096535082858573
P 10.023055621786147 10.920378501129738 17.886978793933466
