54
Energy = -276.82199196 eV
P 10.328062978157801 8.355858539134614 4.280323488572205
P 6.909383615961484 9.504740632635427 4.657650524872107
P 7.964247886493085 7.152647894947915 5.748665814051799
P 9.62726137153689 11.785701899940271 5.230521683342618
P 12.296164826280078 9.050546105838157 5.110639961931821
P 10.635667273346415 6.27993722055403 5.131797548718864
P 5.928586712626027 7.771524966785555 6.296449437421026
P 12.829351246403226 6.856042633769025 5.455215960665336
P 8.89284036785087 9.261613855668717 5.704194857281227
P 6.109807114228039 11.18532091767426 5.658597170706743
P 5.538093004580039 5.873856850910785 8.118129516595475
P 13.939092500033942 10.494876581509134 7.308250484978803
P 10.742923555039502 12.079300129094534 7.140104541515297
P 9.254783957226051 5.82689228075414 6.93704841913664
P 7.7853761215918 12.527958327057135 6.12338064264858
P 11.960320843764379 9.367955008559543 7.339078271980219
P 11.977565089249682 5.82347015053011 8.512156585850228
P 4.683873572092468 10.749963340553807 8.406113436144249
P 12.984049688647085 12.563537463271507 7.356102410961295
P 6.154696192129787 9.043631516305789 8.232084790582794
P 13.137862737720404 7.476862645955737 7.648913577991189
P 4.414515211551752 7.719097999403755 8.6294360009733
P 8.007155064739452 11.965105945429396 8.28514576526594
P 9.851741556375549 6.782777374790859 8.884000613393214
P 5.96570278328891 12.514129168998299 8.943859800710943
P 7.207817577700543 6.484367817017815 9.418023704247762
P 10.71134572114918 13.994449362940552 8.27443491586025
P 12.564745514982334 8.067386572749411 11.129148122626416
P 4.223976821830218 10.333360954723531 10.602637187508
P 13.966931991502259 10.542740970110609 9.522170340583145
P 8.557523610140624 14.040363509394318 8.868051594209854
P 4.117358958023789 8.103211780829218 10.83256394687489
P 9.690539041300484 4.932405214495548 10.225535377365777
P 6.054025499528866 9.130842444233728 11.031389898657814
P 6.425159332387946 12.843475931282674 11.234920713993116
P 14.3925838702655 8.489152126552222 9.936767236281886
P 11.825985965536061 13.266409054776002 11.122984285667238
P 8.387176523364706 13.99316835757044 11.107901634671128
P 11.926068509432072 12.04117015880135 9.285820033698956
P 12.731121333946856 5.887537898420533 10.597617941323277
P 9.767020750815734 12.258421901516535 11.525414388698817
P 7.573962518888934 4.939302460614387 10.964156175538779
P 6.2951606869130226 9.818886929472203 13.150485123041191
P 9.290428140445188 7.533407044258365 12.98994201918048
P 7.327234338090311 6.821885229830621 12.242643599004527
P 7.55608222726182 11.492352457127028 12.495252816717338
P 12.626304973393317 12.032294202964202 12.82055558709319
P 10.51606301846727 12.07808439620894 13.643406180423096
P 13.020720108558894 7.520405842282556 13.23645793592455
P 11.019484054073054 5.3671083636754995 11.8605790919784
P 8.039243669675281 8.883914897777197 14.27340312614891
P 11.285561996390204 10.266955520055044 12.604862079834719
P 7.846800941838177 6.688228630600694 14.4619899687031
P 12.000226615611478 9.001140102076922 14.268803250282867
