54
Energy = -279.65269537 eV
P 10.3145833416477 10.808073925904374 6.3458340576462415
P 12.416504805043886 10.42026889943201 5.644269776716269
P 8.716459585067476 7.752644587485233 6.604831501110202
P 10.759007474223653 7.211607818666452 7.374242530407762
P 10.37644138740483 13.01765036839632 6.1540312041768965
P 7.705018833705939 6.086742962545503 7.88590273161145
P 12.448348131667686 8.726849556307766 7.2146092305696055
P 9.045123180962426 13.451500707150407 7.880678109872571
P 13.258521408564405 11.564252871564008 7.428130548571787
P 11.471663509435505 10.436247558365793 8.280378487380332
P 12.271869001540573 13.562747674442484 7.314710995783941
P 6.904763999901186 13.541461230979259 7.867608390839015
P 9.15997292499667 15.533585441660135 8.555542731432785
P 10.963364828269112 15.544017114704518 9.959939061393703
P 9.802723680852045 7.953687099113065 9.271010529193903
P 6.449734783734454 7.700876082692491 8.773024295173675
P 8.789449436745217 5.967898848414488 9.846805087704276
P 15.619543377271473 13.253472279150316 10.327658558091539
P 8.670768304726733 13.43636673432027 10.948429074428573
P 9.979219615277252 12.224021766245455 9.607381823019756
P 7.34774479805735 14.757014610902992 9.644418554750732
P 15.58974120942284 10.51607718261471 11.898534163639898
P 13.99881631426241 12.014849782993602 11.238083850315299
P 8.210176245403792 9.155565098009086 8.307800053643396
P 9.910140335772255 15.022778096720106 11.91613747451747
P 17.19595573133786 11.723506983944068 10.76058528728549
P 11.789010565025624 13.539749919145233 9.522324257382593
P 17.200311951871285 11.580600072284328 12.971993204834423
P 13.364382288891992 13.742251112511187 12.642705819002629
P 10.245149057548412 10.401155078125976 11.79036342012591
P 11.245800498147416 9.138086572141347 10.420685299857867
P 7.527698368015104 12.1537607478483 12.331213957344294
P 14.1865674557288 15.630833367608968 12.130207810636202
P 16.155199288403676 14.73585171059589 11.899584206221695
P 8.614356137586817 14.144865159754033 14.821189920869513
P 6.950484551561497 6.768360052630909 10.686461005266287
P 15.49721097896859 8.34620558800754 14.900420029436502
P 11.159123531439985 13.634099061501397 13.174968080773256
P 8.035289002377736 10.149041125691607 11.498140331926379
P 16.01545478267894 10.305174759265032 15.84356041816033
P 8.929540211344673 12.11212091404442 14.075873140690184
P 10.638583999963357 15.005005057389488 14.84966647320501
P 13.758662339016766 8.565950136005549 13.584735975720372
P 16.519950066185125 13.540125149070871 13.790346934442471
P 14.135839158550239 11.421099398624314 15.436041540448485
P 14.941116355569463 8.707806940755473 17.01868406049048
P 7.300181173720924 9.244085719509878 13.433961680111063
P 14.401513043906975 13.492009212382865 14.593487880721339
P 12.009418549821437 14.175590310069357 16.429116147042237
P 12.6136796882934 9.923099031769183 14.707856121185396
P 7.731327143428024 10.544914422831518 14.990966803117038
P 11.230015687434845 12.269978066874506 16.56176417594179
P 12.779316774575943 9.326128998877902 16.878976893359596
P 13.11831217357321 11.487438100883738 17.43327737133476
