55
Energy = -285.08305748 eV
P 9.707673647562151 13.215640494846559 5.728417715603556
P 10.587670347345671 9.54924605590325 6.56012144859486
P 10.14759450425208 15.023148637846411 7.052905230910452
P 11.142676643956367 11.73775766042497 6.775729785472496
P 8.394220931692818 12.525063713717586 7.31429617657702
P 14.788581163657739 9.39394200611736 7.466742372997772
P 6.7940105049623645 13.935646260622619 7.755339034952636
P 7.197968085592361 10.73056078377007 6.957382812936902
P 8.170806307776322 15.676400412956834 7.585067372034293
P 16.123101620503622 11.005820422879863 8.301696177201707
P 8.618751751262208 9.091931262634896 7.534021834792538
P 14.854820783374656 7.591357187670182 8.80248265816486
P 12.58719146677247 7.292641911910694 8.560746731184516
P 10.103563645814756 12.034306730570282 8.738086685527753
P 11.1079317814115 13.95134183344476 8.863373874824887
P 13.431385510880745 10.257088242405226 8.93379723221627
P 6.550479386945611 12.961817914207785 9.82560635090607
P 14.309410646924478 12.296780607064619 8.622009133980265
P 6.620879572089493 10.72911107346878 9.168494576444793
P 7.919839656254746 14.285132013603462 10.931440853501295
P 15.441563281063457 8.329942953867377 10.892642123774229
P 8.617448478817526 9.77643650034376 9.71136647886014
P 16.81500558566571 9.997668448244625 10.24267611987094
P 12.569026560784746 6.679812884230614 10.702954658465153
P 7.522918396781237 7.9434658194182015 10.492044328754348
P 10.08945124803144 14.913194744977844 10.58289776909328
P 11.478201258835876 9.26804052048178 8.62216740091301
P 10.744623324131636 5.727731265028214 11.636659518169512
P 16.513624234022096 11.876572292246246 11.365649082612173
P 12.004725538868756 8.42702422328358 11.889758847354175
P 6.314287369163247 9.135676069022137 11.89317009298569
P 8.762048652272856 6.815363103533738 11.961477382596604
P 14.429369937543548 12.803746513560831 10.923710146857616
P 9.656125694021046 10.346908517355047 13.105287868502618
P 13.87677552882617 9.654680116351837 11.788058938414933
P 7.588297392689674 11.10289484241988 12.82165527664504
P 12.677974630548103 15.118646453205578 12.482320590112513
P 11.195180941124914 13.487590245698183 11.929145042070573
P 11.808272797942902 6.709143235591802 13.41874575034148
P 14.364274510232454 14.974731025548337 11.126491852498766
P 7.803946963519566 13.39793005642993 12.978152075725578
P 16.155867138679497 11.424498517524704 13.55010981875659
P 14.321063782855811 12.669205949298624 13.218709754500477
P 9.029952514655553 8.245602417778462 13.592131546670938
P 14.613745422783605 9.721412736091443 13.91647958647632
P 6.787025213204513 8.33043896680447 13.894297270629991
P 6.555257106269049 10.45735482229311 14.674587660483146
P 9.819997123452904 14.068547910769642 13.591366660219263
P 10.354492121036971 7.269600978321415 14.943002879295133
P 13.617073653134138 14.298557245518097 14.455121937078767
P 9.929752007661373 10.697155972538365 15.304448628853043
P 12.528332808496616 12.60530976495292 15.545683977463602
P 12.833997626330106 11.172842052714008 13.813738843505732
P 10.303124472589618 12.925701444301607 15.448288670451422
P 7.974695525240187 10.597912964494984 16.263320162481957
