55
Energy = -282.60978339 eV
P 10.234448916448665 13.409741383598883 7.71814075972348
P 9.758669607662357 12.453443710015183 5.8586649058871965
P 11.341313767821939 11.120248642219892 6.545585874679509
P 13.594043780839694 6.946592030131826 7.264970947720918
P 12.340623732100777 12.88416133028663 7.607939958181126
P 7.158833732134933 9.875761314351983 8.23154208927373
P 11.930005307240972 5.91659026309303 7.9649949643151725
P 15.551196018257036 13.364532052343948 8.49133468184403
P 9.990172856881545 15.413983145071843 8.568797784926417
P 6.256227869536876 8.122161329507051 9.230662165413154
P 5.59098124692258 11.915712006196516 9.74188350366649
P 8.289458306796389 7.136421037693477 9.176038206886409
P 14.76787277742913 7.703441626823112 8.9577699786711
P 11.999118487341466 12.619827276632487 9.948270524233678
P 16.462674078027312 11.412912149920924 8.840405449661203
P 6.364781938045356 13.785115631664082 10.294308252055634
P 11.571713566207192 7.131167461921636 9.704716271823711
P 10.909118286384553 10.28538218488149 8.69446469988727
P 14.340177994340184 13.444896250671135 10.248111396654531
P 14.821082991010437 9.921686545735 9.556073986758099
P 8.99566104527187 9.257208140495345 9.18927157995566
P 13.556547980197127 15.513856974785437 10.614159756718616
P 9.82110746337375 12.025949962024155 9.495684864724197
P 11.357529518357007 14.825168752755035 10.119722425668334
P 8.41698037418749 6.282167707540373 11.224983239641501
P 5.9390125529304685 8.776858507382954 11.471460660732381
P 17.07600831839174 11.50121441303746 11.004739950817838
P 13.613921705038868 7.200974744097979 10.830407959079487
P 12.878134793559639 9.200355269324135 11.59598709351904
P 6.792437369011835 10.806094802668648 11.182250108086397
P 7.914098699735743 13.173129723188366 11.75562378521292
P 16.573424837732137 9.310995451494396 10.733867834922439
P 13.342249717507544 14.968914540632724 12.779696027136396
P 9.635941912591067 11.86694782845302 14.028035003110961
P 10.664175674411316 6.207112301211878 11.539673254466638
P 15.871843042175172 8.025206855914744 12.3437014480173
P 7.955337425365018 8.271989668286986 12.21249672685697
P 10.195058852073016 15.959199138778041 11.701424355058906
P 6.428961820163487 11.99863650576103 13.058650694682337
P 9.327855258995251 9.791115957475386 11.37539312317347
P 12.424938532243877 11.367751509509507 13.512042172462865
P 11.805450903334144 13.278573156171223 12.677332063305425
P 15.481632132691006 12.750519055492934 12.054401841189947
P 8.396306431294368 15.076854411838532 12.833469087902841
P 10.863474012751045 8.339714475346154 12.279945027962148
P 11.597629978006387 16.30452309487015 13.42652059744309
P 7.703406415734265 10.928617941231655 14.64142083578516
P 9.012197108272618 13.949702857049342 14.671107938932884
P 14.28829849705757 9.150483588079839 13.337393983434987
P 8.192380757255322 8.632797342093932 14.378291753105147
P 14.645671676313142 11.334799157895802 13.639355000228615
P 11.411576699196024 11.657730208619347 15.554925284170235
P 10.391894682029115 8.518411417855221 14.387227357761516
P 11.181638186436134 14.376367006651567 14.534216741145876
P 12.077984914927644 13.609564709267508 16.273728571365368
