55
Energy = -283.385248 eV
P 11.898752808793525 12.973858490847205 13.311206718144968
P 13.860674302285016 12.214236453072651 12.503524762746679
P 8.66463204812746 8.744094873061103 15.652339439494265
P 7.2692714524793995 9.666199495892103 14.042384243038958
P 11.709287378079551 14.299239110284828 11.559634434182517
P 14.642583900567155 8.921320323851738 16.01369812321086
P 10.689868320896858 15.235108518608058 15.164853064276862
P 14.581759439107515 7.56215819347538 10.865718753629027
P 9.57251586658673 10.698541934687938 16.26079619457603
P 13.388986633525775 8.807308546842288 12.284471932541791
P 15.39664010568067 13.871690249650863 12.707734537860288
P 13.293331585651025 10.664268719186536 16.074145426094205
P 9.09606107974547 6.974336201723833 12.822205267592548
P 16.342753360660836 12.248555755078165 11.224320485122254
P 11.935885111443016 14.03598790013795 6.681953966074101
P 15.133675253818069 6.419285216077755 12.733525641396833
P 7.73395317483496 13.139177209926327 9.297607727004472
P 13.468678666046888 12.628303217472236 7.288193854579545
P 10.268975547084814 9.945233243806419 12.771934533326398
P 10.59943244191235 8.66395402370434 7.247790900653393
P 10.261806498077682 12.811522493844151 7.359636620211719
P 8.289388980726477 11.557939847983882 14.620234915726764
P 10.89285867214353 12.148301201673155 9.474328683439738
P 8.720036933234981 14.385510424369809 7.725728527801318
P 12.118324420830657 5.677410359256934 12.571761638045823
P 15.474553094672318 15.26754675531184 10.924225779242015
P 12.145299425603584 8.053697353824692 5.786042654546454
P 14.632036198243185 11.680317219362903 14.565418635042146
P 9.75213085589588 13.751533743305096 10.506967160132701
P 14.912332123726879 14.280605454153374 7.667619882925004
P 14.194407932305348 15.52344571120105 14.465117550042796
P 6.739707771293084 14.807031485869706 10.331935323195745
P 13.068060404191792 17.117205646405203 13.505989208531595
P 15.833634096071552 9.819388513036257 14.552973633972497
P 12.74639882775375 8.86249486343421 7.756368455019288
P 10.976354987856478 17.049823576521753 14.304933521325287
P 8.679324829534943 12.743345062500193 12.579440699891881
P 11.807577649769101 6.875294159275616 7.612445470273306
P 12.075117862770588 16.47712170934195 11.589653389717393
P 6.673368163542138 13.754885173113138 12.419793436767225
P 12.84643963470487 13.188712674301716 9.81249995244829
P 8.230798908292583 16.4023992682724 10.458932881378564
P 11.469281894497222 8.93090670994545 11.21637855867528
P 15.315996160505316 13.398206910400633 9.813972979655023
P 13.842718108201849 16.571776167076155 10.22343693322437
P 13.810312247250156 5.461355345331097 11.175877134055009
P 13.206095766799297 7.190372769511585 13.798495837891322
P 9.843101308470352 15.605170686843696 9.202376707991066
P 8.327710614523157 8.965348671639182 12.179561433731841
P 10.392266681331222 8.32398626546429 14.303288751819277
P 13.060208745664632 15.102211920258215 8.634234297213533
P 7.01902042229597 11.735715607632997 11.601432287807102
P 11.455881711192475 9.5346703560296 16.053485508548434
P 12.633009632508653 14.144691653720162 15.053258257169038
P 10.679537458190387 6.760014062398987 11.31693078699515
