55
Energy = -281.54761048 eV
P 12.884056991220444 13.54197803744329 5.891222457231552
P 9.208425537802606 13.55737811127679 6.515691266961096
P 11.078150167171644 12.208680963398217 6.260847885204518
P 13.558203075829196 8.708415383663613 7.892307159712702
P 12.466564409107853 14.699679829935613 7.83654772792066
P 10.69831596051895 13.32552887655358 8.123267109190136
P 12.949174392427864 10.690083021629748 7.427409990107294
P 9.7640140257547 10.539402221977182 8.10313321387455
P 8.09246870334372 11.658291439248003 7.076150457138206
P 11.846171601379538 8.680498432703123 9.280361446052813
P 6.749990284740164 12.087978393621688 8.78353571163216
P 14.308656810797627 11.911195131720957 6.368690318481526
P 13.988793603701462 13.738872024551311 9.129199558088978
P 10.851267390891067 6.844240907743176 8.504151935390821
P 15.909961183599581 8.982581336747065 10.76171197902749
P 8.813070423565824 14.659969960470963 10.750952988169916
P 13.077288505740341 11.813582388446537 9.809561517669389
P 8.456255793454353 9.176905125580657 9.247664195615616
P 10.141828514763322 11.91343096651094 9.834188635676897
P 8.06877668432311 12.520272809239888 10.548683585221077
P 15.651727968081055 6.872940108535403 11.196889346114173
P 6.419150610386184 9.962392174734232 9.196143212576613
P 8.816889110594865 7.199743770464098 8.307130584858134
P 12.50886435286503 8.029934845915562 11.31452894601429
P 15.763893250252737 12.12397309070661 12.341765091096123
P 14.992565485236467 10.112063717821023 12.329521400587504
P 13.900755944286944 15.156321086058881 10.816093265764954
P 7.400362477086854 9.129928216712992 12.259961235641894
P 14.059811554098415 13.718457140019478 12.488409484552625
P 13.546720180516681 6.054381886529052 11.337011371170336
P 10.431997813176562 7.427708966712828 11.917556613014813
P 12.806887125763732 10.00758910976858 12.887802945098267
P 10.680913577035726 13.946624602177115 11.872755367200801
P 12.48150165170912 12.378152064779082 11.796394622836054
P 7.39219976834739 15.191615211309111 12.344431859694211
P 15.954246895223775 6.449419664724761 13.313411365435774
P 9.382252638092924 9.381044129106133 11.335574835444735
P 11.979563829067194 15.584232633496558 12.426023286684565
P 15.686557372225396 11.07575381015649 14.318694628200817
P 8.184755301857384 17.125098696220405 13.183380605012028
P 7.799917729175586 9.679551760042136 14.226048080436007
P 7.944168335170486 14.060062492940217 14.21584585503355
P 9.632126846595119 12.850313647113904 13.548337179486847
P 12.75907900394392 8.27005509151079 14.444494270213067
P 10.481551044253447 17.268645205055904 12.963787893559793
P 14.016618066966823 5.690109800473526 13.482664397649932
P 10.613779579293137 7.7880576296445145 14.195345399925138
P 9.95684758003719 9.930180730021554 14.011676770397607
P 13.469097398506129 11.292529910322905 14.741407715512882
P 12.907483995850574 13.267699570888409 15.31013304526008
P 8.604694692090009 16.07156985517378 15.13290935242713
P 10.55876434202439 10.695224472997673 16.026848265736064
P 12.635879976128113 9.776140694330799 16.14428978374024
P 10.77724271979371 12.912687032779564 15.50099447381433
P 10.78189315607594 16.153027250236132 14.818653743384495
