55
Energy = -284.32042399 eV
P 11.675818192968906 10.72872618193042 5.662110740143386
P 12.228686078676914 12.963377210248623 5.372626194857565
P 8.082928262761135 10.621891162574421 6.910621410025206
P 10.226809201023165 10.09735636383392 7.282946059554224
P 13.87227369862266 8.74858140003213 7.327871215521285
P 9.26761277108555 12.140462218725787 8.132985931175295
P 11.471596375444399 14.219485374837582 7.02144499801634
P 14.273309614332316 12.26604311499246 6.050295318969302
P 13.116046073009827 10.884938504188643 7.367605802939381
P 15.588648312174152 8.832270048655838 8.764577034548259
P 10.427543578343084 7.971583637492472 7.457377611546289
P 8.26553265053607 14.091091515485036 8.916740669166568
P 7.213088798548484 9.910016087658354 8.897597871739244
P 8.844413241615289 10.89359152754041 9.99452705026982
P 13.377169773418261 15.410078424987276 7.4014735576904265
P 12.299918693089252 7.83184242460809 8.554418614913033
P 14.917526586782401 13.826954168440475 7.521320049822519
P 10.291104367737887 14.726686295416897 9.784626349956257
P 6.85902716657818 13.45147635324373 10.450149949472687
P 7.390352300443768 7.78585833097011 9.581054836713413
P 10.136147505496629 9.303512187645135 11.128955968230489
P 9.515110854380447 7.349722223457255 10.101016663122085
P 15.402782866708808 10.273751863000882 10.452855789717937
P 12.207059750106406 9.232271029087135 10.354369289203822
P 13.660942954638776 14.1944786751046 9.304960101110005
P 11.691676290522699 13.062516672572125 8.941889158346608
P 12.220766801515152 6.009678212992082 11.458494947016435
P 13.423054820469616 7.91927925462369 11.898262490639105
P 7.628682222820843 11.771630053349538 11.67903087175668
P 13.348648269405562 10.998063780282108 10.858054156088526
P 15.415632972654839 8.029736276350327 10.842971815406774
P 9.988239510168599 14.30108224813581 11.951783121148779
P 13.374482072736834 13.694165959098818 13.278239675623652
P 8.98001399129741 6.2562010221338635 12.050810932431903
P 6.4305063559925255 8.385151689087868 11.501888833291488
P 12.292266109314532 5.509203585561208 13.653801768508046
P 10.886872426977252 7.085551506809568 12.910163319824386
P 11.96187751028125 10.826134624093399 13.987589370013245
P 6.552735771165363 14.873595740366513 12.176404355665394
P 7.496737300247755 7.532027874514254 13.038958540895717
P 11.804604994877952 15.158712057684099 12.972253432932991
P 9.504445939934788 12.293961366208627 12.728941864674477
P 13.892942555839323 10.089948747799575 13.254206370029502
P 14.055022419830697 6.85661621984645 13.858586192746134
P 8.542077850127402 15.824440069525805 12.667331557821372
P 6.309991446133147 13.222877037949075 13.67150932165861
P 13.692745120225874 13.701561855223645 15.405849524447772
P 11.66046431888905 9.098044878915744 15.452611376654158
P 11.524200525430368 10.364702345237008 17.209258912897873
P 10.875160683616661 15.560483643200513 14.978624809826794
P 13.86280491785579 8.630048580107523 15.117663300845631
P 12.18685579885904 11.921602348693579 15.888017393178977
P 8.280262444213976 12.963431054832654 14.528680130510338
P 8.672568422964156 15.134072394520013 14.767162536165639
P 11.723770779415263 14.060992888434008 16.367991152833127
