55
Energy = -272.77864407 eV
P 12.450542 12.450542 12.450542
P 12.450542 14.13799795635778 15.574630079362004
P 12.450542 14.13799795635778 9.326453920638006
P 12.450542 10.763086043642048 15.574630079362004
P 12.450542 10.763086043642048 9.326453920638006
P 14.13799795635778 15.574630079362004 12.450542
P 10.763086043642048 15.574630079362004 12.450542
P 14.13799795635778 9.326453920638006 12.450542
P 10.763086043642048 9.326453920638006 12.450542
P 15.574630079362004 12.450542 14.13799795635778
P 15.574630079362004 12.450542 10.763086043642048
P 9.326453920638006 12.450542 14.13799795635778
P 9.326453920638006 12.450542 10.763086043642048
P 7.243473910128653 12.450542 9.775475050145348
P 12.450542 15.125608949854831 17.657608840122133
P 12.450542 15.125608949854831 7.243473910128653
P 12.450542 9.775475050145348 17.657608840122133
P 12.450542 9.775475050145348 7.243473910128653
P 15.125608949854831 17.657608840122133 12.450542
P 9.775475050145348 17.657608840122133 12.450542
P 15.125608949854831 7.243473910128653 12.450542
P 9.775475050145348 7.243473910128653 12.450542
P 17.657608840122133 12.450542 15.125608949854831
P 17.657608840122133 12.450542 9.775475050145348
P 7.243473910128653 12.450542 15.125608949854831
P 12.450542 17.150869374598265 12.450542
P 12.450542 7.750214625401734 12.450542
P 7.750214625401734 12.450542 12.450542
P 17.150869374598265 12.450542 12.450542
P 12.450542 12.450542 7.750214625401734
P 12.450542 12.450542 17.150869374598265
P 13.569938921704548 8.89278757019497 15.980786964524071
P 11.33114632804485 8.89278757019497 15.980786964524071
P 13.569938921704548 8.89278757019497 8.920297035475935
P 11.33114632804485 8.89278757019497 8.920297035475935
P 16.008295804930246 8.920297035475935 11.33114632804485
P 16.008295804930246 8.920297035475935 13.569938921704548
P 8.89278757019497 8.920297035475935 11.33114632804485
P 8.89278757019497 8.920297035475935 13.569938921704548
P 13.569938921704548 16.008295804930246 8.920297035475935
P 13.569938921704548 16.008295804930246 15.980786964524071
P 11.33114632804485 16.008295804930246 8.920297035475935
P 11.33114632804485 16.008295804930246 15.980786964524071
P 8.920297035475935 13.569938921704548 8.89278757019497
P 15.980786964524071 13.569938921704548 8.89278757019497
P 8.920297035475935 11.33114632804485 8.89278757019497
P 15.980786964524071 11.33114632804485 8.89278757019497
P 8.89278757019497 15.980786964524071 13.569938921704548
P 8.89278757019497 15.980786964524071 11.33114632804485
P 8.920297035475935 11.33114632804485 16.008295804930246
P 15.980786964524071 11.33114632804485 16.008295804930246
P 15.980786964524071 13.569938921704548 16.008295804930246
P 8.920297035475935 13.569938921704548 16.008295804930246
P 16.008295804930246 15.980786964524071 11.33114632804485
P 16.008295804930246 15.980786964524071 13.569938921704548
