55
Energy = -284.92834863 eV
P 8.893208378565312 11.62276015678684 7.597665350245898
P 16.084411475673924 12.219241294790995 6.8901675240434255
P 10.294718609881533 9.927348204970157 7.185680522526152
P 16.430640069915537 14.200452990639143 7.433335272703284
P 8.870745003183568 8.253448937257604 6.804377563458604
P 7.339787796776954 8.411723129912186 8.52453580412877
P 9.523713247434387 14.766278723244984 8.920119388279419
P 11.428024489779121 16.010438611607594 9.225838703055327
P 10.205759949555961 6.635797327330643 7.31255584541863
P 7.666652266300661 10.563309197126783 9.128225044076753
P 15.718048529641731 9.85510049352863 9.387561042576056
P 12.958816213621175 14.370083180246949 9.084227546826842
P 10.366850042330764 12.709812184772849 8.886764103782939
P 15.003221495961938 11.895846424426582 8.758495279179598
P 16.173591883239204 13.644157733479368 9.532085255365818
P 13.833060283150242 8.740637811219216 9.676065784077025
P 6.04327886171802 11.722728962539628 9.92577362924036
P 8.44438697517409 7.350482250195836 10.217950534681224
P 10.533378519178264 7.338243594453533 9.327597577650389
P 16.55062683404084 9.752189280729878 11.422084884123368
P 8.236115837670177 14.990728901464884 10.698465270701139
P 9.32957623534139 10.138782581117136 10.547791038890837
P 11.491953206413768 16.569882735530307 11.348782500315258
P 11.053216219939971 9.562717409250139 9.237084006908775
P 14.957927091164112 6.899858483786884 10.005199038406431
P 13.380035465917322 13.594540165234546 11.1399636789975
P 14.665074252104493 15.178934282531868 10.266247043806294
P 8.593852120416793 13.087823067723983 11.893071300816997
P 10.362849581015121 12.034380238828053 11.028522703012614
P 13.50200156958865 5.865560786943518 11.323540115815609
P 13.00173067329621 9.275936246585138 11.7093658014586
P 11.299883861541758 6.1963666361258225 10.999794120639686
P 9.282476365869115 16.75433864177495 11.592184091412237
P 8.71877586518787 8.66754495720482 11.942435598677863
P 6.793169767279507 16.15201829446439 13.513824508941623
P 14.835031803499325 9.97858536417625 12.86162585343708
P 16.508243237415968 7.504177377490106 11.587788965132724
P 6.784185444345931 11.871828521909757 11.951002216855613
P 13.227094284092834 7.386937299664638 12.873770451208353
P 12.679905988574724 15.546131061875057 14.154930285950304
P 14.617813275979804 14.489323692330553 14.562034271934484
P 10.334500813597982 9.715370744536445 14.81837007422372
P 11.788033217509355 14.597565096846862 12.317039158499623
P 8.921916380325923 16.683781841976717 13.791184434767782
P 6.484644150328926 14.089440615272906 13.791864085357114
P 9.597116523915934 8.242907220890153 16.34402188597327
P 12.399949732193164 9.335764079898263 15.549848897874284
P 14.139336924306862 12.565489323502064 15.124804933877687
P 15.362259912040912 7.868402325301819 13.529041945149627
P 9.368318335422877 14.913963168386847 15.06299303415487
P 11.516200315143399 14.454304227037193 15.677925662261124
P 11.258540824697553 11.046037069256965 16.361751008242365
P 11.502704622579053 7.954971707692798 17.08247367019776
P 11.96728473707057 12.479799941672306 14.766152406270436
P 8.508872348912115 13.149237312279967 14.137511194214374
