55
Energy = -283.3698297 eV
P 11.879947815784156 10.908374538619059 6.551017404911923
P 8.255315926867121 11.371065467614269 6.680161066673039
P 10.058009267055136 10.553013068946404 7.722202190386546
P 14.019934819585517 13.352919185295612 7.622744915098437
P 11.976692434149632 12.657920633985446 7.8950150703809046
P 8.720795355706583 13.225325429331178 8.03689035461532
P 13.01668385900027 9.489529575823886 7.919531814980495
P 10.581293261599663 14.056155130148065 6.945363474673641
P 10.363457408369793 8.601071430046943 8.67231211112134
P 15.351330698206214 9.930104211413667 8.02408031805057
P 7.074202310827293 10.120539733484367 8.106953279325275
P 14.682075781947944 11.740077890046297 9.195656122504465
P 9.894448950837635 11.925221070617193 9.492387959917636
P 11.258849064361307 15.579452522787571 8.514464199408852
P 11.930460163599063 7.655684694293502 7.491208226211061
P 8.143740424256174 8.113700422206902 8.312571003862528
P 13.493732653973233 15.316385949373608 8.722606789115398
P 6.006352773857096 12.070051172393919 10.339140888808943
P 12.769781032264714 10.60775560289856 9.880832919579028
P 4.7406530223333965 10.310133874827702 11.018417475021856
P 12.082699707648246 14.408161672370287 10.195615594211576
P 7.929600529201987 10.860868037176925 10.206115570449288
P 13.414711250068544 7.040542690498894 11.193371169457908
P 15.851202677438515 8.880242542191072 9.77959330979463
P 17.48360225012085 13.590181288108159 11.8360016819722
P 15.809480954655516 14.812776845970493 11.121180277555737
P 7.8847207730952045 8.52398881285975 10.486615260782214
P 5.756286371927704 8.242933572709957 10.982497097289691
P 8.34842988133357 10.992833419975762 12.630829475549357
P 14.386764193161998 6.656910282620872 13.217042182709777
P 16.743938593266726 15.314994084547369 13.08399185292581
P 14.07210164232015 9.167299269452842 11.01833691953178
P 10.90620813360247 15.532585746192536 11.842683081856435
P 5.935154168302581 13.314830199670102 12.060253593424557
P 15.381190545837022 12.838137909710206 12.140407437135718
P 15.874006365151113 8.052458269700402 13.976653833118716
P 11.568136750386763 16.966642857626862 13.36212219083645
P 9.101632945013467 7.534451279965573 11.895448727535493
P 6.108252739863405 8.354594329861525 13.186435828450897
P 12.3920187656808 7.547488135134058 13.134722544063534
P 5.025291606448474 10.365418908114904 13.231645814604903
P 12.892508398359597 9.718385798767672 13.21066827387659
P 6.57774572579655 11.919116053087276 13.603061860822292
P 15.573345543976197 13.748485707447825 14.185796208500932
P 11.710579983003761 14.905032236888509 13.789177875865299
P 14.92724149004979 9.991620650493719 13.986350234042419
P 8.279275018538671 8.862828927922667 13.417131950143524
P 10.358600790250549 11.679032712152758 13.413046283673038
P 10.003950741310954 13.577723347333643 14.627992002166952
P 12.237148293731844 9.41396716233281 15.361488556320523
P 13.625213300108081 14.354301890406344 15.011728915560209
P 13.948122000917397 10.67679154314441 16.044014656658984
P 12.935337411270478 12.257803101871545 14.864567838638404
P 10.325394661751803 10.641728923023875 15.419772863210394
P 11.215975622915057 12.553987037603001 16.223708303703425
