55
Energy = -283.43999175 eV
P 8.1325371739464 9.260540112927405 6.828941815738268
P 14.13158263880162 12.877262533427109 7.2479191645193355
P 12.816827864341944 9.646336089731752 7.1315357761963485
P 12.168969662729932 11.803980128098841 7.1837661718733035
P 10.997133173774507 18.663200279502014 9.647014015906048
P 10.62076646489868 11.717441030458673 5.697661890631783
P 9.508117349102596 7.666325163204529 7.72408227051107
P 9.613742525096672 10.83994197359207 7.434204531601078
P 6.911790001637393 9.563048918159284 8.770949143096304
P 13.134566910774366 13.962573354090026 9.064457088500276
P 15.49100363076033 11.276957469361337 7.737447794075031
P 9.621455447688836 13.741256567510636 8.55456751934544
P 10.901462267842378 17.01396240090615 8.194928177562048
P 10.988117351897513 9.244111717209742 8.328683499577627
P 9.454952473166221 15.82442898087685 9.334882914718007
P 14.433586719660962 9.562002999423285 8.61081504079218
P 7.948599752328296 12.96071719637758 9.820936745952459
P 8.500021168496822 10.75809412107634 9.803462063925048
P 12.734226953164592 17.31567877669736 9.40235577802858
P 7.862293236480451 7.622669983404328 9.325585954411194
P 11.421119766743765 12.565047566935956 9.253018721451454
P 13.646102526897856 10.237353460647638 10.6092813854431
P 16.280329487494978 10.91156122148254 11.345019679689184
P 14.474065751465623 14.086652344678212 10.850087695423229
P 12.170048090022487 16.91386961159191 11.487530883734582
P 14.49338005120893 8.557014797719996 11.809962812811067
P 11.371234464389715 7.649447179053978 11.232358073652406
P 12.813747467067257 7.522672341060537 12.887527011953155
P 7.597326814190513 10.15852800695235 11.858160781535808
P 15.67568910716871 9.81948580467129 13.205769468949924
P 15.563606882478624 12.709241593535818 12.351166633275533
P 7.768281955824583 7.963230038244266 11.582809156320634
P 8.859865718628864 12.862964459626681 11.841340555123308
P 9.383493529422282 10.682790971694645 13.14538327878147
P 9.614220246208586 7.209235885189545 12.589662451957878
P 9.996435772467148 16.504379945367088 11.431428924657256
P 12.770996044628012 14.711424596077897 12.086825245336863
P 11.422756070348038 9.814105737373447 10.686128849602714
P 7.611591098913313 13.484136143154352 13.462305503152843
P 10.44116555915734 14.387274427812073 12.161801664105363
P 14.242694472942999 11.53656118273858 13.748535534775645
P 11.805312570756625 9.161429520562987 14.019900716860827
P 11.577694942583323 10.926670239782132 12.766682533442562
P 9.653380062917604 8.655302557637208 14.321311029276098
P 12.861052162545985 14.15225058247561 14.15001072852972
P 8.965709001174766 12.309045716908475 14.666970138076946
P 12.874866202329516 9.596943953812222 16.015685865604805
P 10.633411826179529 14.124202962716133 14.336870070725803
P 15.120079189865232 9.613392047524892 16.26095335969521
P 15.32261090343264 11.774607417463159 15.750635435777388
P 10.795626801607273 10.520820929783799 17.868700002367518
P 11.952263021085201 11.588000154768121 16.300361422547297
P 13.800894921362985 12.288171579805734 17.370629380833293
P 12.33894883012851 9.047822185613862 18.095166380014184
P 14.385841396738066 10.311428516469457 18.283416744521578
