55
Energy = -282.84913514 eV
P 10.325095636289431 11.718482138480317 7.308538101925681
P 12.246647264105356 10.78724198795302 6.626615063805382
P 14.268412180688616 13.441198369075723 7.341997110439899
P 10.877435959968965 13.844211877432961 7.948450524546132
P 14.17729892631029 11.414058953342774 8.108712679166379
P 11.966261855131119 8.719215770372083 7.232330591690971
P 10.061988625634664 8.632006190850523 8.458120348292818
P 10.043355049995844 10.726122198512664 9.261442890505982
P 8.967661453409416 14.357271457717664 9.024096098349204
P 13.543475211035707 12.387112810199753 10.04046302274012
P 16.465404131418737 10.983216309268146 8.907902551696223
P 14.88259409398449 14.057996562617577 9.331778162512004
P 13.58634426797672 9.153741870761198 9.053016187540505
P 10.72488632765385 13.380800202721437 10.094835993464185
P 11.294477823396658 15.421730322516392 10.819477552839384
P 15.749858426203586 9.20949816928904 10.02070888907643
P 6.4140610068621715 10.58143884536725 10.743770371472756
P 16.837746775187743 13.010158133603097 9.824423537359964
P 12.01845746875199 10.395460618243124 10.285971348800542
P 9.803156634410563 16.44021213155612 9.492211400823717
P 11.163875820495223 8.385584201856041 10.485746893833472
P 8.729768690044837 17.00829132020273 11.328346106652194
P 13.259333405245771 16.25648796716356 11.221342458637732
P 14.260117724442964 11.572501458445636 12.067653513307016
P 13.072940603131052 7.311434843923827 10.328079799547544
P 12.08381902211633 17.410405082909488 12.590884449884442
P 6.707335472447307 8.93089917023463 12.102084291372876
P 7.156079817933989 12.226362233724895 11.945007435901841
P 15.278846021731827 9.590434727741444 12.143453570802896
P 9.167259521106239 11.47025704202094 12.565811573463497
P 12.178769633419282 11.320355138870864 12.844781827268752
P 16.315183642887483 12.98719867192081 12.065666699760053
P 10.2679613022684 16.058631612462317 12.637611711499188
P 17.61292115982022 14.60830567620153 13.324716029017507
P 14.531018205884696 14.301739475343885 12.455545926225264
P 15.791456610722241 12.099614292447674 14.486641141349113
P 8.737055479781462 9.359610739934153 12.977544158627722
P 12.16128776867073 9.16414984975297 13.588818085623624
P 10.473180595636736 7.9932200829495725 12.586787673179494
P 5.861928695434716 12.017391833589922 13.729799212932875
P 5.60143239921353 9.791398732594853 13.862872177284935
P 12.506419503411982 12.782921587197222 14.595343960587583
P 9.350173768748999 11.93253441312292 14.783299668571335
P 13.744468404944593 7.973164873433803 12.39024844073367
P 17.592821710729286 13.333623783691419 15.191768453764919
P 7.233011488251126 12.128512580679411 15.538908117956776
P 15.681451371223432 15.631106796437306 13.77146010887637
P 10.581550789734026 13.701176001522063 15.006649258604641
P 15.226335136118179 11.320360875796213 16.61986754561273
P 10.233711395490285 10.24914693723873 15.816872693284996
P 8.704684692790016 8.871711388766775 15.165956361014892
P 13.078950178965465 11.872034495837777 16.66017456515073
P 6.848751409395838 9.927974133063778 15.781965924643595
P 15.506604228245864 14.024792431844453 15.456870141120378
P 14.571660424553764 13.252275840650585 17.48334281031177
