6
Energy = -28.52903586 eV
P 11.428476198521953 9.410547320395773 9.526158529895108
P 9.55644014547821 10.549377464260608 9.430196552203647
P 10.294006865029424 13.888608835775416 11.526147194725626
P 11.146663175436096 8.932121013628372 11.556836081056277
P 10.006979105005707 12.041079193979524 11.034236898806457
P 9.252195128195075 10.031925917871634 11.665906329229731
