6
Energy = -28.41506572 eV
P 7.234824242685186 6.90668869958808 7.492912539921177
P 9.52286822017454 9.191756816545512 7.471740855537641
P 7.758047566361882 9.932274685268636 8.530241915963876
P 9.340263055274102 7.206443883041615 10.742662499988192
P 7.49043446712929 8.8969054467694 6.553883114500086
P 8.528939019435018 7.845877195977173 9.00261457002761
