6
Energy = -29.44876988 eV
P 3.0965796612963197 4.795182503298168 3.3329504869309727
P 5.144222559943706 4.241892020603927 3.0796309671334656
P 5.126752610145122 4.949112462095545 5.089107223562392
P 6.310709053592461 4.074301117877537 6.6707290504791965
P 3.086970086742626 5.50295827291843 5.350836961485424
P 6.780676249378865 5.982463844305753 6.0226555315077785
