6
Energy = -29.29477218 eV
P 7.966503737818835 9.528522918276447 8.183348771131989
P 8.7501944727854 8.36195449512062 6.494898787355835
P 6.434663224952781 8.022871150814364 8.7139917290147
P 6.7315948364887115 7.396236518921165 6.5178597110353484
P 7.548276283858907 6.136449156809291 9.012336646439653
P 8.543518379726276 6.200376025727819 7.047683002729661
