6
Energy = -30.06012432 eV
P 7.719271424602577 5.893216874226846 6.782371033236321
P 6.814304481565996 6.765527619145016 8.590752071478231
P 8.899326985314067 7.239629216671306 8.065010942243276
P 7.248611255339375 8.044092055801801 6.853045615311539
P 9.271195040700682 10.475171443223003 10.519778221600397
P 9.780190106880681 11.270379226404396 8.869905765479905
