6
Energy = -28.06279111 eV
P 11.230972065229349 12.35706412550659 9.316221841817649
P 10.497741214449738 9.410524533831321 9.868320010466636
P 9.675940624209376 7.315152488537201 10.231248295695996
P 8.835622844770059 10.578619945620792 10.682482372287188
P 9.196399130821513 8.225542148755558 8.49087944990724
P 9.824325547484033 12.499169723350251 10.783784128854476
