6
Energy = -30.08279571 eV
P 8.33595235202968 8.150743228874248 6.433772154247857
P 6.3951239470127605 7.330623504369589 5.7840157027628125
P 7.389568623780354 6.53211099821914 7.583511769983317
P 10.049410820659853 7.845855356570971 9.902072738024732
P 6.5329607472169 8.551552818694068 7.621337992448823
P 8.8526327892621 9.236191884315353 10.413060762089184
