6
Energy = -30.47480958 eV
P 9.235973962025172 7.963294520204808 6.487225356507295
P 7.43308527758596 9.11220872712785 7.174028276122251
P 8.928225417309315 6.058768176872393 7.084736237580074
P 6.751478040543373 8.09334394331166 9.036110572010747
P 6.94061429923023 6.065521227202451 8.12940441296838
P 5.745901205713469 7.655840363067039 7.122526148249573
