6
Energy = -28.52775957 eV
P 4.105198488382164 6.48139741691603 5.715254238461438
P 4.663905516011864 2.5100164877159514 5.9429215809530875
P 6.112864864432741 6.155357379438109 6.8083578539643135
P 4.8961001311322585 4.422352731654134 6.08839368968167
P 7.107144004008654 6.518098922231508 4.886707644837641
P 5.274328738814274 6.812609284483243 3.888298122407437
