7
Energy = -34.9992801 eV
P 8.20924220137899 7.002114243618905 7.915214455468577
P 6.463563843172407 7.924801697368836 6.906880192810404
P 8.374302738967994 9.04306143118349 7.131872537788202
P 7.1314989411642244 8.629258526154338 8.912762442707072
P 10.582669856115016 10.149769095454289 9.031505572781466
P 10.831671442602103 8.427366036487976 10.1883659404977
P 9.274645872090652 9.691223865224046 10.780993753438088
