7
Energy = -34.66356883 eV
P 10.095636146236199 6.307554472848247 8.380055758701012
P 9.849582549238198 8.17497254900934 7.276001486679327
P 6.981371527811254 10.190398934115466 7.481144484603608
P 9.976251687485956 8.175302681164856 9.502469002884519
P 7.104977527872427 10.227844515869778 9.562081243135939
P 7.556797123039133 8.066547890502486 7.39076741315032
P 7.68338562714778 8.105381145321255 9.655482799676703
