7
Energy = -33.10596835 eV
P 6.014025319564536 10.622918606899233 7.034255928376383
P 11.331535154873672 7.307061417336281 9.681198007083186
P 11.731406659126893 8.977694346014093 10.957688897353767
P 9.631740534310312 8.567843822652907 9.522692119604324
P 7.355499999609253 10.429251044043392 8.520515800371948
P 9.87963486499558 10.04337307368164 11.047544669480486
P 8.573171218675137 8.779681557287377 7.755090214278145
