8
Energy = -40.54371155 eV
P 6.9911910502098245 6.560628695995116 10.700413506746433
P 9.519907083098612 8.525839147937273 9.577912889285429
P 7.286964518828087 8.39740783776986 9.445095498806078
P 9.775917697530122 10.7714127134501 9.767224331816255
P 7.07463631816681 6.303428145077717 8.699070894153879
P 9.335010428223367 11.158931202264162 7.599205586119781
P 10.061622167290468 9.040399768796908 7.433189452128484
P 11.387662025729364 10.674863777785392 8.210799130020064
