8
Energy = -37.89758706 eV
P 9.794924881409354 8.537219578685352 10.773242284971937
P 10.903176072053125 10.553963713483164 8.756899841363856
P 7.766013467129541 9.469193959438172 8.158117482598609
P 7.453182749165312 8.76893030874435 6.311172139551
P 8.877094123744227 7.309939850903116 11.992936106223741
P 9.76135939230758 8.531819466336673 8.570442362780518
P 11.172243362302453 10.385078186210624 10.973287828375696
P 9.694192397541405 11.701087506527063 10.142786359624619
