8
Energy = -41.56222314 eV
P 9.099109902613266 6.754389396361375 7.020155820245776
P 9.899655940101708 7.221537191397656 9.144570859827862
P 10.065218768668107 8.669173604002797 7.501374249600622
P 6.99835738246567 7.012303945393567 7.812118713094048
P 7.763109057398846 7.453496739170723 9.839412249734815
P 8.464411600826883 10.192146483124928 7.780796310863628
P 6.53021947669067 9.196163133770897 7.468225789028677
P 7.336099828494285 9.656971464037023 9.58952796486342
