8
Energy = -40.61274305 eV
P 10.150405014903976 11.5020417081067 10.899083449790899
P 10.38251288616501 9.493974405910064 11.518475648984897
P 9.227460074277726 11.832771216794253 9.025813809082045
P 9.53364121355284 8.491452002120774 9.869587242730576
P 8.829913944049217 9.84560924296363 8.439631925000741
P 9.146759198171551 6.501654407144119 9.291387514503047
P 7.900660304702411 8.835504226836079 6.837136944638625
P 8.160135165714436 6.828480591661547 7.450371266806077
