8
Energy = -41.10814856 eV
P 10.173949850924027 9.038285219948692 9.157196522721593
P 10.027133565009422 6.876956873964793 9.683754480358324
P 9.340905910411628 9.133098792979338 7.131149235506624
P 8.605931960197541 8.337882702659728 10.572416667216242
P 7.747453359063152 10.689887628022094 7.365584521270273
P 7.853049092483665 6.762792726249355 9.190287755779696
P 7.718715990959055 7.607373528396247 7.172295625440025
P 6.251240093374037 9.27210235020216 7.445695014129627
