8
Energy = -38.45400619 eV
P 7.752807680064854 11.291075881451794 7.847324277512754
P 9.286166809309035 11.524350653365872 6.5786360986399774
P 10.380724309080698 9.341205990737896 8.483083584405312
P 11.10309759026417 7.5636599667421525 9.261477667569277
P 9.387460500920167 6.331838115158072 9.668219113308956
P 8.274862465203983 7.32043575534055 11.239590683030217
P 8.200605216959358 9.176939985694856 8.465160457744064
P 7.523514529220391 9.10280131158435 10.541613047342722
