9
Energy = -45.8413842 eV
P 10.299425269308294 12.50658362495237 9.341530793358062
P 8.730440007171905 11.528348879552432 8.096631566701234
P 10.941896066351623 10.3961608499153 9.816322719486134
P 10.882728393714617 11.171828860346078 7.704811857506228
P 9.826700800499061 6.677127783455704 10.01265198512354
P 8.815936049320584 9.7283121583195 9.741100864572747
P 8.86021834144169 8.044904638915485 11.470969763074535
P 8.741655262929928 7.8946618671471995 8.462626331309234
P 7.639010547174638 6.790082075308142 10.091364856780896
