9
Energy = -45.54101258 eV
P 5.684112379990132 8.211042968321891 5.793735574135006
P 7.4685005214145095 7.981552270454464 8.512383024021375
P 10.03408854934941 10.483151619847373 9.05061403697152
P 7.62522372567423 8.288969497070848 6.26818112642741
P 9.39875984537329 6.989370182621443 8.850807916667705
P 8.983268434487265 9.85383270834824 10.942202122034233
P 7.878173881221717 10.067568226004967 9.071208326018798
P 10.004340330278836 7.764999406594037 10.798040247497969
P 11.040408237196031 8.438419397567747 8.910005296821993
