9
Energy = -46.48352443 eV
P 10.69842141457456 7.814981916269052 9.02555974526592
P 9.558865667859225 6.60134659659396 10.422531569747393
P 9.603022526259263 9.741482148842353 9.391442192154475
P 9.137335679243508 6.398540404638724 8.300130293982306
P 7.538709883556919 9.098866483488264 9.865245165651197
P 6.98798900277917 10.590246047181989 8.137612248453541
P 9.080296452731144 10.478522586417256 7.356121035387722
P 7.24023570622725 7.5983461145964215 8.268560781070953
P 7.5296878483597185 9.052231883563106 6.607361149877124
