9
Energy = -46.2924386 eV
P 8.761309659084308 6.252345296922162 9.286167044427271
P 8.54863991690454 7.698891001651291 7.602338238605265
P 9.77043815034234 7.2113134237214815 10.790574355732327
P 6.9923161361956625 8.950151132629616 8.647014871469887
P 8.072021616189424 9.988357465079917 10.247537773258129
P 10.202282433465733 9.28091928027891 10.07366495829466
P 7.724999908418343 11.042815444368708 8.297544884650508
P 10.376823449340655 8.862866500278916 7.9279899934488824
P 9.604249640908444 10.765421365918693 7.180248790962897
