9
Energy = -44.36058578 eV
P 7.812726341566124 9.49255202599823 7.808536329089499
P 9.95611935931607 9.62867540388896 12.694863910036203
P 10.846774825970344 7.525787668584704 9.59009602678893
P 9.7294578156606 11.622047556406596 12.095472672055529
P 7.970950223481047 10.093543482139674 9.830658892612467
P 9.756507057239528 9.79145297916294 6.934308833164706
P 9.968367305821547 11.26654008929194 9.898955144894003
P 9.956776274298818 9.207202769438316 10.564299152908436
P 11.174470968535918 8.436705023691404 7.714192347458747
