9
Energy = -45.87482436 eV
P 9.053717120534069 13.720442709362189 10.039615357302244
P 9.458240274662453 13.207433731009491 12.15154037783229
P 10.906658013370933 12.666170791566504 10.58283353624803
P 8.971306561413078 11.623487338507532 10.706352804696394
P 10.04402533890909 9.198511636172183 8.906637365460899
P 10.61273194610685 6.6218431284834285 10.20277880085369
P 9.681937519791251 8.500695184533631 10.976978116103226
P 11.82871473686789 7.820695348828954 8.738777130131453
P 9.878068375903387 7.076120019094801 8.129886398930495
