45
Energy = -97.39371871 eV
Ag 8.238233116638979 12.106900881984174 8.742466748574133
Ag 7.228295595735743 14.320701020196584 10.289094502287684
Ag 7.019645614776571 11.677973766116327 11.296341218402757
Ag 7.0949386501129075 9.609811142079526 9.449428215323588
Ag 9.39442870855142 9.7052867455035 7.744428827501021
Ag 7.446821180322352 8.990760155750717 12.283218538871646
Ag 9.58038164559433 14.641406429037081 8.651741975760809
Ag 7.827969870867005 13.801684156855156 13.088188259939287
Ag 10.789231026904497 12.316406012224851 7.360740558967589
Ag 7.260805378898322 11.263613591535846 14.042474205928047
Ag 9.463619971356241 8.470887011574069 10.37167100165048
Ag 9.275118567631711 16.01178806941866 11.230327341768996
Ag 10.094950102751216 7.977822195743145 13.096802357340422
Ag 9.703880434128097 13.264442372467881 11.176620514278476
Ag 10.693975176903777 10.988593482516137 9.813944620368536
Ag 9.579648797386092 10.737232401810838 12.431645331238357
Ag 12.019787763367162 14.943365783009156 7.190986987675776
Ag 11.799680542959923 8.390986840015973 8.747582039028229
Ag 9.845524532232417 15.464802495300974 13.931124356663261
Ag 11.56736446526893 16.39257739748193 9.56252488795643
Ag 12.088628567802138 13.497224664794313 9.564978702596614
Ag 10.372136328171297 12.662844256883968 14.38277842203816
Ag 9.342926729327266 9.85056474445299 15.152243661378979
Ag 11.447565613624603 6.562705256043026 11.049807720157915
Ag 11.887402360116274 15.096914775107917 12.03478540361001
Ag 12.405519896520087 14.864488838864617 14.794129093840748
Ag 14.260229998753083 13.355256664566182 7.818439715163779
Ag 12.163531356011518 12.105487163537221 12.011740121868074
Ag 13.201384837510954 10.836710396246469 8.647898406435907
Ag 11.84955423966302 10.07714501284656 13.942317254967582
Ag 12.384091099108469 9.327316868464418 11.304722188194033
Ag 11.455487549058128 7.954646458628073 15.69643777286324
Ag 12.923777462545736 7.3769893944538225 13.344050893752701
Ag 14.614645185132439 8.436104173784113 8.153832289241812
Ag 11.662356180917646 10.670915943139105 16.625597108034132
Ag 14.147427037330743 15.222043160966662 10.217400344569562
Ag 13.255275692791798 12.247580722989914 14.944905460651968
Ag 14.255266748556158 13.842649878464941 12.830396721364748
Ag 14.13256508355408 7.194941989347126 10.669240933990013
Ag 14.732267286430979 12.40147920577377 10.462822281459939
Ag 14.540985058250932 10.866131971848388 12.867477163980602
Ag 15.905753237230842 11.094567657833077 8.177204784747081
Ag 14.094332709319133 9.33507132686446 15.289742419270734
Ag 15.398523657522803 9.677842842952092 10.507799321789443
Ag 15.533379059112223 8.248505081393095 12.9428481210737
