14
Energy = -40.84965275 eV
Al 8.909587398333656 9.357254221127066 8.769277495487001
Al 7.88698135815377 9.782991927285334 11.223238947564768
Al 9.926924453841059 9.243480802867554 12.99716115507362
Al 11.642185236709137 9.080863945875505 8.710324252568295
Al 10.458200249551426 10.38535700058225 10.686007562460484
Al 12.326974339124147 8.583627740656596 11.402770420104352
Al 9.767377457495039 10.793417629140801 6.560862677340208
Al 8.742203441856374 12.004205880666198 9.485466514388982
Al 8.979770151177346 11.955979484970864 12.298347034332071
Al 11.337647463727677 11.808975145362492 8.605132910431541
Al 11.062449761227876 12.99194720050749 11.008320252032716
Al 11.744160854147527 11.081505113435716 12.874790513969462
Al 13.082964715779443 10.956781638573041 10.469192161320544
Al 9.906481883357733 7.747520268948501 10.683016485167508
