14
Energy = -40.84826006 eV
Al 9.8336765 9.8336765 13.739551712610023
Al 8.37156855325819 12.089807884154872 9.387419327517096
Al 9.8336765 11.583008917663545 11.585126812429111
Al 9.8336765 8.542217083541846 7.2597304317527795
Al 11.29578444674181 12.089807884154872 9.387419327517096
Al 9.8336765 11.125135916458152 7.2597304317527795
Al 9.8336765 9.8336765 9.55538396544968
Al 12.261845938686005 9.8336765 8.380291173790114
Al 11.915488790984849 9.8336765 11.188280626564858
Al 7.405507061313994 9.8336765 8.380291173790114
Al 7.751864209015149 9.8336765 11.188280626564858
Al 9.8336765 8.084344082336456 11.585126812429111
Al 11.29578444674181 7.577545115845125 9.387419327517096
Al 8.37156855325819 7.577545115845125 9.387419327517096
