14
Energy = -40.91051535 eV
Al 10.159729368961623 12.179747505382878 8.229151478738103
Al 12.116346978388052 10.195810636582182 8.360787481343463
Al 8.915068441324918 12.376362893964908 10.709713904981797
Al 9.634537916585712 9.69211228090752 7.1581338992774235
Al 11.671034778892558 11.853830219516837 10.542588991650483
Al 7.657142214184917 11.047492941840746 8.616197114049264
Al 9.863624643466189 10.101004721890176 9.804527762097178
Al 9.557725252119386 8.069826609012264 11.445175919829229
Al 12.09034238225101 9.168522581589727 10.986968192691672
Al 10.109717011031728 10.563988220735347 12.432757938059543
Al 10.821051657503457 7.8341317227779355 8.887798148692497
Al 7.59386135017451 10.035770466600209 11.247426320723939
Al 8.035944362930476 8.369655439546337 9.044424986431446
Al 9.03107977246985 5.768949889937451 9.791553991718068
