14
Energy = -39.90045611 eV
Al 8.498722745332463 10.209033959027092 12.061648343458895
Al 10.089083421813651 12.31419937223132 12.526126846291747
Al 12.385089044557377 8.91428404274298 10.567019646281324
Al 9.96887662040359 7.971855392585534 11.814704767161118
Al 10.584977953770059 10.8869621357033 10.34914971974798
Al 12.3364883276634 10.436990247414816 8.30121608678318
Al 10.12028188821528 6.2658958796403414 9.842251600145712
Al 10.76369358330491 8.269751503341862 8.290684847642698
Al 7.920354811327711 11.59845124567522 9.802490835255856
Al 11.33026298426943 10.024521346104919 12.83423725159212
Al 9.65906135705819 13.66583500702368 10.402010710850709
Al 8.65720920758621 8.959692576653794 9.735079419958893
Al 11.014554098945244 12.697712297496755 8.463109542361007
Al 9.479359822070348 10.592830860675528 7.818286248785747
