12
Energy = -21.78510235 eV
Ag 7.526115914835091 8.709913990108062 9.908789367400194
Ag 9.634903818710194 7.950827038732181 7.990678446057652
Ag 7.010903006318453 8.210206374384926 7.2733848325735515
Ag 10.574461091845327 10.058729018512835 6.26009347431363
Ag 11.27344344995403 10.099316251717656 8.906423436140248
Ag 9.156499760679704 10.853594586449171 10.823012639686175
Ag 8.232034247768267 8.741929225308231 12.552051612181508
Ag 11.785866753068781 10.599645394545252 11.538520293951226
Ag 8.502814135979168 10.550833081079489 7.964805110909888
Ag 6.6793281699044185 11.414205338134408 9.789251481558697
Ag 12.11769452768526 7.392109561603467 9.012193468402499
Ag 10.298636173349394 8.258072856806626 10.846253205542517
