41
Energy = -87.89214396 eV
Ag 8.714220538025693 12.145183388263886 15.045333709316534
Ag 7.32654506092072 13.923374706972382 13.258097634458368
Ag 9.943024843715015 14.432247033516749 13.989951964698411
Ag 12.710575218004918 14.712757749531605 14.412340175870247
Ag 7.291051092431404 9.91068442554748 15.929441062661223
Ag 11.512883816572417 12.242434318973766 15.071619761687
Ag 6.675021507584687 11.088938260737418 13.462010832823468
Ag 11.66737906184621 15.830848179247653 12.095076262087439
Ag 9.264563983236362 14.739023981003317 11.21363709156125
Ag 10.154312585653562 9.763890118115473 15.596666742375666
Ag 10.237444897146284 10.701860570324742 12.94042326957919
Ag 14.113270859246118 14.370528609797994 11.911757998248088
Ag 14.128058981675554 12.3663345193677 14.023447311562386
Ag 11.579466599375426 13.005827655120582 12.153814464969114
Ag 8.391451027915755 12.106073122314342 11.402938488509887
Ag 8.302106073484149 8.769132610535515 13.57957216639521
Ag 12.934763060576708 9.807468589792032 14.95425159294216
Ag 11.77221267463545 14.47519725099739 9.585214475950737
Ag 7.054287799865219 9.594929317383917 11.185936874447481
Ag 9.394577043821407 13.14404306445274 8.92279273966285
Ag 7.232271134588344 11.32529905200234 8.993873445455318
Ag 9.59368440911163 8.410439324092959 11.06822715163254
Ag 13.465087586156823 12.308406799835584 10.097264985713103
Ag 15.997450518323738 13.988962041030495 9.821302720257338
Ag 15.520721847022784 9.998856862762679 13.637739995899063
Ag 11.777687824322053 12.287317692982198 7.641495973863609
Ag 10.897972302034704 10.94239977577779 10.148477241487377
Ag 13.929417708314881 7.882085023887128 12.956230324798707
Ag 11.163442920502307 8.103041067665803 13.402370438200599
Ag 14.149800228377728 13.712736398415894 7.790488858365322
Ag 12.991094304919637 10.492301860191908 12.189595180244932
Ag 15.742063115798244 11.954020192111072 11.697254678340396
Ag 7.973708725099345 8.638385798661979 8.728198992934537
Ag 15.044654662001872 9.344951108132488 10.724217522909667
Ag 15.684327573244955 11.417667737169184 8.723207764036582
Ag 13.233642864198822 9.860667660102827 8.604805136809189
Ag 9.477292430654472 10.706147623876792 7.5039065848557245
Ag 12.370667272937588 8.08992543877167 10.690416421511495
Ag 11.802892223694469 9.842708582862757 6.185982862577616
Ag 14.158499900935828 11.340404774966423 6.3127833110891975
Ag 10.784521496224807 8.46286000888473 8.472436793591841
