43
Energy = -92.77825672 eV
Ag 12.319583290791781 15.789009635276582 12.08077272918591
Ag 10.445572066165242 15.323910069507894 10.032597469876059
Ag 13.897340637067064 15.611062152823829 14.575880644679263
Ag 11.237416835190109 16.609354763358276 14.489169159206519
Ag 13.316985528784182 14.510768476870945 9.657491634503364
Ag 9.809528541181649 17.264757129787522 12.074973369197883
Ag 14.463198765343318 13.961786513075126 12.166913568242508
Ag 7.887721012258505 15.406513898269463 11.012547910726948
Ag 11.222086749040443 13.244839034488326 8.230231993076172
Ag 11.519908280001115 13.083599677589584 11.269472710209946
Ag 14.918647030773023 12.914861436856217 14.675369973301805
Ag 13.047661162354396 13.523370309978132 16.634287862666795
Ag 13.455866713411853 11.267213614527856 12.587187628376096
Ag 8.522949299018366 13.475265307291712 8.99409461272627
Ag 13.985732497170233 12.883450812661556 7.502505278406122
Ag 10.398967006680055 14.224638396285753 15.924175772869964
Ag 13.026071135987443 11.31369062903871 9.59005195649583
Ag 9.726269931002772 14.711051537554697 13.079323085159595
Ag 12.182452564816426 13.55302563981713 13.935435044536657
Ag 15.489082551688712 12.500319792143635 10.03683357519901
Ag 16.135141355972067 11.249325268087203 12.661626570238784
Ag 8.553165697377898 12.65525720957772 11.611690610513165
Ag 12.065426772411485 10.835368346237214 7.009081858827777
Ag 10.761097512187478 10.916954597792262 12.779225780320276
Ag 14.401035164402133 10.264512072057723 15.064905152203234
Ag 15.203950453973393 9.710018754985533 10.419243550753361
Ag 10.261818385318563 10.826323658183565 10.003482574046016
Ag 7.516441877504825 10.828948902917837 9.655990961246877
Ag 9.043726284606484 12.27635376825393 14.40958465118277
Ag 12.306774850667408 9.074555230224671 11.212090734693952
Ag 13.228865047100253 8.685191292430398 8.487204472280592
Ag 9.297557181804166 11.26585437051551 7.425653597240822
Ag 11.704017771578316 11.301803954093792 15.486005226299277
Ag 12.160078932875157 8.779948855896446 14.22332682254567
Ag 14.147089649872042 7.031086645539228 10.508489900486293
Ag 8.168759171265828 9.951748736681964 12.312045233648695
Ag 9.98078954860562 7.730749854934456 12.606900115806464
Ag 10.486821703450111 8.761006840649259 8.047571660961664
Ag 14.651223500559535 8.528237161169299 12.898179248253781
Ag 9.49470683942865 9.487452824459737 14.803261284004076
Ag 8.766532698088724 8.268658038271536 10.149276408501123
Ag 11.26685639471334 6.84544062608498 9.987406656853972
Ag 12.486270429875388 6.513902986118562 12.649629772813741
