25
Energy = -49.96364865 eV
Ag 14.478197507929444 9.404061497096478 9.525165156704611
Ag 12.730503425043413 11.292582906732958 8.530063425752422
Ag 12.205378166033485 8.521290171406246 8.181980286199753
Ag 10.842980587761351 13.137144758487146 7.667090899691105
Ag 12.592498276439724 7.964428925921843 10.945318268658646
Ag 12.948949183085809 10.759901540472983 11.43029671999973
Ag 9.629158085867633 7.745168705282714 7.449856373644804
Ag 10.29364562081056 10.43196450542082 7.406435724725131
Ag 11.102534217009207 6.232170793023074 9.33104792184432
Ag 9.18502453735199 11.409221580281217 11.193201166098257
Ag 13.26513114828725 13.394175190798462 12.552089529496211
Ag 11.552988888369304 12.947128956653636 10.395690503281754
Ag 11.045998346955145 11.99187582390754 13.255907839489694
Ag 8.378987821152911 12.15737252787852 8.607933816068744
Ag 11.709914131586354 14.235038606847045 14.72139977143255
Ag 10.420076946620856 14.575252361937807 12.340991580212329
Ag 8.51539770195353 14.562383662104429 7.244798796952072
Ag 9.313669707730234 14.472068349139155 9.868245920375783
Ag 8.41302480684008 6.821208267410904 9.828919237834224
Ag 10.319622447583278 6.724784057851389 11.953424742365119
Ag 8.365587035111874 9.507560509048092 9.215813935043101
Ag 11.037533768815138 9.258933087095137 12.853815531552023
Ag 8.277381934682815 8.73712939164484 11.864463936116204
Ag 9.170816333578314 7.745456481190061 14.305058554521747
Ag 8.796589324197578 10.552542123073916 13.9082013745606
