14
Energy = -28.27750064 eV
In 7.404068777588436 13.618554062327402 11.748737658305739
In 10.199769418163818 10.419278374813508 8.171162340550017
In 8.774784996362097 11.043262370852728 13.132106570739916
In 12.511774054223865 8.513734734827736 9.08467986498522
In 10.327567126445453 12.866190545040716 10.41835639411417
In 7.7624666133056675 11.064526746158556 10.032890460166351
In 12.78981085922623 11.544685867527024 9.927077530638586
In 12.913474663510678 8.820681466552463 12.306805367847785
In 14.769347891767309 11.502343311015393 12.388683182286536
In 15.275044213374994 9.391194202739042 10.180839552208205
In 10.168548916860725 9.261428807024547 11.132945285091683
In 12.925417225058435 14.023652161129291 12.139028445451533
In 10.029667940855148 14.049445063138654 13.332325660671538
In 11.760766273494077 11.36497352143407 13.45429050045339
