14
Energy = -28.97884188 eV
In 9.202704563045176 9.33731085541016 8.474013587862217
In 12.321200643195082 8.968594519447684 9.216974317603281
In 6.003216700342986 8.893492521536052 8.591803447277016
In 11.02879748455697 11.666951549634533 9.36708718656359
In 7.937898758060247 11.991940276806849 9.339221356847442
In 10.73975218730025 6.267545704073042 9.05931361851361
In 7.878714782280112 6.649191907701327 9.594263285827731
In 9.546672686853604 11.443542001672194 12.08972860074714
In 12.304958863241831 10.23596143382326 12.570523078140079
In 10.069463695931265 8.321121226034549 11.323557318683932
In 7.238739705356885 9.529138846483242 11.231190860743085
In 7.114970215958594 10.969381657370343 6.610445975275967
In 10.888327851510812 7.921386899570957 6.455395422305397
In 7.676614584987186 7.7564721186880785 6.028513702735701
