15
Energy = -31.64114224 eV
In 9.52956826055094 9.435325515232593 6.113654394292601
In 10.122093979076654 12.041496990848202 7.5604107617887975
In 12.241008284924856 9.374245235745791 7.8709652234485405
In 7.248226662315452 10.273586008938878 8.157003160638155
In 9.830867828221887 9.672143794001201 9.620190936657666
In 12.21663795865837 11.968355272223759 9.951842165627491
In 6.489732960928919 7.056764124221494 8.945143705969464
In 9.415517566003663 7.062905279299878 8.068237947982707
In 8.657500297564615 12.408192653816913 10.289362920174524
In 9.268134638769824 7.2754098351021375 11.346837874408013
In 12.113707748949436 7.141488609163694 9.924909470863698
In 11.866302712518864 9.484637552473757 11.85416940561682
In 6.980169288730791 9.321184962670063 11.065439382436004
In 11.028902229775808 13.077537165138088 12.572641452849215
In 9.137850523912357 10.552947942026124 12.805412138148007
