11
Energy = -22.16451097 eV
In 13.600314355161576 12.718481350369832 12.531197621904987
In 13.016997523924292 10.670130016485357 9.968362367306868
In 11.904427600006498 13.963487741511367 10.36850955242528
In 12.78212262815157 9.938975539746203 13.381423710358213
In 12.024554670139825 8.033570655829903 11.160108527272222
In 11.111931371475034 12.157613356099278 8.085323808606361
In 9.541655730593067 8.737364292167989 12.72334416652065
In 10.066515299637325 9.597944304591703 9.400066047516752
In 10.598252212280078 11.544073662843072 11.841713826812345
In 8.649963450919351 12.761306357948806 9.722968423574404
In 7.510837867252345 10.48526067616406 11.334143770778212
