10
Energy = -19.09560785 eV
In 12.54686057306313 8.117780822279142 9.3477090247599
In 10.610645881798222 10.10473430467301 10.779910218794734
In 10.191585969430333 6.133365415555318 8.950093080486857
In 8.331803540092947 13.357565067694289 9.635119736915513
In 10.159253540497899 9.098225356561933 7.703623187265612
In 8.026893578303504 8.349562947546733 9.822583269816384
In 7.703131812511797 10.84859375069027 8.11580372236559
In 7.9124031556721315 11.074776414905031 11.629794448936634
In 10.945984927117294 12.13863397016625 8.614539591316083
In 10.023842021513031 7.22916703200149 11.853228801415883
