12
Energy = -24.4803727 eV
In 12.912364776415208 11.510562659472452 7.945091849489622
In 11.501282963992974 9.32201984735231 9.947887060050892
In 13.29203729238551 13.445114884827344 10.338353186223953
In 11.05001196424774 14.663408478537303 12.118653064601444
In 12.937364607368945 8.289603821882677 12.732280312142246
In 8.563195794158904 9.06188465396939 10.535698478348952
In 9.185500867129155 12.277138825775708 13.130658100603643
In 14.213857147932151 10.497390842651678 10.793009325730358
In 10.030680558678778 9.390800013859645 13.1792490192435
In 7.602071252622799 11.814335486320159 10.663556070697993
In 12.166268798862216 11.58147916379292 12.594246380889667
In 10.491733833170581 12.10705548267428 9.941137851167861
