15
Energy = -31.31614417 eV
In 12.15750085866903 13.402060014402943 13.804057631445335
In 13.094894709866303 10.815834692019795 11.976361849118346
In 11.331749918540202 10.630353395274911 14.726032933656208
In 10.951463241897482 14.040377676289555 11.012754315314028
In 9.579603261826463 11.848665299465068 12.4137758871216
In 13.597834953286679 12.93009438704036 9.824965185475268
In 13.173437466237287 8.210974951749671 13.91452176684603
In 12.123793111473779 7.923457139841479 10.839952684108173
In 9.831405977181326 8.88528791031081 12.597629578032432
In 11.129776879045414 13.012633326939058 7.849031761829594
In 8.426264386697914 12.766661320935723 9.508010899215513
In 11.132175753270364 10.743561693608404 9.815302579127136
In 8.010363813221332 9.910201837590826 10.373755888246915
In 9.942670403764502 8.17810891371126 8.676044768403916
In 9.681159425776954 10.563226013869315 6.783433135056245
