13
Energy = -26.64817579 eV
In 9.317968965127044 13.567304712526097 9.304231961535763
In 8.721764750275272 11.448466713573927 7.186393729009413
In 11.617537832784736 11.34920275561827 8.572125627460599
In 11.130875480836178 9.178506915671633 6.300396430227615
In 7.106417962076923 11.073759582986826 9.9958217064385
In 9.934727013745883 11.115644671209663 11.031407464440175
In 12.979473385211739 9.531699155732486 10.506821458231997
In 8.30798853820344 9.593034215609224 13.173096673255541
In 9.02267920030022 8.913154978308206 8.693427551922463
In 11.86309534185702 7.465980054998246 8.661886623378598
In 6.90430652550562 8.058424276553726 10.82639172677356
In 11.629977029201887 9.61782021183765 13.13966944617962
In 10.046091775251229 7.669905555751229 11.191233401523322
