14
Energy = -28.9372393 eV
In 14.413884282121375 14.113392757777742 13.358009297956245
In 8.888598912350018 12.495805815500725 13.41125752427118
In 11.7149339463667 12.860883445082303 14.87014261700614
In 13.257125900179773 11.116991715746739 12.87263995267787
In 14.097394264302915 12.995106515309988 10.458031398313075
In 11.39147939875105 13.919451747293351 12.027485029645211
In 10.44324546409045 9.830602016871126 13.89701117576388
In 8.492463999756676 13.166552060668703 10.388760538115694
In 13.319878212412613 10.087963519973258 9.899367043283561
In 10.58589161540883 11.050742298738914 11.174968464325708
In 11.448638415736584 13.318182399882742 9.002693984955584
In 12.584614211176602 8.200048433855038 12.220214773938412
In 10.186878590969037 8.183200718376277 10.348809225757611
In 10.646541978986267 10.506119451446372 8.090870456931492
