10
Energy = -18.44994222 eV
In 10.869713967089785 15.246084424978687 11.783297617857508
In 10.307147747373413 12.550976901465798 13.064102458310044
In 10.439402288925498 12.32081856886167 9.999896079695075
In 9.528577277012133 9.114309464621957 14.632363655986914
In 9.535411653229186 9.820107546607733 11.65092310319772
In 9.937080084212841 9.765017120066501 7.925587727964326
In 13.137984361032382 12.536918910936249 11.471279316094492
In 12.24323837019019 10.125016087672304 13.078241469157113
In 12.213190785802324 9.804417240785138 9.99126556186602
In 15.309949934343773 10.38428347352491 11.274880457904182
