15
Energy = -30.05057968 eV
In 13.87825152413946 9.263041982974643 10.312643687816463
In 14.022342241352087 9.260521324536402 7.060963847640761
In 11.655691765722215 9.532252699023566 12.353800896855734
In 11.380548805526407 9.757847513520835 8.714747036010504
In 13.663019061523313 12.141627238328024 11.381549210146018
In 12.74797309721562 11.687423735508494 14.242254128539326
In 15.23369072151595 11.655157843806121 8.779050506973439
In 12.633710974555022 13.380231663588592 16.547201405888813
In 12.44499890861163 12.624712951212267 8.399884862029538
In 10.428179767601527 12.001793246769873 10.591392383550241
In 9.69179118286012 13.398153047638084 15.425372744195556
In 11.478529283502704 14.028637762081667 12.569972359595262
In 12.267206472726008 15.970130858832318 14.580997480530051
In 9.53333569776881 11.426256370110869 13.344334825612824
In 10.665756336529828 15.597237603219597 17.420860465766985
