10
Energy = -19.80291927 eV
In 12.236321471590362 10.719371650349967 10.35220337862427
In 9.190671549791514 8.089826274118982 9.131013495154647
In 12.133894737730758 7.826637282083532 9.558526287366915
In 11.110510373168204 8.43136718044855 12.362569380087237
In 12.163586488831866 13.43661328307355 11.322888495678008
In 11.304790136448162 10.984854584422559 13.791317128156686
In 9.195369405167469 10.487431169224863 10.944821681796476
In 10.269424544750914 10.647692472683302 7.8966913659112485
In 10.156740479517618 13.341369777142368 9.027251351847752
In 9.385287493702249 12.933748001194171 12.457481553976338
