12
Energy = -23.19678666 eV
In 8.511025019917241 9.261844827692743 11.249064417370633
In 10.783030963543013 8.451453913369797 9.343631372594974
In 8.183006090901374 9.777376558718146 8.15203636702561
In 11.75603815907602 10.431992607171553 7.318187907665556
In 12.588684574445722 11.922121143761478 9.97331206195911
In 10.327011866837907 12.730755644012827 11.891198379442566
In 9.335928022908003 10.752414037290349 13.906922894304762
In 12.930967378814964 11.401254424620923 13.068688345380574
In 9.719495149890427 12.23125945191233 8.9175233579517
In 7.379822300456671 12.021974536483398 11.015251542246945
In 13.724393316025708 9.163379960021103 10.216004077200909
In 11.378613287954536 8.954442585738226 12.31781795475768
