15
Energy = -31.53169644 eV
In 10.876129534682818 12.40862838561801 9.31286275557725
In 14.44384909779783 10.019758030370928 13.0914834649299
In 12.748989603399686 15.442100258891081 10.68096056211491
In 13.944703154775413 12.859486210595657 9.378639799876193
In 16.024329124915216 12.907282137872361 11.624172040198156
In 13.245379618188892 9.990001194078582 10.400428599925931
In 12.823861352503645 12.60755545399826 12.19030581435761
In 14.017623128115115 15.302599290065448 13.355147338203706
In 10.544197829771786 10.534488316706275 11.894607749366143
In 11.79397665013585 10.921533986517215 14.58983564334393
In 10.161387988542055 14.157637756618989 11.86867643748288
In 8.630616945109079 12.163626558418205 13.786567766138122
In 14.850389916653118 12.644760355690707 14.636972045099679
In 11.41830296848922 13.981833984998921 14.587512997031663
In 13.031280663165006 12.638136473312025 17.14986746776265
