15
Energy = -31.1278721 eV
In 7.994790038098599 8.949326511910964 8.44494882740522
In 5.967208744412292 11.518621719154748 9.224765080084063
In 13.300209427657487 9.817221235820382 10.336469360333352
In 7.8550576212872985 7.3088212850822885 11.010301125747976
In 10.316416060854937 9.090692206744194 12.4140834653747
In 8.191386848117277 10.66089300061248 11.139366893820792
In 11.235603304171391 11.868211023874514 12.192904621022237
In 11.191302796185214 12.901930561612724 6.819542328297167
In 12.909989328900284 7.364878146456744 12.043516071669675
In 10.712008897258077 10.355437984197817 8.874131776540588
In 12.56080059340959 12.896909451208836 9.496271013067256
In 10.713167759368588 7.598507080299205 9.628517563728444
In 9.437845701132549 13.104772072046886 9.93255638405266
In 8.362556006044782 11.89863520816614 7.317364414355273
In 10.270488593437321 5.683974233147616 12.144092794836615
