10
Energy = -19.76283719 eV
In 13.07163710570954 11.847932502563394 11.178933076745624
In 9.041640017058322 11.898686945549821 12.012567602566712
In 11.15506933113034 9.99364914810805 12.745154087408526
In 10.865612054120989 13.838022978070887 10.745155750363727
In 12.225989442210421 9.207862959733008 9.910195723609082
In 9.855122521583544 7.59180278645287 11.016870403301924
In 10.18266561548572 11.179010876388308 9.068100999746198
In 10.400417508983658 7.726283117186467 7.981261687768329
In 7.816312872164704 9.618889880525842 10.42630257669375
In 7.976568824289841 9.440474199864537 7.4309231136914144
