10
Energy = -19.51828573 eV
In 10.229727850682206 6.527117231884817 7.027980650224554
In 11.388707613397983 10.18406551326993 11.108571185555416
In 8.858828017994737 8.054552112261518 11.071265250120042
In 10.9511748927747 12.891041303993227 9.555455802184339
In 8.852241276741822 10.735984057878541 12.84693469745473
In 8.420536929723893 11.05058281230989 9.768247316457305
In 11.492465457831576 7.673543680287675 9.59488665944946
In 8.289165271498257 8.634641644757506 8.138351271476942
In 9.863513332926418 13.379675835619757 12.223491328846261
In 10.923567356620454 10.13872380792876 7.934743838422575
