10
Energy = -18.94757794 eV
In 9.681279082751713 15.023574477645264 14.540412552254532
In 15.153420356704233 11.648315457206758 13.457440632991903
In 15.655950244341522 10.60100686653157 10.522790248484487
In 11.625136633375158 15.57500199006749 12.147556159728644
In 12.902119375688963 12.406851858264544 11.107971040996055
In 12.481223626972197 13.693118310732016 15.111279100986781
In 10.212098294733066 12.86742223389534 12.128907259223482
In 13.426163984620112 9.200974877451003 12.175497463679328
In 14.263091014316641 14.434205927063962 12.798364637261281
In 11.90489468048647 11.139682427423955 13.941630016575683
