12
Energy = -24.22306282 eV
In 9.893407649165617 12.772126431006928 12.982138589576255
In 8.642980379058184 9.99431011862617 12.255655174727915
In 8.06037417168882 12.663138186472608 10.489755217364372
In 11.607686373715367 10.39525528763848 11.748119839071682
In 11.741857556322564 13.648237755740617 10.742156559027993
In 10.143458012867852 7.402865514042487 12.216825835600007
In 10.317402021179145 11.458521489483873 9.0986300410582
In 7.225918244925626 10.148743681635132 9.151778316789127
In 13.672319831077536 11.497134746523018 9.738890758107267
In 9.708238258026235 8.481644272278546 9.003693349482688
In 12.529678756397757 7.909980689280953 10.535664414142074
In 12.446457666491364 9.457656160391746 7.860491761404789
