12
Energy = -23.59416719 eV
In 13.05173783576455 14.13396778072581 10.250967997866171
In 9.994259762249955 14.657807751408987 11.052974457923385
In 11.723815247085323 11.92421377630247 12.000644573762354
In 13.739871303887838 11.02151777204058 9.762560305322458
In 10.880293723504346 12.515712813034904 8.646912480597559
In 8.713425001420074 12.313001989305203 12.459281030033337
In 11.28138108074606 9.793146253711921 14.259892822210414
In 12.371002169353792 8.887382015820581 11.535392087256358
In 8.630105943398323 9.195810540562034 12.95403891943827
In 9.664954134649165 10.39691057531897 10.18641710499217
In 11.854656892129793 9.460737773940826 8.10299865848574
In 9.711054410872219 7.2722187084241785 10.768231105981682
