11
Energy = -21.68429316 eV
In 7.4171605696604095 7.335390292341475 11.727183835877945
In 6.829477872504719 10.963030178523018 9.318565631303098
In 9.260101507494195 11.586880378244325 7.024674004477742
In 9.250532454429525 9.283074068046115 10.55367508362525
In 8.721926669766992 8.63430678756127 7.585187839189295
In 11.611210255067181 9.442894203917314 7.0737181200124
In 12.105897809191703 10.12853705906426 9.943847588037265
In 9.83572784298616 12.21154862032515 9.896545202070527
In 8.452030272782958 6.002614537171038 9.147341483609571
In 11.190362992345383 6.990633792757705 9.400086025693744
In 6.064341753770771 8.15986035360304 9.067944642994549
