10
Energy = -19.10886672 eV
In 7.269002132648173 6.384615434625187 7.2585723164595235
In 10.2273480935279 6.384644731855997 7.258675469101373
In 7.182387093049861 9.470379507896045 7.273169243468214
In 10.313767306675159 9.470392234044954 7.272670749103014
In 8.74808335110316 12.030834902638668 7.292642976605059
In 7.268918121864706 6.3845565412828735 10.237412079224429
In 10.227218292317401 6.384473225995202 10.237513537640691
In 7.182469861614649 9.470321009403115 10.223607417683999
In 10.313853237079956 9.47025184483037 10.223107414208203
In 8.748182258448809 12.030761070767786 10.203859299845943
