14
Energy = -28.44024491 eV
In 6.819755602060328 7.904337401176748 5.937696260290583
In 6.835123769438088 10.862619199057725 5.926754406492756
In 7.24644238568247 7.839184691347294 8.885066227373274
In 7.261746732610634 10.945503783853912 8.8737457344032
In 7.829989074043539 7.8982328394098005 11.869342002203101
In 7.846475380245993 10.899768584907589 11.857579273878718
In 9.74917375327266 7.893807868559824 6.843465331187127
In 9.763317318272911 10.84303935066003 6.832949041233571
In 10.29111374735038 7.846613125878404 9.948202284983754
In 10.307871833035152 10.90943258027462 9.935896312852101
In 10.824440333917583 7.892885893245764 12.839550744251078
In 10.841617313355588 10.876848799753985 12.827012582791825
In 13.418423007926203 9.362553900450726 10.768933459510437
In 12.298299748788756 9.358961981423604 7.987596881656689
