13
Energy = -26.82348426 eV
In 7.727437040485995 9.640120236193987 11.446471440028882
In 7.718924410379865 9.389980815305478 6.279297610118196
In 7.6485469867779425 11.467737124938484 8.797055122215642
In 9.144044011387882 8.5924833753695 8.725512337058111
In 10.421231305601443 11.05306097030091 10.403661238139218
In 5.602126559758474 9.265236723823936 9.317516941638349
In 6.479578833504328 6.874753681162295 7.6632319341884925
In 10.482780279614989 8.542947999094201 12.107822624417262
In 10.807018664527023 9.226744908311732 5.886552524536723
In 12.069358649097834 8.778643786833436 8.714286627572871
In 10.354582415717184 11.788422787269376 7.454247771712771
In 11.02370048706095 6.246185227330064 10.192823546000369
In 7.919464856086352 6.53247664012865 10.410314558435289
