15
Energy = -31.30446144 eV
In 11.095765181949208 8.199128133394412 10.97011110672493
In 11.437849712174023 12.90885950947298 7.619388110834079
In 8.80302923471369 8.841900189699821 9.026014616799934
In 10.710250569421842 9.396542021001103 13.751624225582354
In 13.5781304946424 12.358012158388712 9.826788437624563
In 11.01657778866031 14.484682787235394 10.333729722546826
In 12.465980672296551 11.682570116525307 14.899641083041143
In 9.385204964284515 11.777229508605172 15.589032439096915
In 8.20061972316379 9.973031977121979 11.921869487128413
In 10.657132406008408 10.071863093664248 7.026760201160557
In 12.983889253695027 10.39370001954954 12.052449525047898
In 9.96851988691845 12.57548135749913 12.592677260581292
In 13.100236379144645 9.411394326117362 8.937772564344638
In 10.519327297987227 11.25115776463018 10.079897816014277
In 13.152238793432353 13.52123016626379 12.651739820970594
