15
Energy = -31.7291579 Dir = /p/work1/plile1/GA_structures/In/15/all_candidates/330/
In 8.55101964233253 7.649382091415485 5.166776127691459
In 9.401674282762155 10.476177049954412 6.012321858756592
In 6.116736763047169 6.970688495253726 7.151736728589767
In 11.755936554745059 9.145846512467376 7.601133458699171
In 6.629779885218161 9.90359610040689 7.30146548384824
In 8.971023414768863 8.172742474068638 8.232631452624476
In 8.732297661986927 5.21728987987228 7.644688255127761
In 11.52753648140957 6.23943444635179 7.092468330585616
In 4.635902404706939 8.82832557541249 9.685733340934028
In 6.932042431451579 6.350361950368324 10.054353179524412
In 10.820666434205036 9.3619950911425 10.589794993943384
In 9.037234808601216 11.37833880873533 8.97761901656081
In 5.937897622930766 11.639267960037317 9.922046878417202
In 10.09669801516775 6.397066561782357 10.561999168877504
In 7.705728617985188 9.121662024050238 10.857406747138464
