12
Energy = -24.27053759 eV
In 13.451156157429411 8.687447045016784 10.499444014609466
In 11.071248006941973 6.829542158217581 10.74832139054611
In 11.207612866916799 9.27202944532963 8.311487637248682
In 12.443051090522308 10.450265957073904 12.861299981545079
In 8.394225123534097 7.931039691775976 9.554348857626602
In 10.08054139892115 9.850293926140232 11.2633702696105
In 12.726462552276706 11.582700868657477 9.60371151681705
In 8.562175639851066 10.352279884004748 7.530282939359193
In 11.371848878598795 13.213853826416967 11.911587098173726
In 7.246095530733672 10.663909289642485 10.407243963043621
In 8.581704979011393 12.32704307492581 12.698790313593737
In 9.78761816503542 12.393579559896855 9.319768073827074
