14
Energy = -28.73888971 eV
In 13.063074184384677 9.532723113422763 14.015401049509485
In 10.20031803915635 10.228157235852597 15.697776233169881
In 12.05003210733127 7.992370908423807 11.555570633027978
In 12.724358885157166 12.161936364929756 15.38889122743505
In 12.931452503772421 11.266185543776764 11.691021997248582
In 9.775316944755135 9.920109397246442 12.734617465108155
In 11.060105156440297 9.933109088721556 9.496347084121815
In 9.285169163607433 12.10285446871478 10.559323502029946
In 10.662022791259307 12.75387380484384 13.33292855571251
In 13.389400737406676 12.827755027329571 9.226493515708803
In 13.756466332559482 14.124784372155302 13.094015051320877
In 10.003610773411369 13.578916466704841 8.093988306702274
In 11.979536285704377 11.504592774810336 7.019736251989644
In 11.504725781964178 14.42516176768721 10.907952186325948
