14
Energy = -28.6881002 eV
In 6.8725034567457115 10.134777568144642 12.928469016360344
In 9.016827398115145 11.765319559452502 11.729907052549096
In 9.612772691487109 9.637751549224285 14.169937578235125
In 10.967757359249758 13.413412654551044 10.042709370804904
In 13.791957030986845 13.094306565732401 11.175334353781235
In 12.735739309522735 9.938901545938132 9.962381713388355
In 10.715670779154095 8.280784998447253 11.60503721659191
In 8.423403027577919 6.843904630104062 13.154440746106156
In 7.849118158793647 8.568347702216073 10.520087085683127
In 11.903485906957963 11.171096813039373 12.61642804461897
In 13.296101214785983 14.833061291145993 8.542060411660568
In 9.808408223079624 10.443761399686222 9.10135800549579
In 12.056213493070395 12.015541058448754 7.523348988149793
In 14.821261324512173 11.623750178446087 8.71315601057496
