12
Energy = -24.37481791 eV
In 14.52155380683307 11.886062817009975 12.244243351357106
In 12.755259223034729 14.327856471210708 12.223951366101273
In 10.515692772702575 15.188411378141765 10.345986564904461
In 12.464690302626815 12.474586236888397 9.682597787849916
In 12.623485547215296 9.77416888646309 11.174173629150108
In 12.533066098010307 11.029821365706084 14.35670434467146
In 10.615929830294249 12.102476254063047 12.12390925428827
In 10.13875658346211 9.312046602186214 13.774901146063455
In 8.668302089189778 10.14563601404079 11.2284105470103
In 10.529654699413138 7.339892768741181 11.100620349586407
In 10.73597969335555 9.907810499151154 8.92233492806463
In 9.444256281199502 12.637304494042668 9.090496344801752
