14
Energy = -29.28101407 eV
In 5.131242393049038 8.563733949662714 7.915500816315784
In 11.358505082950765 8.201611875073755 8.734128206796193
In 9.647381331591248 6.7851052055287955 10.881941739933968
In 10.284497263976762 8.698690765050852 5.593492105408346
In 6.833117869010449 8.07102306753962 10.826845489894337
In 8.75144990376354 4.525529607450702 8.853830230819446
In 9.216026099738214 9.976423813404757 10.169828631758051
In 10.469822833678428 5.879665348384217 6.836715188688569
In 10.679901641106081 11.000082943223106 7.680020429884957
In 8.2875915421807 7.783842514135564 8.005145451433336
In 8.397311414273744 12.764582987610064 8.55775827861341
In 7.53612098440366 10.093721588435097 6.402607273247004
In 6.055727191602017 5.77315634990505 8.871077464981756
In 6.323645187285607 10.855214772281705 9.64368880948835
