12
Energy = -24.09555305 eV
In 9.93317440521402 9.503212774683451 9.07235243722081
In 11.859075443769605 7.419523099577803 10.027892384841516
In 7.956168207110422 12.00537094371588 9.156084290781381
In 10.722172573744016 12.493719293238135 8.386146282003631
In 9.976354459720104 9.07050753885714 12.27414653260381
In 12.573964877811207 10.827591495219151 10.323446833694453
In 7.325814695625609 9.888427034002554 11.152477135530967
In 13.125278631972039 8.592979140468794 12.45022717109842
In 12.956373418571022 13.789007125454875 9.780203425896005
In 9.913255446932435 12.201386869688632 11.593011899775693
In 12.068458186840811 11.058902375760612 13.594183904370396
In 12.19233893578673 13.855606133344835 12.72081042932298
