14
Energy = -29.69921986 eV
In 13.719447932623872 12.340930056738893 9.503569369547268
In 14.158612580199089 9.276970265117475 10.71128853985076
In 11.508862208131493 8.064000904504516 12.302196477804177
In 12.05173242489945 10.380670891449205 14.090329038521372
In 11.570028845374237 11.199523940381608 7.751626582824147
In 13.817635243801815 12.248126758165176 12.582413663678421
In 11.435493166410193 10.917442770957104 11.029186589767301
In 10.984271047276023 13.534595732870965 12.795397088734981
In 8.82801432679053 8.824286399441473 11.058196489239384
In 10.888217721995021 13.735136511563963 9.803300142501472
In 9.106224423068703 11.160763083726236 13.035185071566834
In 11.180171909179476 8.586658455956849 9.05355269238668
In 7.797450482664439 13.671614738020052 11.55578555091307
In 8.802016290673276 11.50517437679435 9.492597622061087
