10
Energy = -19.65258621 eV
In 9.3365826330248 9.275861340057363 10.392103277342278
In 8.65449429168465 10.89010865720107 8.028499781452313
In 10.671689148411136 8.307346338674693 12.854503626442034
In 12.589436616673515 8.625403585329737 10.430187985279542
In 12.757590980827942 10.46026408012384 13.204064406520398
In 11.643351473642422 11.745906502183653 10.756314306206423
In 9.464339036272014 11.160605661479535 13.114621444788312
In 8.493441239675363 12.54675383121102 10.654379347493903
In 11.634134193013217 10.027928204852287 7.981942031695921
In 10.685221038549283 13.151610903923435 8.287103790050537
