13
Energy = -27.16399243 eV
In 9.49037333463921 9.465676087685171 9.525512954693237
In 8.613471341023498 10.69583003224683 12.240431475285494
In 10.082145795299793 8.072323059621526 12.223964018138558
In 9.995121343614944 11.443176533061248 7.052913818636404
In 8.759940595115117 7.385682967992199 7.312489926199434
In 11.01011712823201 12.103383991368139 10.07467305915123
In 11.057288823049586 6.772988355253915 9.47750303700283
In 7.884904254838408 12.160972274732066 9.528732995035051
In 7.898945177924986 6.721693249367902 10.260391046467515
In 12.556131803807506 9.527153503519095 10.03867762985984
In 11.509628152823163 8.888568449198667 7.0490190880614145
In 6.394758450718581 9.282315261486415 10.328620133389657
In 7.232283089691821 9.965345734466688 7.372180318079866
