12
Energy = -23.96631833 eV
In 11.8504727969669 8.486177842565283 6.618929050583315
In 8.83853618164391 7.942447941060692 7.213880087683669
In 8.760419545198868 10.91378817391053 7.046312318270859
In 5.987670736063145 10.473435440851775 8.594509088805896
In 10.853099577995456 7.454401786598858 9.52542282595439
In 10.966398536286777 10.639153961200325 8.929864295925835
In 8.319977082665677 9.15296103990299 10.031440521056643
In 8.02395818714474 12.656559150843748 9.623043488873561
In 12.457639773261514 9.53222715309484 11.21539607619534
In 9.766013875386525 8.466025276908988 12.452226431091072
In 9.745342022600125 11.485590339058977 11.695326337006936
In 11.689766228611857 10.05652643782849 14.312944022378248
