15
Energy = -30.88077215 eV
In 12.680061850831615 12.503203113094274 9.678320559325003
In 11.82729967163334 9.492154350372557 9.627074491595765
In 9.53870391765937 16.634266088773014 9.545886367768855
In 9.736284571511788 13.544607057647896 9.656715959391045
In 12.473719900623408 15.680769465510538 9.88478968318729
In 13.256518798967539 14.090714712947436 12.252547965439087
In 14.623339533689679 10.338941910467385 10.771678336021335
In 14.318898815631393 7.978977686305522 12.612741012626278
In 10.169668936612297 14.802126923890732 12.405843844523249
In 11.386520317989742 13.177259644691075 14.69163123084818
In 10.504670699157375 11.697876994019401 11.892719752815658
In 13.4322318818177 8.916376200944498 15.336456905841372
In 13.486783664808993 11.309827071030725 13.330536225312796
In 11.308928753055676 8.922797367884193 12.52699185597505
In 10.715293894495439 10.369026620905384 15.244991017814764
