15
Energy = -31.41604717 Dir = /p/work1/plile1/GA_structures/In/15/all_candidates/624/
In 8.054530201972613 7.159030293267776 5.042596742833841
In 8.931164013300686 10.49171631596261 5.875629604614553
In 6.123581019513667 9.826562899637864 6.420163871094118
In 11.065529869061525 8.538250602470388 6.399673040439683
In 5.442484565392104 7.165264534182222 7.447981096996285
In 10.361296553735652 5.881952013805845 7.4429675330527125
In 7.55323337240964 5.19582426181378 7.984748275178508
In 8.394712710003644 8.385998724455566 8.387241603209395
In 9.13663154629 11.615598920906477 8.788321282837833
In 11.306613473559219 9.70263168636845 9.302606988561083
In 6.366815833683095 10.82883364355783 9.380199602389295
In 10.733585960715667 7.009896999625494 10.342729360864887
In 5.7314458797291685 8.14978803129353 10.402571318859154
In 7.941596194697245 6.275682660335509 10.901975922124906
In 8.714458007255491 9.63064761363631 11.738272958263874
