15
Energy = -31.40022086 Dir = /p/work1/plile1/GA_structures/In/15/all_candidates/264/
In 11.416527063610353 10.451946912842356 4.86408266569116
In 8.955073189158803 8.628779046940187 5.864555850400016
In 5.938146663614087 8.95028403958761 6.404063885766041
In 7.243261654926937 6.03256423141667 6.750661273757437
In 12.239508591323704 9.169984410327753 7.467307593972574
In 9.501313292553796 10.779282219846662 7.942515841843743
In 10.398450246584371 6.574038222460656 7.718965970055353
In 6.377516099895736 10.954030078596674 8.557273147242212
In 7.877532019486809 8.229479516494811 8.809403521377432
In 5.132230927523462 6.637895602081458 8.991392016305772
In 10.712846267068002 8.544827213845338 10.0449526275252
In 8.383132647816272 5.17822481144102 9.6534710945798
In 5.7461697561003975 8.86719402111448 11.029348606766309
In 8.468240801554149 10.529562324682697 10.972795029925734
In 8.429330319924096 7.291186889463113 11.74849041593231
