14
Energy = -29.14582611 eV
In 11.41728648111408 13.931865646210477 9.358988002239649
In 8.59607147732214 11.319712319808453 8.533001605538262
In 11.614693499734104 11.341314127708399 7.7917566436068055
In 11.5868199088605 11.259577225468345 10.926581002493029
In 8.857822078532122 13.165820785163795 10.893059791651448
In 11.945484204019124 14.30775501380549 12.359907143479752
In 12.77917595648535 8.874574300233668 9.392024514115015
In 13.08834059613764 11.937238369194391 13.770581700377043
In 9.11902486681758 8.325894573779584 8.334093478214788
In 13.741744517809662 9.37765651285941 12.218677927508972
In 9.697028853289279 11.95967965535717 13.55916015715734
In 8.728343908353912 9.984782421179222 11.246279446400445
In 10.906179615974025 9.152083844883203 13.405458682372123
In 10.447427294283607 7.500217575574223 10.940853986828287
