13
Energy = -26.25406789 eV
In 16.962617653437647 12.55791646880361 11.20087167062457
In 14.994728041335204 13.916009379798721 13.160965094523513
In 14.198691175037197 13.066300119718933 10.0849036801841
In 13.20648998299216 11.60085142757288 13.972231471183612
In 12.071629570761935 13.927991263460312 12.269806386001672
In 15.941411516318759 10.37156409617494 13.085220148244865
In 13.60839632438283 10.384462970251663 11.150134632172941
In 10.96945531187719 12.013097341793674 10.134140229408182
In 9.100856589133146 13.99778285420894 11.517000048189484
In 10.058266163025436 12.4867286638265 14.23919517977481
In 10.593633292677842 10.130610168518485 12.556002757510537
In 8.24462990498066 10.636786504688656 10.667850303735765
In 7.258593481538966 12.1192977486813 13.17107740594522
