11
Energy = -21.3629377 eV
In 7.000695838594194 7.55855187344118 7.409150601332311
In 8.193035772471218 11.026253651043337 10.242944139679711
In 9.92200641529619 7.160395724447054 6.039130390253795
In 8.513526257766102 7.889392045733336 10.073923209747226
In 9.202980521855347 9.710928630444664 7.551719121679134
In 10.727084307007154 9.512023495280786 11.719816974751385
In 9.280046239001036 5.4550131746250266 8.397592831775853
In 6.188369230726652 10.768629659110085 7.636224303321219
In 11.346974785154634 7.92477042702379 8.86093797695196
In 5.542019169545748 9.075966483411811 9.986587427752038
In 11.368317462581727 11.203131140733221 9.367029022755629
