10
Energy = -19.10339322 eV
In 7.747073037096479 10.278409291581927 10.040120800134108
In 10.443829614716465 9.01141748047607 10.808194294492013
In 9.28912578599221 11.738829944912332 12.348254799031436
In 14.340374671030574 8.740395439078231 12.01382240842553
In 11.76390317119683 10.327122222879284 13.101130565202798
In 14.541837846737122 11.807527681690548 12.153452170010896
In 11.821950804736664 13.016196085229339 11.366545162474713
In 10.314708492083838 11.818633756170387 9.064728699534712
In 12.820081961808697 10.428417693779776 9.748419737245246
In 7.586974566371069 13.408029105655507 10.052247810798265
