12
Energy = -23.79552166 eV
In 11.192743954727241 12.242241679288641 10.264650255029592
In 14.164638417495357 15.648111797510653 17.615281909778666
In 15.491799342119709 14.74701228995757 13.034153123495413
In 16.379988623674826 16.64997631801521 15.530252689266314
In 14.20668639443159 13.091606376840474 10.779387320793443
In 11.770764583062581 11.43177751910638 13.469119197922266
In 14.779432418315485 11.731704469750161 13.53720576818251
In 13.307911192159354 10.00791627567363 11.158460192945792
In 15.698216320291353 13.48315386022391 15.896284334998544
In 12.09837355190704 14.385398291408192 12.532083085261618
In 12.695301205865668 13.58250715090967 15.516451023773469
In 13.427826867078089 16.411417724428823 14.473589888148405
