13
Energy = -26.15717402 eV
In 15.165524363767513 12.644172144781669 11.713542994674215
In 15.57191416782172 9.8073579918675 10.71808474949197
In 13.04687592422744 13.14970157505149 9.542471702563379
In 12.424891216966722 12.785830890174708 12.912302081597442
In 12.933199328871014 9.926686903376792 12.256704966190174
In 12.736472364426815 10.207501253916762 9.178348719839667
In 10.40872581040874 12.139800867284654 10.725783890483328
In 10.260209216854246 9.09458880650631 11.195221836642249
In 9.938002869356984 10.774700856997057 14.025027044733639
In 9.250787496169986 13.592676221250022 13.29427824563219
In 9.621023764404969 10.213540328883804 8.289774759072952
In 7.477624701247779 12.719776846411788 10.92682531789145
In 7.5811235095641605 10.006099571575389 12.048397825199341
