11
Energy = -21.74757926 eV
In 13.688608752321171 10.388315135385588 9.577380747332446
In 12.001786663413354 11.781432853484977 11.75078810410937
In 12.11499475976567 13.112610638211237 9.004562947856629
In 10.177442087922362 14.484414712706391 10.983049129090821
In 13.459352619423465 8.874775827681221 12.246441213200807
In 11.190771054871815 10.38637851004254 7.658968735822195
In 10.753245877125144 9.03001213776656 10.546463879993341
In 10.990591280206 9.78790604601988 13.85841356315667
In 9.301036343497028 11.547552277577102 10.005504743774374
In 8.211370412629051 9.654074738165159 12.402165817573124
In 9.39662727460986 12.494234671999806 13.20976125481174
