13
Energy = -26.85199559 eV
In 11.830740501964943 14.264066395094407 11.910023770364509
In 9.79274660138458 12.642741908855129 13.447021793610443
In 11.024480146386558 13.81040142664897 8.959749179432665
In 12.146611789068952 10.811520229024145 13.734181416198044
In 8.634278104509265 12.284045480702186 10.661914707090899
In 14.303540686651392 12.33769579538641 11.837696656865578
In 14.140944297469233 9.481644532376283 10.598398335600246
In 11.628215470779502 11.316582871297657 10.66948355483323
In 12.178860419618207 8.128124867077423 12.43246677421022
In 9.877692328020695 11.04652871653741 7.965280573189018
In 9.442890690951751 9.597419945526665 12.200511981859547
In 7.75918644294077 9.417241395697824 9.668837527001418
In 11.084804696222443 8.66487535805025 9.456910460716458
