11
Energy = -21.97706921 eV
In 11.168419537055726 11.734310948266431 13.95600931379138
In 13.21898769510823 13.29844726299256 12.249365213587804
In 12.27355272543928 9.715477180427325 9.512388144226271
In 8.438274706724739 12.173630009729075 12.831794836259347
In 14.584460764827512 10.961231913834219 11.022548931149604
In 9.355034685856037 8.854456904098868 8.833491058043032
In 10.466482286588883 11.449462970107769 7.515087869700642
In 12.523655976773831 9.45518402606481 12.726516316939811
In 11.031066037769481 12.268940407980883 10.554328879334788
In 9.715348186591358 9.474121556886994 11.684022806619152
In 8.133907455745348 11.603597116708537 9.777259574319087
