25
Energy = -55.4017204 Dir = /p/work1/plile1/GA_structures/In/25/all_candidates/500/
In 11.059189891860129 10.093178283719702 5.326991676677303
In 6.220633924103871 11.547169035550468 5.675174145312487
In 8.118131051587337 9.155901461021232 6.139742928954217
In 12.212282313248727 12.63744090978329 7.92098612897033
In 6.75687003641037 11.362612777467865 8.710894237283965
In 9.840958539796048 10.590052795249743 8.418785029548657
In 12.718488911103956 9.387838508901053 7.951985407102457
In 5.1569406300461695 8.73213569327828 7.518048148695834
In 10.309364568177376 7.430135737932404 7.303186433598747
In 9.049026476053065 12.60052383006995 6.245962243847824
In 7.2967992410519935 6.1092941136525605 6.8444892619361966
In 12.452814406592188 6.281545957620489 9.282870186759205
In 9.111483107549226 5.527259688182315 9.534193482289302
In 7.69820603427271 8.332735846305223 9.215769871347087
In 8.870666571800536 13.63720943422776 9.436042781621099
In 5.916906785032659 6.009554498060765 10.28421070578831
In 10.411334674417311 8.485137025930113 10.531417543586905
In 11.119118586780838 11.96115341055302 10.954159754657523
In 5.167018137961928 9.583944209176277 10.87871886200446
In 13.210546984614872 9.80149908480639 10.896075212017731
In 8.166718787801855 10.905591787816308 11.34429313968034
In 12.601120079317553 7.367448929532356 12.576808557021593
In 9.977427413319116 5.959369017701021 12.456872999624217
In 7.620772013993577 7.948387996959878 12.351797250798084
In 10.218927016508092 9.83462614990328 13.482270194278428
