20
Energy = -43.47685987 Dir = /p/work1/plile1/GA_structures/In/20/all_candidates/835/
In 7.318540530472814 8.220326597925633 6.016388203000195
In 9.04559107168829 10.594869816645884 5.100096089455383
In 10.164078957390892 7.918977679914212 7.22328851307939
In 7.757204060048961 5.31310833653884 7.00931191456888
In 7.568477851286517 10.64393854228868 7.973344749058459
In 11.458551726535038 13.311286025610823 8.85221291519947
In 9.974594114404823 5.618767151028419 9.065570075092282
In 8.957347518269827 13.297507050327045 6.895423989360471
In 7.0859143983670885 7.8650471929007635 9.119474830656998
In 11.101787903260208 10.643440758362255 7.485663033571997
In 9.723647487448343 8.987607929980005 10.148665382688707
In 8.945467516545973 12.05706255506924 10.116540314940709
In 12.3332572088949 10.565918330650161 10.320058192855953
In 6.641576417307537 10.08256189539419 11.349033459240742
In 11.405291753929166 13.571817115403986 11.917874472187943
In 11.552430207173014 6.758405488499832 11.273104021193088
In 12.378465828113095 9.08767321980369 12.905358620557472
In 7.840086705682782 6.18618210553518 11.440799096699514
In 9.092005051784414 8.269527599080245 13.081628250176262
In 9.776876578530572 11.127167496175565 12.827356763550327
