20
Energy = -43.19046102 Dir = /p/work1/plile1/GA_structures/In/20/all_candidates/417/
In 10.792206114945055 10.294207423915138 5.490041988157616
In 8.19629351687787 11.572092484191229 5.853731533121491
In 8.996672837313877 8.855574383281027 7.589608824518849
In 9.717141071784093 5.730089874786648 7.4778679993500115
In 5.982607535304445 9.777117835913486 7.034499033251677
In 11.261461533506706 11.067243781443599 8.564124382645891
In 11.766468619819584 7.648997780649029 6.231105378296857
In 6.7536423108376065 6.726802827815123 7.233006608731495
In 5.77890219228482 13.107966808495027 7.206813678284846
In 13.007010990059621 5.339262985899882 8.016554332978412
In 8.26552062485332 11.663403024023646 9.013270127808036
In 11.577940382679671 8.104590580358657 9.373769867690507
In 5.017528939189911 11.32802501326643 9.666635834405357
In 6.370260448033512 8.615396128124233 9.868501452375915
In 10.931844224247627 4.984145111630468 10.337448043003901
In 8.32583339432501 6.532710042058613 10.111732785053952
In 9.477433670146244 9.640050510856216 10.81462631208723
In 6.901464792368112 11.05168222319656 12.059233333736477
In 10.568654659536689 7.140381975715368 12.470512666183382
In 7.835737606528213 8.344884669021749 13.111541282959735
