25
Energy = -55.27709385 Dir = /p/work1/plile1/GA_structures/In/25/all_candidates/529/
In 6.9950947282725675 9.65072170008033 5.960587537260831
In 10.35851254194491 11.465600649478237 5.3419359123404035
In 9.748710163695423 8.132659472038656 5.6879437715989045
In 12.691966803626421 8.522163110348135 6.861308270816132
In 4.8162207950217 7.943146038866328 7.683976948287983
In 7.87396123826429 12.4129188910219 7.24470444013997
In 10.534222624178515 6.73979776762461 8.475729414058167
In 7.7080605599555225 7.078833625183962 7.966193831088277
In 12.596830439470562 11.52761445832843 7.898408071036488
In 10.417824689506682 13.670640604671986 8.606461340555994
In 13.568103560636152 6.283141661106035 9.004822344591837
In 9.822548064288068 10.055834975294776 8.18127812308822
In 6.568640640306395 10.14273521141476 9.10061482712347
In 12.462770299844722 9.061496342055262 9.993064225602783
In 8.370212849299838 12.049316432419497 10.40195978976928
In 11.752085677266285 11.664089754151387 11.018165148348823
In 8.543841532154763 5.784175319204824 10.805818364863315
In 9.213119756307519 8.868698719523438 10.78692141740568
In 5.874306973468833 7.467293955510967 10.724150354405412
In 11.579211418239202 6.405366199319874 11.525451844817486
In 10.244413615859285 14.145961629214995 11.814474400248573
In 6.675382749303168 10.085728556009395 12.308308804919587
In 11.388596200717801 9.186548901572401 13.05728869336002
In 9.282364916547039 11.47690595651473 13.380184228809043
In 8.391715811148462 7.657328718368579 13.648966544786834
