25
Energy = -55.23694779 Dir = /p/work1/plile1/GA_structures/In/25/all_candidates/453/
In 7.839618923017905 8.084598855710919 5.988049496021895
In 12.30237392731615 10.457534587639193 7.461426855328024
In 8.933689544720231 11.021263925303703 6.361648542577393
In 11.043943596328344 7.777767545068896 6.16472834637453
In 13.15348730526651 12.986136014117953 9.60040687570518
In 9.578747987740375 5.641315004278557 8.523178221873291
In 6.958540528562193 10.83026354970874 8.763782413032205
In 6.690178771963469 7.829012163685901 8.753483860155637
In 14.96773859702762 9.73508863370362 9.12900702928763
In 9.6860013972317 8.849739097218137 8.649938066187389
In 7.920201146749153 13.85894837055962 7.823533899624877
In 10.220751262263096 12.058268377945947 8.958279865028798
In 5.775801161677672 9.967605214444164 11.676607786251147
In 12.22781767736136 10.188908520546239 10.70754657689374
In 10.143753991565669 15.007831334599889 10.221322303153284
In 12.629496878500458 7.446698780581145 8.872359902728556
In 10.73635085842748 7.028483901780677 11.248317839350037
In 8.987085394785002 9.883923608416968 11.251019943601097
In 7.731487261031702 6.991532833638721 11.395177723412509
In 7.712269072159242 12.883696888021612 10.92682694648113
In 10.820659690391198 12.47433094771511 12.103734941558386
In 11.25175619786975 9.173988178245157 13.443352874486354
In 13.881048887041265 7.791953644902478 11.851433349295405
In 8.185394667250998 11.456077691531844 13.701294488717833
In 8.287821478487079 8.241048535370957 14.089558057609707
