25
Energy = -55.17211211 Dir = /p/work1/plile1/GA_structures/In/25/all_candidates/574/
In 7.860662564342398 10.662998895660339 5.391107255484837
In 10.14707531455633 8.601587470753858 6.08735249514311
In 9.18544607796406 13.198074790934866 6.857522952758538
In 9.86282413943192 5.313887672184687 6.1488172144957645
In 13.744105347285878 9.077945289490296 7.28576259776966
In 11.590124979401585 11.257880501012702 6.419134432151553
In 5.859624417118774 9.703309342383106 7.673717193137575
In 7.654711124959914 7.259656975614715 7.368397207806842
In 6.40127317283159 12.720849185444562 8.557115216435426
In 8.857425757278392 10.548472142544508 8.355919157945864
In 11.63627881543247 7.1474121489729034 8.382363243230357
In 11.686309187169906 10.366398213766429 9.441822908087822
In 9.41589871085567 5.17125675827493 9.32773367217828
In 10.34624350589339 13.29417554431543 9.646242799611475
In 9.053217501250755 8.236630466565702 10.035689723705595
In 6.35533178819396 6.309083846830495 10.201352052756521
In 6.116764036032964 9.410180698269492 10.678139567802978
In 12.0607803267378 7.372832883591103 11.40011578117816
In 8.001449973051265 11.798468999068577 11.089261496743424
In 13.610125793840615 10.201524153043577 11.850196993481564
In 9.12349132713071 6.196525970813522 12.319609510516026
In 11.418329781726143 12.506463494110792 12.39681099379476
In 7.6328810598469135 8.789888828456185 13.289899304053971
In 10.358540166101887 9.682317916228834 12.35005627537101
In 8.648588133331067 11.799680813435176 14.073362956125672
