20
Energy = -43.35984745 Dir = /p/work1/plile1/GA_structures/In/20/all_candidates/112/
In 9.469286601084118 10.427510180664472 5.942340638539247
In 11.226905462790388 7.863755118058824 5.550191035986965
In 5.622553993919054 7.61052523112021 6.27762239187086
In 8.640424737309832 6.9489072005075645 6.900397088842426
In 6.636783698616377 10.424602254913305 6.849229713412058
In 10.865446499989282 11.598318190543273 8.325916828389074
In 13.119087282772497 10.061163770876421 6.7178829820727595
In 11.554529660232863 7.725163778705983 8.54560066838766
In 6.2682152939456195 6.844283122185216 9.145551173724899
In 5.189179847800995 9.883579692682774 9.559096558163295
In 12.962781068063222 10.031930105294064 10.101979648757432
In 7.9537541255383335 12.150658443464742 8.93543633071636
In 8.683999764324827 9.181000398251927 9.115802425808033
In 9.376956324277877 5.986991727354368 9.75363876498292
In 10.17274275733036 11.378206473130767 11.222380233390775
In 10.79719448400535 8.110319051616946 11.468765800079533
In 7.660841099206556 7.720343335851848 11.739785017745984
In 7.135061731951991 10.938222486892405 11.700761837061528
In 12.322446796956957 10.418928411925645 13.35264578096703
In 9.25116057334875 9.604942829424758 13.704326884566003
