30
Energy = -67.17672983 Dir = /p/work1/plile1/GA_structures/In/30/all_candidates/625/
In 10.575906150189338 12.388349084828066 7.641943185458388
In 8.959430876359681 10.363209677953549 5.791031430544436
In 12.655062683997405 10.436814568092856 6.678865672802052
In 10.82446021295663 8.03051217375526 6.42314217478387
In 8.0426285291933 6.920716816640449 7.43607740311606
In 13.724975506668713 8.30400669965319 8.571886697172486
In 11.963714739404042 14.1631901979396 9.782421549472355
In 11.341298208257163 6.200789270679495 8.743566726106776
In 9.055821207208153 15.057207937030295 9.162551760955326
In 6.616553319374947 9.73466402577138 7.77201696997078
In 7.495123074039664 12.536720895889676 8.449538884554888
In 14.304523555700882 12.390615288634988 8.549795002806697
In 11.976111020275011 10.644009667206905 10.016897525337749
In 6.238506481632531 8.045088725810158 10.424466180935863
In 9.443423189300258 9.43321570580719 9.053238373728751
In 6.425999721904211 11.120904054865402 10.961603808677276
In 8.803610331070644 6.490593139075315 10.4860360370348
In 9.739473338691402 12.169576151795933 11.111678909858815
In 7.37279829224026 14.031430421942337 11.724503378039747
In 14.826325785138811 10.128814563672789 10.955929543447661
In 12.38243271181852 7.800205020637186 11.403421911750048
In 11.504840811707977 4.73425694434662 11.447741024898654
In 8.741274005428805 9.314158624316368 12.165246010659137
In 10.46947404450182 15.108179112714454 12.419108911603738
In 13.455111562531778 12.837477556643632 12.131194229540375
In 10.186079971989322 6.819847645182082 13.381016657642059
In 8.042555204956543 11.82168079732184 13.919045624782553
In 12.715873410358931 9.993866910869784 13.393430320896826
In 11.049888408490778 12.548262940632227 14.114777093773823
In 10.146338313602701 9.511250049280616 14.967441668637637
