30
Energy = -66.91075082 Dir = /p/work1/plile1/GA_structures/In/30/all_candidates/1255/
In 11.61760341452847 6.99156580021681 6.2487747960327535
In 8.857463123218485 11.755816050019938 5.974194569573239
In 11.177053229425857 9.865832533395302 5.27666393551433
In 12.233247602763086 11.707222016508712 7.610253196660202
In 14.106722918533144 9.626192972663759 6.487779702908445
In 7.08386326901853 8.039306908218583 9.524194637783358
In 9.434753059547836 6.305217998086799 8.253818868990589
In 9.658489329141203 12.907344923727667 8.789416764476313
In 12.608893956081936 13.941635122870911 9.855806443959086
In 14.56706940818754 6.535905318403238 7.122654511166465
In 6.833729221613398 11.111983368179311 8.266017183565083
In 14.576718789268913 11.308205323879728 9.863688314894421
In 9.647983684730832 9.464494005004854 7.999950927894592
In 15.462380556181191 8.337805604858628 9.549242897027005
In 12.415175485710378 8.30121185579317 8.935882641800905
In 11.589340052937311 10.762701253564334 10.526687655958105
In 10.17198579095036 7.554940930810477 10.974180113796942
In 5.4189895467639735 10.525569543952102 11.281701996908458
In 8.694970415954241 10.499000544530498 10.872665962987075
In 7.235948813896825 13.409780958811222 10.832824197122356
In 13.286027213672343 8.412845221149574 12.019937949494436
In 7.7124635980915075 8.270768998345673 12.905970863445772
In 10.270260310686316 13.295971085990798 11.922688806024814
In 13.243109812093875 11.81586693788109 12.919429851409774
In 10.78069531588403 9.65659550415488 13.38756563229081
In 7.488539612719023 11.462866815389972 13.43344293537282
In 10.695346404213154 12.51633268170922 14.825731463022928
In 7.832109256738981 14.495267622613271 13.678375528998817
In 8.594299828646733 9.646760938185565 15.619604193671808
In 8.051674822639407 12.821899004923214 16.387761301088133
