30
Energy = -66.68027759 Dir = /p/work1/plile1/GA_structures/In/30/all_candidates/1621/
In 13.618683641513945 9.725944684090493 6.067198061075037
In 8.460086426039819 9.857719420586006 7.117464700492837
In 11.187564641667798 11.533098937517734 6.485581585690608
In 14.149069494852355 8.898367340843324 9.074499477043101
In 9.497478300757502 12.229427818715893 8.948114259346326
In 14.078129178575965 14.645348909638821 10.015106079481415
In 9.041155099232798 9.14758702944674 10.34054081789008
In 8.503889978061403 6.776279369040545 7.87072070129774
In 11.597787415454535 14.564422142168873 7.653761627673008
In 13.371288493833088 12.02041555117712 8.566545373219817
In 5.552271960325967 9.205051382237937 7.082495013737745
In 6.3486459612907185 7.711416149338805 9.758050731051421
In 11.2035709103502 8.723293751393543 8.14598110461422
In 6.645173123964478 11.10674213781144 9.70913192463557
In 9.115517998593354 5.581369421469284 10.64457378555655
In 3.7883208483790676 9.879979962814735 9.529852629893627
In 4.964551131837922 9.062641972493054 12.321477810301806
In 11.183413429562973 13.821483506651418 10.822808879780489
In 15.015705956913497 11.448689969187996 10.976237632348909
In 11.776454786466404 10.5895512166552 10.88699438292023
In 11.70682035270553 7.257902963673079 10.89272733895955
In 7.919139818556391 13.785145155435108 11.22241652151619
In 7.536589921131362 10.599259423862897 12.65918819484223
In 7.502584731235812 7.250617028732174 12.617387294050106
In 13.288705423733806 13.131081921816634 12.961391051081039
In 14.085112254416368 8.671638401678143 12.258007104480658
In 10.028909440512487 12.151644446022598 13.078541608502444
In 10.21150868173985 8.604307249918062 13.42589275591046
In 15.58815279223787 10.92081725774947 14.025154843169883
In 12.391725904438372 10.45676357621402 14.20016480781846
