30
Energy = -66.95734446 Dir = /p/work1/plile1/GA_structures/In/30/all_candidates/791/
In 8.702007184891597 7.83231117725661 5.825312437390399
In 11.979397621878672 9.099719901022729 5.565182951609036
In 9.123044288039184 11.103278617434741 6.170750508925899
In 9.18724185051428 14.019138078636745 7.117231348044453
In 11.376851499366309 6.3629698806087776 7.488501472048359
In 4.3315963736779635 11.124808027766349 9.50809055460249
In 6.714383775420697 12.512391088105705 8.191218061642658
In 11.894983094591586 14.7762072331544 8.227714706113622
In 12.33035721937444 11.79086963756624 7.571468451677058
In 13.716422360740074 5.950205371234253 9.592437779420417
In 8.455973337895255 6.6829093443783965 8.901369116306892
In 10.448225028306393 9.258263202835991 8.328604881183274
In 13.645466148770014 8.957145463321314 8.560995716799741
In 7.156708763448449 9.458988012802665 8.24842494850104
In 9.621942029559332 11.981402653921641 9.387139568524969
In 11.196969117594767 7.360309936639146 10.579276266768225
In 12.26908937211097 10.80477164441616 10.664531405673497
In 8.142856391640175 14.57742297520673 10.599217634977828
In 8.94833911936537 9.310166107150168 11.093484258723668
In 5.809169311203324 8.769622129287905 11.010110861570588
In 12.762938302282008 5.835875712628779 12.880286614317948
In 6.8751887540410825 11.729892999915467 11.375732206165154
In 13.933957678442395 8.604766842215406 11.929835143947328
In 7.453922476591017 6.341359762837381 11.730505692660474
In 9.582567764043516 12.204402175698613 12.657703238883183
In 11.703634871134174 13.829179285049157 11.059456506758636
In 12.687584921567186 12.297340566146893 13.638985187153015
In 9.874244890661409 6.94921828038878 13.383494251706521
In 11.201018407723028 9.587145078285301 13.504626244675338
In 7.6359864599459035 9.64998722890828 13.97038039804979
