30
Energy = -66.71258544 Dir = /p/work1/plile1/GA_structures/In/30/all_candidates/1434/
In 13.091786373757818 11.997587402700722 10.683038346484743
In 8.840295286692104 9.175815137049922 13.31677177180319
In 6.513604009567249 8.296329068911394 7.865898606110677
In 6.4137147689800384 4.7474730158122 11.029692978384631
In 12.977690890587743 8.609523645891331 6.042864183776301
In 6.302914766296146 7.426340341062739 14.243989154339387
In 8.831928031944722 6.3830004308053425 9.593926599401351
In 8.921703003509661 9.44850183815496 10.138937401972987
In 5.939338542865503 10.326817837348331 13.135015592580343
In 6.328617591814995 7.806424801642445 11.091619367511473
In 5.993421522303694 10.727071470942535 10.099384359905306
In 8.740599196910338 6.023485336083243 12.778214103853227
In 11.551955807443816 10.322161410020852 13.27762280607311
In 8.310447967784981 12.032157761308866 11.984008803143253
In 10.957436014742903 13.472084745539917 12.35549444557232
In 7.470768609617424 12.561701288676339 8.1800793818782
In 8.800752514654818 14.71044600469832 10.143177687343298
In 12.054096522365635 9.384920842745693 9.147552050873003
In 10.481422487759103 7.439099381616397 7.370998005593588
In 8.955788994747467 10.140318405983063 6.986072946565818
In 13.850230251832311 8.942953750669146 11.660880846916168
In 14.940732365942871 9.854749993287085 8.25569240262508
In 13.839224207802294 12.786782952149416 7.827050580630358
In 11.107031122332506 7.567968100214171 11.557101594850531
In 9.89084732847367 13.817118084032534 6.635697261554382
In 11.670662675248511 11.332073221857392 6.295402641445879
In 16.022806036115586 11.023597556805417 11.067319966324645
In 10.38402664676431 11.965353230900515 9.328862461228029
In 11.816036649349474 14.673835069489131 9.205362640136112
In 13.988914961276516 11.99310302308494 13.691066160606878
