5
Energy = -7.0283866 eV
In 10.256622206104586 7.755742795341862 7.80171660487408
In 9.918065268552308 9.811684990795332 9.989560668541166
In 12.66423158582899 9.476852443085562 8.675608351872336
In 7.779990998077559 10.057885544122408 12.198260755752885
In 9.082755480214367 12.566012380811562 10.946350423198835
