5
Energy = -7.60718766 eV
In 7.642927631180748 11.972126236141374 10.836055211625835
In 11.036090884685802 7.0213308240821934 10.194584063979955
In 11.988628921916922 9.727601192447846 9.12965704196882
In 9.377326745743588 9.50961120876145 10.726424310643983
In 10.475516893428841 12.209259136654492 9.67129257086795
