5
Energy = -6.84164074 eV
In 13.168592844090035 14.230000542218182 13.090013306865279
In 13.337320338158342 11.896778239761538 14.835072070004134
In 15.130575009726206 14.227905251145522 15.30282949577496
In 0.7873513584303476 15.520763091803277 0.39650751034527765
In 2.93347780672864 0.6252367615666864 1.8892709149838969
