5
Energy = -5.53015417 eV
In 13.022380573406355 12.747391596189871 18.506871724285073
In 15.253721233066697 12.298780172217496 7.105361687773132
In 13.057369510499937 15.130858924525903 16.750836941514212
In 12.82058728403732 12.838038403270339 5.2710810909966925
In 11.494216774298883 13.118592417026592 15.242205478256965
