5
Energy = -7.84179429 eV
In 11.270342562633399 12.219773281553799 9.4340329537283
In 10.954285880544974 9.515417415143837 8.044062331115278
In 9.34772016815246 10.463619010531675 10.639732054198419
In 9.181702633666614 7.652009699372173 9.106835490646212
In 7.646511086687995 8.381611287096915 11.639945585712079
