6
Energy = -9.37810896 eV
In 6.122587841361291 8.215438491327406 6.460856556180966
In 8.98337106656304 6.296542702127146 6.370545303326591
In 8.320885240283328 8.295439428256344 8.438692687372782
In 10.992756673596569 7.222910328571431 9.041651333371917
In 6.372164887121415 10.392452067011167 9.150965309002828
In 9.406251457603831 9.775234149235983 10.735305977274393
