6
Energy = -10.58948807 eV
In 8.228922109828853 6.888295510461509 10.49216149203057
In 6.9604276498003905 7.104986050199475 6.454425064884969
In 9.94403312237612 8.910659143567903 8.935375571610823
In 9.39824857709503 6.128371881040146 7.755060128356217
In 7.5676152660976035 9.904701041998196 7.5406903281977185
In 5.841793118773477 7.967220095037531 9.187838023774834
