6
Energy = -10.58908453 eV
In 10.998521334220397 11.602838456520086 9.868620475932202
In 11.705979405804623 8.81762008284745 10.450974261188753
In 9.793639163391205 7.937636369724091 8.218007586847499
In 8.939518810741854 10.701617318957332 7.773777142884913
In 8.789377045497686 8.159806023104842 11.121093389179913
In 8.11434133355415 10.980691438870787 10.719680489085784
