6
Energy = -9.58993679 eV
In 9.943615076144873 7.007772949209938 9.765739329509014
In 11.591737965523938 9.357540187610603 8.37099806563379
In 7.2356496724713315 7.504856132342852 9.774418862947678
In 6.521685847978584 10.287820940435761 8.386301161709037
In 9.160888704428888 10.36396994508446 10.005072769863922
In 8.864135799604421 8.795752845316393 7.015182810336552
