6
Energy = -9.7391522 eV
In 9.517995253556382 13.12305750292278 10.436049208923363
In 12.022385355152052 12.219723732944557 9.225287344481343
In 12.88158833058554 9.520369827706993 9.879850057238126
In 12.043639363322436 8.037582790468349 12.452624069199121
In 10.367634687475386 10.3668403714145 11.33496682867857
In 7.374982094892344 10.94375007217614 10.881894926855649
