6
Energy = -10.3290308 eV
In 12.304379886612997 12.512063672108418 10.891274675741924
In 9.39619421864915 9.163885676455944 10.903586880084637
In 12.432461172171507 9.275790783863465 11.000985991453408
In 10.897586397362884 10.91139001755538 8.681560488153908
In 9.26676183225769 12.394498571224936 10.787047839386416
In 10.809681723027708 10.763957149000131 13.110633644569667
