6
Energy = -10.55017987 eV
In 12.500547777571338 12.654326977814563 11.21008411228209
In 12.522767020044798 10.15142612878732 9.700218539514854
In 10.755809840155337 8.928061069134335 11.710757335719936
In 10.243114703506556 11.623649957648567 8.590738527013707
In 8.476667934014172 10.360435943173902 10.560615469932841
In 10.727533722879118 11.449680672615994 13.208048169710574
