6
Energy = -10.58877776 eV
In 9.53409325369908 11.024794087070568 12.647496460932857
In 10.465815357237613 8.457946362424007 11.240644989611011
In 12.214645536022152 11.82640947703624 9.415482770385308
In 12.51694038271754 10.593265730052577 12.051412547645056
In 10.06563676362812 9.767046676721156 8.653002155006261
In 9.268700094403327 12.382238832560846 10.061641066977847
