6
Energy = -9.55496497 eV
In 11.979099939494535 10.027669219225357 8.193917889337992
In 13.006855464839708 10.680111456625665 11.167478551558244
In 10.448911472024172 10.582342853116335 13.127755950095521
In 10.212499383781497 11.526493919508074 10.207370126229321
In 8.793575686877524 9.604267407064974 8.26569238435908
In 7.873544368097275 9.882484729635252 11.334738713400585
