6
Energy = -8.99888565 eV
In 10.740806159938074 10.242330584565432 13.371797874704525
In 10.845682298262336 7.401050364385262 11.990950947303398
In 8.450043996787791 9.377123005079525 10.751959536617553
In 11.156657217313175 10.131877149913958 9.759458496980486
In 8.703982433750586 11.115732605359208 8.220691506089276
In 10.973803748011498 12.624619353641368 6.642885610447783
