6
Energy = -10.5896389 eV
In 7.984928418122262 8.71248033633891 11.037150935354775
In 10.564660195751552 7.594040817594917 10.223015823841418
In 7.846827074493028 10.260318507679758 8.396580849257019
In 10.45853399811826 9.207956902344408 7.5961568919033216
In 11.745451394902354 10.42896435748735 10.103353937188063
In 9.149323414057621 11.556320855942106 10.864853473982922
