7
Energy = -11.68745011 eV
In 10.862368151320354 13.306835301545327 11.964678984934789
In 13.132935389606041 11.507067381400498 12.19261180560667
In 12.002393599896132 12.779094290381007 14.845145609924288
In 9.474470711871863 11.411144556992804 10.349988883602734
In 11.787251741644024 9.616458437500889 10.528858674781715
In 8.414805288460432 9.854842647756723 8.170697076121654
In 10.750589658259745 8.100032419324634 8.311454544949173
