7
Energy = -12.40449314 eV
In 10.620067654730507 11.449744135446178 7.299375976462167
In 12.60923036958508 10.124436553108998 9.072639553530133
In 6.93333019333147 9.669331893228469 10.632091831211264
In 9.714824067815918 9.283052528170991 9.45719872084159
In 7.74760854842197 11.057244902998951 7.953209096979421
In 8.914502668794583 8.31162687177389 12.379900771396672
In 11.758165035919317 8.34666431986753 11.517451739515074
