7
Energy = -12.06661005 eV
In 10.927651456970391 8.631568264982887 8.32541107697831
In 12.05140311074404 8.784273340333101 11.049596069677799
In 12.856548705388157 11.734217117689237 11.46724940368384
In 10.719223836025838 12.385337933859127 9.30051728425603
In 9.953882724388663 10.593861776166685 12.200049151070159
In 8.326474753098784 8.852035874422242 10.265802454890165
In 7.786297732452665 11.62278082424207 10.028006951499247
