7
Energy = -13.12076487 eV
In 9.177224930167714 12.24424335887708 8.775141995651381
In 8.159087190445208 10.88885880409301 11.230580780183026
In 11.902680664741546 11.536991977436411 9.984869085745771
In 11.566398407224169 7.980526830824902 10.759434814386491
In 10.731347817805421 9.610206572433519 8.078905400089932
In 10.822396493009 10.395134075289088 12.39705384063606
In 8.698686984396367 8.42538713656284 9.803386871797558
