7
Energy = -13.04541759 eV
In 8.077898175691326 10.58268511341403 8.260237780312803
In 6.154897659802159 8.775976054108922 6.925532812327191
In 10.316687167770533 9.018280661388392 7.126568457980689
In 8.387503196198379 6.812614155888489 6.381323724752676
In 8.064850655516958 8.82054263530797 10.634140697251864
In 6.693210901203916 6.66346182066447 9.02043401768092
In 9.82443174381673 6.8459187876737 9.171242281248118
