7
Energy = -13.13279405 eV
In 7.3138529547028055 9.062079212874364 8.856695692864799
In 9.329834065010006 7.2517347627552535 7.423993347430656
In 6.308893258973131 8.966874264085869 5.958440520892396
In 4.900293061384057 7.097999064109122 7.651638244691815
In 7.304239530756878 5.7252092862889805 8.8075770084094
In 6.12663968530749 4.698174949046995 6.16580601689886
In 7.907978741004565 6.750973329425861 4.919458788820622
