7
Energy = -13.13148393 eV
In 9.095943959296896 10.647520877772127 12.143544432430634
In 11.897166338077819 10.842463440063753 11.329190435291432
In 8.76403668128983 11.906601445950626 9.526418599503412
In 9.033689215504797 9.306291922188072 8.295110821314708
In 11.563751455533252 11.477487848673201 8.345738394613878
In 8.794394566970402 7.896980389300312 11.016524356868103
In 11.525010795752591 8.452286276720773 9.737163390885616
