7
Energy = -11.64823494 eV
In 7.661801489709334 11.88274043424772 12.555877542695812
In 10.492458914459123 10.976108411449479 11.626249083371732
In 13.228818030203472 11.20433541302631 9.938477610988421
In 12.570868575079347 8.525298750820635 11.641422613729905
In 8.255392430338162 10.484663373522693 9.806064592208692
In 10.828324676644575 9.325853595838531 9.0603971418267
In 8.490600391850382 9.173247882995943 6.9815445162232
