7
Energy = -13.13155208 eV
In 7.780098311034878 9.428149918230055 6.341532520677197
In 6.6502195611048425 5.86585762839279 5.891193373611266
In 5.192732899295816 8.183670020875441 6.904335463055862
In 6.004356631079501 7.574493747607017 9.707819697167995
In 9.500939973522915 6.963648950964199 5.8059761250224975
In 8.839142572491975 8.367333875128145 8.806347387605022
In 7.939295270642354 5.541012336928692 8.45140325122446
