8
Energy = -14.5494332 eV
In 12.296745990935966 9.610229613922193 8.97633635809559
In 10.06745743250572 10.273448253416342 11.024871095159712
In 6.599912753398352 7.9433031845624145 8.545474406057808
In 7.614249825507654 10.545070602590435 9.88625739184751
In 8.359029565766104 7.146878922318614 10.725273477342759
In 10.279041447546211 11.113956424453418 7.513014315817148
In 11.257148505203931 7.432699927446132 10.701821796572474
In 7.6332572803219305 10.12082419929586 6.816721478969896
