8
Energy = -15.57036427 eV
In 9.739939737719368 8.156147338891696 11.014526872578225
In 12.059316987583854 9.56806839967631 7.778234987854369
In 11.490723516909137 10.672997319317043 11.829819250672116
In 8.470378566279209 10.541987444030463 12.544419710631376
In 12.753707309205103 8.300639009876951 10.268658135708463
In 10.838077334989205 11.938926630737056 9.349870582370414
In 7.819194485149986 11.805460515597504 10.045643102584695
In 9.063676561625485 9.411605942160918 8.541464784168198
