8
Energy = -15.06914549 eV
In 10.000914566151057 11.470792903589095 9.632709586509947
In 11.052097447889759 8.694868003217644 9.048408474714877
In 6.051099370483348 8.460773500954488 8.365490799965958
In 7.956423534912182 10.705408861350291 7.5410967850592545
In 7.444517261623801 5.9971634782477965 7.467684923787274
In 9.180216470302 6.403134537060371 9.844600372645663
In 8.02474691008046 9.0654155975212 10.513203591951973
In 9.367120081278317 8.279578939419945 6.663941286725752
