8
Energy = -15.56974536 eV
In 12.151229989460708 14.689566988424247 14.682253487150247
In 15.12522612993846 12.587166063850617 12.456769412315124
In 16.197215601491838 15.252216671271643 13.61374216745701
In 14.567951592082133 13.400092952867954 15.492411474072862
In 13.76029929902331 16.538311983067818 12.785433799798357
In 12.681226351465599 13.855106698012369 11.670545114661687
In 13.531106564668734 10.717266287080973 14.33775027625161
In 11.069644326366998 11.994676095599367 13.569933489364914
