8
Energy = -14.75287076 eV
In 16.33168541024466 13.424093707632007 9.483378686965448
In 13.859416282975864 12.766339566443888 11.185810085717453
In 12.596397240758808 13.163210132670176 14.335983651289066
In 13.169924243903404 10.621408912903004 13.211519787614435
In 11.108626351380067 11.652662104259315 10.583740174516816
In 9.628461252587178 12.343431561906927 14.340273547070396
In 10.310742254897505 9.936013788573765 12.86087307672856
In 10.82260157254068 14.049442169974247 12.077161546074647
