8
Energy = -13.65447072 eV
In 7.175386986937309 8.3819442509218 9.463100875645551
In 13.190050403717946 8.64290393563029 8.47178551088656
In 10.185042012842507 8.363713796325868 8.829444726385649
In 11.803006279857515 9.961257478583722 10.88470688019153
In 12.409555839029851 10.78490396114872 13.846363997012485
In 10.702775353475431 12.534886667525171 11.98026057260726
In 9.01802240762261 10.848821574824054 10.050718447769945
In 8.958690526867125 13.924098145390538 9.916148799851058
