8
Energy = -14.6721965 eV
In 7.298942907489807 9.281207907448987 6.591782136684553
In 10.275221614681252 10.55805494736841 6.862564438810341
In 9.498155959319481 7.572156991348216 7.485533338862112
In 6.453559952749182 8.528481281794607 9.363240579971716
In 7.805219602907354 11.223369894849252 9.057870151202847
In 10.116338299741974 9.685534668863157 9.84309815661241
In 8.62916399668092 6.895664855497445 10.309736451670126
In 11.237777157426338 7.569908943826005 11.800554237181956
