9
Energy = -16.11492436 eV
In 8.050573669156382 8.533580323495041 9.445143810040815
In 6.79832609008206 11.209851820026763 10.1381753105157
In 8.242680487847323 13.690136887050937 9.539503976332716
In 9.608228350066897 10.86782847989677 11.041886115262633
In 10.863719284373845 8.27382188585849 10.584612768634338
In 13.883256738432827 7.9563035086394045 9.921099958506344
In 12.389380520761263 10.646061427727311 9.427678544645108
In 11.080491537857473 13.289690121902868 10.150118487087923
In 9.249231780397889 5.698613545402417 9.917669334958642
