9
Energy = -17.28432407 eV
In 9.701435901920982 11.67628922617095 12.395011827998497
In 12.19417261180277 13.856143138341707 14.940940102193977
In 14.860828087937454 13.316861584394244 13.661399111444751
In 13.442165672332676 10.703604023725406 14.043400852301835
In 11.615789915111618 14.165210257279748 12.108080269117465
In 12.644040686146335 11.453599589685858 11.3395036007475
In 15.340776296584293 12.753712288834093 10.656137281047211
In 10.730746700462861 11.25873428819379 15.154776332976358
In 14.32628023780547 15.55368324820777 11.534270868859792
