9
Energy = -17.08151947 eV
In 11.819821078591554 8.48297775883477 10.671801207788704
In 13.156300911835809 11.138442107910583 11.344252605527913
In 10.30641246441707 10.732089412728811 12.651727491979539
In 11.10695799277275 13.267840127372112 10.835169920698608
In 11.012807604116796 10.547568202932277 8.732183924223646
In 8.659956403758517 11.884787918973903 9.957916669582257
In 8.563436178175962 8.830751558466448 11.365125369913132
In 9.84234547600639 7.2614019346793235 8.838399614414422
In 7.83574052452939 9.442754699617923 8.364587746842382
