9
Energy = -17.33039908 eV
In 7.5140359575427675 7.46142121945498 7.7565481199115665
In 10.454732531056727 7.005644955922641 7.810014902820004
In 6.903414586269256 7.7600621455654855 10.722318976880308
In 9.835692165156681 7.3913002219708375 10.72932359748501
In 7.952247312913103 9.995664146022879 6.004535831982005
In 7.376046644213879 10.361695668852109 9.008947248407422
In 8.359837973728162 10.132635342984825 12.17826808489761
In 10.819736592503155 9.33215707712837 6.0608142916083745
In 10.236206193507789 10.011369722097392 9.181178902898953
