9
Energy = -16.6708046 eV
In 7.028486011512736 8.79132366468911 8.68194326119091
In 9.78550189155753 9.596291075887047 10.254276082650623
In 7.673129642915191 7.630322156543367 11.472979383772646
In 8.183596714779087 10.922773472494843 6.46816163297256
In 9.614445028968087 8.101760742416731 7.345250155640698
In 10.994512089735156 10.84982392882613 7.650842074328002
In 10.989024667719958 6.7473268143740155 9.75950189378429
In 7.676926774791345 11.734681022257568 9.364769737776797
In 8.177178437147363 5.748497659016715 9.125077518757042
