9
Energy = -16.36022512 eV
In 12.276352124549962 10.58782131194311 9.128992392931393
In 13.061884430717557 12.760834575753671 12.244083301955424
In 10.699217336438759 8.759980987652662 7.049659003111796
In 11.07901223416292 10.570727770174353 11.982473875947523
In 10.628415907696436 8.15527166943156 10.181587396542461
In 9.983611032565477 12.482602060404016 9.805298729698
In 9.968499074055677 8.667746714605826 13.999837195032873
In 8.244253614430338 9.984954674338763 10.75961439632464
In 8.098444352647153 10.985454659178162 7.727862748904737
