46
Energy = -99.65422003 eV
Ag 11.176690613513795 6.534580890906307 10.150907705916701
Ag 12.924027489966358 7.53464395035555 8.209956258085121
Ag 10.394803540600643 8.65581101098071 8.553147828156586
Ag 14.007107181059322 7.74893381046122 13.63861631470555
Ag 9.327526789621263 8.365746697113043 11.195083405056854
Ag 12.510839222635385 10.190634906251404 7.581903166810427
Ag 11.392420762632993 7.50446203527254 12.762664522560598
Ag 8.051840210733669 9.94179986026926 9.344233366063222
Ag 13.508755013048905 7.846489283894822 10.889759178377725
Ag 14.754787437598184 11.928913977757977 8.09596238298436
Ag 9.443943171317244 9.255313221576587 13.87148073269395
Ag 16.59360198207644 11.92381506779877 13.46548056374024
Ag 15.324562623182429 9.62185937330163 12.124899971480483
Ag 14.998473737502612 13.011320551745738 15.414671996910588
Ag 13.416046122039997 10.64608268951803 10.2296891651947
Ag 9.913285514540386 11.36808071091111 7.813908101341245
Ag 10.662443814375836 10.947519109353182 10.602168162138698
Ag 8.242279861023716 10.940953587083898 12.018225860060408
Ag 12.048326362642456 9.156044725621978 14.975110464612756
Ag 10.04098394345581 10.684794746783963 16.219956877536525
Ag 14.785334187584612 10.127180068604927 14.939755657891313
Ag 15.762565010547545 12.049659065108202 10.787556685707315
Ag 12.149740258426196 12.749382470105026 8.752903802811492
Ag 14.303436726815804 14.173088229586732 9.821115798112277
Ag 15.048281910690838 14.272141614578139 12.566472263917689
Ag 13.70073873134215 11.75528974134737 12.927366658555881
Ag 8.32683142633308 12.170539046508193 14.568811764548524
Ag 12.54529145310978 13.985279429170237 14.193280196804194
Ag 11.95247925600023 13.443759476339588 11.50358531163458
Ag 17.099591349581235 14.555802357908469 14.454428716287815
Ag 12.643280910721968 11.681577093043122 15.994134667178386
Ag 12.946266707073676 14.35951612004238 16.966587312480257
Ag 8.335405008975913 12.675049126664808 9.836469120994508
Ag 9.882321857857958 14.23217471284646 8.146876784152644
Ag 10.889513846385885 11.651834865257426 13.487098127799936
Ag 14.047498128909277 16.58099381009025 11.20220548100606
Ag 10.433175190123936 13.497457531903452 16.082175543048358
Ag 14.640166696927345 15.799052931069273 15.263362867169636
Ag 11.506745033316674 16.297199028016607 12.370718203861795
Ag 16.08684611009002 16.840871687071758 13.095208694941029
Ag 11.878395026076847 15.564301158288627 9.631897689550444
Ag 7.464753740955406 13.666111856724475 12.349781284641203
Ag 11.673421751644796 16.30260584695365 15.304339407206024
Ag 9.407061530724384 15.0572605177109 10.847003148485273
Ag 9.7949263708073 14.472561940103848 13.561065656280572
Ag 13.466395059441552 17.734718742031003 13.691181804538612
