42
Energy = -90.10668791 eV
Ag 7.511186264281038 14.061517135243573 10.051405910704057
Ag 6.840252945739672 11.268145146210832 10.940543876440644
Ag 7.075705757483655 13.514197885555927 12.798314102499013
Ag 8.791322569302988 12.077692611458868 8.60010708775243
Ag 9.218234726067264 15.336213225253834 11.912055539812233
Ag 10.382143215468254 14.204136949292318 9.558819715647962
Ag 7.8617652795166 10.974131338126908 13.646602137832689
Ag 7.28654439953712 8.596480194324425 12.234998425799336
Ag 8.761885610197378 9.617614597024069 9.775461272088881
Ag 9.283799633954372 12.430914704367426 11.518318769354384
Ag 9.451282734976587 13.185912779490396 14.316700848216108
Ag 10.825431790492859 10.367799994036494 7.636043155263096
Ag 11.763730628506979 16.28944824231346 10.836740609936687
Ag 10.78418923538736 13.250873940424903 6.955845306922559
Ag 9.000610316856916 6.948872609244765 10.701918366488934
Ag 12.118873204523643 12.742449381638279 15.249835489407202
Ag 8.423924332291069 8.554636506195704 14.887531431215452
Ag 9.193926524352662 6.441720902507596 13.39614793540218
Ag 9.99476623713578 9.252290778770691 12.307529070438424
Ag 11.558019740517135 14.354253927422155 12.932736475729133
Ag 11.46917017951418 11.375108347512791 10.095895409312245
Ag 10.293731359569945 10.575528858068544 15.242937527520928
Ag 11.536896601497098 11.503292872691887 12.849932660218544
Ag 11.1502412129247 8.22845212394309 9.468251712087106
Ag 12.64942795782823 15.149714239211399 8.107364126273184
Ag 13.972777945829595 15.703886363070968 12.635004451202832
Ag 13.066323312180991 13.797339846024167 10.566437807412099
Ag 13.131196312394843 12.258939093353982 7.983743838016284
Ag 11.570485463541386 6.7997451323840306 11.957939846192206
Ag 14.472973725806838 16.298044948409636 9.949420704914472
Ag 12.882353983589434 9.39554522709502 11.54613398187027
Ag 14.045953892630319 12.801111678510777 13.166922724187973
Ag 11.352168260153471 8.023976447902399 14.493836872096752
Ag 13.197032303437028 10.150316146764848 14.631189883819802
Ag 13.456661445853756 9.574426514684907 8.697838561183477
Ag 15.235305737786977 13.987469697548558 8.62322058039075
Ag 13.606585397019398 6.998861830299753 10.077404970482796
Ag 14.71660653508217 11.573844948219353 10.314771151704047
Ag 15.819182471834342 13.997754079451903 11.361975705563477
Ag 14.02179865272775 7.709681062397886 13.296758659375243
Ag 15.298373908236968 10.356343479196623 12.815737688278801
Ag 15.556001636908986 8.917739916506287 10.470970988136058
