18
Energy = -35.27968436 eV
Ag 11.285444817774001 12.605536214674466 11.97899704323506
Ag 8.093861185510871 9.984072477688327 9.566304478711734
Ag 8.917988591323255 13.77661201868793 11.356095791031231
Ag 13.792631858524706 11.78066966045241 12.620797553651439
Ag 11.412820479001308 10.231644359443994 13.336616890067182
Ag 9.214340508071476 8.599572341198614 13.56807728429323
Ag 12.093730681647797 7.466825696031953 9.697949678315732
Ag 11.188705916187343 13.697663497804525 9.436459734237925
Ag 13.317456233826682 14.341675694971208 11.270457774841333
Ag 13.427646915001198 12.049031912331062 9.780723646032062
Ag 8.93348676090661 11.056181317644244 12.104420698443795
Ag 10.038217027941219 8.732484327389178 10.955079625508342
Ag 6.7377263416277655 12.142363323100676 10.745545837896287
Ag 12.955377568381051 9.606848856231132 11.149131291176914
Ag 13.419484434507691 9.673053357178222 8.436672113383551
Ag 10.912415188301003 10.744239800575222 9.182133254060924
Ag 11.786481606829602 7.508192122282015 12.658440057623805
Ag 8.786728815158696 12.52854660196853 8.867234890340045
