50
Energy = -109.27407782 eV
Ag 11.468735271907326 13.712188815332249 18.639873144756876
Ag 11.926385046576364 15.742461674896347 16.64214285882556
Ag 12.279573126121425 10.298014063221036 18.499887390721543
Ag 9.680588341294593 13.97346185951259 16.42929579797733
Ag 9.806116261480405 11.494913004700829 17.729687753724697
Ag 14.682759387771736 11.597885475429942 17.98550523579584
Ag 14.069785484211694 14.246955974487147 17.60403611553866
Ag 9.78956948414188 16.30108518273974 14.887241729703906
Ag 12.392892559829438 16.932673428009736 13.902306606631123
Ag 12.243479208262581 12.182320217782506 16.50612408092486
Ag 11.01352867188195 9.478179308983206 16.127255213304522
Ag 11.778657123299489 13.995224460547348 14.38677151256215
Ag 14.760451883317234 12.621055019334566 15.314770572826783
Ag 9.807049626814685 11.639562580718087 14.839894565491354
Ag 13.940981106634721 9.79543878423605 15.96428608377151
Ag 8.913263718520335 13.913187407722234 13.57537260659413
Ag 14.328138788989387 15.466830444107334 15.15399512133078
Ag 14.494075660472468 9.252592108281297 13.042177988639919
Ag 10.503174303841886 15.714919248178505 12.23083102822817
Ag 10.237868441434003 9.23770349536893 13.344893128888476
Ag 12.463551325050219 11.029744846012433 13.918623791069734
Ag 12.51402611296071 7.895328228745467 14.432214034400705
Ag 16.16525486499037 14.305755753312097 13.510758055222784
Ag 11.384865293756487 12.752082483940166 11.929300669775904
Ag 15.042086643986119 16.82714313977293 12.625727945247814
Ag 13.425686722603283 14.694741025886245 12.166903546637826
Ag 12.656702473151864 17.114258515845645 11.035291217609275
Ag 12.20786205330381 14.04641663742943 7.300692225797026
Ag 8.803497981587224 11.38602269631702 12.188690247057467
Ag 17.51057197532078 12.460534383665257 11.910347929397563
Ag 14.682718298584854 12.15127242762856 12.552019990497902
Ag 12.939426462918512 10.503684683148228 11.01845485276426
Ag 8.958819392942898 13.787085784067296 10.699300832688115
Ag 14.392415426020177 8.271526889859151 10.061258489944551
Ag 12.125381386058805 7.930372203953303 11.671579153116765
Ag 13.705807611675999 12.956013846721449 9.900782737020736
Ag 11.17515561507272 11.95593120172287 9.233355685718832
Ag 15.949888100145044 14.577053097297332 10.758623602766686
Ag 11.35017784453752 14.877163431391729 9.758350275393214
Ag 13.999397636221607 15.571263478411986 9.027055897646612
Ag 16.07229859172917 10.279946947366595 10.955479384942494
Ag 10.158499175149542 9.588347059613922 10.515114593817318
Ag 8.325479926741755 11.378314270867456 9.365452898258331
Ag 16.755591175461724 12.367966637987596 9.238649590401055
Ag 9.449990573915237 13.534878742372314 7.844614979149555
Ag 14.889552602538634 13.269721644214615 7.420950485949371
Ag 14.76992702641788 10.547956846234419 8.439830826635932
Ag 12.196609876982865 9.260936295890653 8.587174357050461
Ag 12.701681228952413 11.381617989648037 6.793663683189475
Ag 9.99784519816726 10.58810835083655 7.221231578344737
