11
Energy = -19.52177734 eV
Ag 12.197936821806529 11.076036176245708 10.066687466926034
Ag 11.63483570070624 9.233107067424736 7.978447313679127
Ag 11.292070559591721 8.486826792875197 10.638506027915984
Ag 9.939338887249844 10.638378232806382 11.689135218480596
Ag 9.451680917662216 9.335307351944104 6.269552214353799
Ag 9.613831909122146 10.909143675537349 8.762729752763072
Ag 8.72086752603057 8.034853599766837 11.443416998971479
Ag 9.216048243947057 7.97805929366633 8.758383195019391
Ag 7.48605877112193 10.221476309322055 10.314978037922172
Ag 7.069994142506128 9.400570504227366 7.5325539883677735
Ag 6.439826560080408 7.749538412684097 9.596332512137032
