8
Energy = -14.08452842 eV
Ag 9.148336048278233 9.148336048278233 9.148336048278233
Ag 7.136421951721764 7.136421951721764 9.148336048278233
Ag 9.148336048278233 7.136421951721764 7.136421951721764
Ag 7.136421951721764 9.148336048278233 7.136421951721764
Ag 9.759197272150294 6.525560727849705 9.759197272150294
Ag 9.759197272150294 9.759197272150294 6.525560727849705
Ag 6.525560727849705 9.759197272150294 9.759197272150294
Ag 6.525560727849705 6.525560727849705 6.525560727849705
