31
Energy = -64.97757054 eV
Ag 11.793818605397158 9.951830530365466 14.445098524011128
Ag 12.959494648870125 12.419874141192773 15.105881947573492
Ag 14.29695402758193 10.716790780526903 13.339335927117034
Ag 12.042384886888465 12.17146120554881 12.500910288888615
Ag 9.778144937812906 14.195857088776568 12.266854270227252
Ag 14.41754145129764 12.16146246068001 10.803846665375024
Ag 13.210550436290307 8.071531780658411 12.75363122589976
Ag 11.849868712750894 13.791154925946202 10.275498146093652
Ag 10.462763823687968 7.56037208203864 13.727588246364839
Ag 10.213030520251074 12.356032081966392 14.605226760501212
Ag 8.96155945580554 9.97683512701566 13.606653703592356
Ag 15.1206561636478 9.419314735832279 11.10109980944202
Ag 12.103610786699653 10.955414709105282 9.831342247956615
Ag 7.198979213565926 13.377096008655734 10.94539733962636
Ag 9.640436484343756 11.794376435526361 10.953054504644516
Ag 7.733047694313843 12.44795970980903 13.443881578706886
Ag 9.247608146546593 14.283008213637265 9.376892124208974
Ag 10.978994301635181 9.40944321804229 11.75509595894613
Ag 8.528231950727754 8.01937563588721 11.520506746987554
Ag 14.509811717307949 10.241601539559717 8.520876070914733
Ag 13.291627362957191 12.745682822606142 8.079830259313994
Ag 11.472015701892092 14.904379687335775 7.780199660596416
Ag 7.810566634470742 11.794388989147128 8.722336491127008
Ag 11.115199539294252 6.6645128150261765 11.17570433854451
Ag 12.95705188582393 8.240253926986481 9.790696796671105
Ag 10.429566750258 12.321171744957477 7.74815566096793
Ag 7.426789602788612 9.020603474685215 9.043077212012355
Ag 11.960179101480765 9.95349438749892 7.280472891176249
Ag 10.219476002764262 8.568558176629661 9.148856642545997
Ag 9.125963727668125 9.985950642649097 7.038916277351966
Ag 7.184677735607604 10.520812932135131 11.353683693042168
