11
Energy = -19.80440088 eV
Ag 7.239467379715809 8.186565683160667 10.511764653380006
Ag 7.3609843415269225 12.451453795263607 8.005090425446477
Ag 8.473838233116677 10.905112938184441 10.152355173622722
Ag 9.80682075920117 8.853280218128232 11.506585330234293
Ag 6.820446419623729 9.76189557895379 8.268779455126143
Ag 9.44794570368599 6.225303153335095 10.709013715928542
Ag 9.219212363206125 8.20068158702338 8.689791966684323
Ag 9.418162670931231 10.7699567922354 7.4340474947266735
Ag 11.17066475924568 10.366005452379738 9.676828485042417
Ag 11.73171145325919 7.50948898337825 9.810118341040736
Ag 11.477504994928205 8.904454648722584 7.331871099687341
