15
Energy = -28.48019000 eV
Ag 9.325346151830272 6.878364150024108 11.040016866690396
Ag 8.030051062589711 9.39403167745516 10.897421194053141
Ag 12.17195030555646 7.170721486361638 10.799663072659463
Ag 10.463730224383994 8.377644712712518 8.987021234500212
Ag 10.715069230822433 9.30161096205994 11.78451956382387
Ag 9.28786561111878 11.61603224926628 12.106673555765942
Ag 12.770780151122878 9.808958933872137 9.967995623044603
Ag 6.035397902191664 9.854404717217315 8.985062626441986
Ag 12.948263637142158 12.463512976176586 9.071235029823528
Ag 12.045001173057763 11.822123853850036 11.730913479795932
Ag 7.765572329595887 7.634603774122134 8.762275364830442
Ag 7.4849243182147225 12.017805594307292 9.949782396883593
Ag 11.401203336491484 10.627865306770133 7.611026918960751
Ag 10.252349458612587 12.152668334627592 9.574930355522673
Ag 8.651621749996625 10.228777913904409 8.080589359931029
