51
Energy = -110.88622864 eV
Ag 6.738971935121666 10.652859464510142 13.134505388299553
Ag 8.028600003811583 10.36841278985897 15.565540010487249
Ag 8.06596312317147 12.98380107133433 13.984434167182505
Ag 6.577628691476328 12.798859888831023 11.408404654318367
Ag 6.375999740286038 14.865040104075723 9.6331841314119
Ag 7.5611039136634055 15.25683204816143 12.216348315514741
Ag 10.079888217618686 12.139482362896429 15.828120031917287
Ag 8.248564707952566 8.33679456474159 12.249496873217474
Ag 9.304444846670423 7.975186467429988 14.775172372023102
Ag 8.088871708359553 10.608210866958437 10.654825417663869
Ag 9.816931869790466 8.38713741367547 9.915427378837348
Ag 9.65426822532929 10.685439231527614 13.265074919046144
Ag 9.784435817929563 15.27589591296837 13.920864662886839
Ag 8.344816842937892 12.943539055725351 8.862563049017389
Ag 8.852339402518377 10.322283624025145 8.057339370196724
Ag 9.54863235702824 13.090589741597876 11.472208888364403
Ag 9.05429150912364 15.513698076909833 9.841952131463469
Ag 11.507777280003381 14.466665253126326 16.071171680422754
Ag 11.092647201531765 8.317712704580044 12.549520043887632
Ag 12.669354431072161 8.315198668623811 10.137579071717576
Ag 12.998133249719771 11.929343130071912 15.752656385947231
Ag 9.538727848314926 17.30233060035762 11.98143574401674
Ag 11.361718341177205 9.643223140049471 15.356984663483141
Ag 11.139675845959866 10.718103612570063 10.697827321507331
Ag 11.447824284090164 13.073094344062406 13.589536501897433
Ag 12.804704171092215 10.687138279726916 13.114047257726764
Ag 11.490784722749055 9.44335830776797 7.855355292728165
Ag 11.38854131078487 15.347736435935017 11.436060336534403
Ag 10.5871543142386 12.12866328050616 6.94073148973644
Ag 14.316049092846807 10.58691191076929 10.727301169136226
Ag 14.278370299022606 14.462503419706316 16.014887563905372
Ag 11.103582653467711 13.766027440020547 9.081388768150866
Ag 14.163182370534864 9.266508640872953 15.17541455513025
Ag 13.890695521648489 8.09772750435236 12.596707242624687
Ag 12.626936001181969 15.830627616469636 13.930401881901844
Ag 12.922472584405073 11.708115644307698 8.425963977490811
Ag 12.83487076398181 12.904372137887181 11.169963925738687
Ag 15.794839114236764 8.259868191840262 10.512033195848591
Ag 14.35413344941661 9.30201468225881 8.09864490702432
Ag 14.526078233848288 13.225513886424286 13.486722330701054
Ag 14.196417560249651 15.362650684616526 11.59628737667759
Ag 16.852047773532714 13.963508051071523 15.026995144331027
Ag 15.834284312998708 11.432688799277555 15.266127361400061
Ag 14.012803697294238 14.178613963613003 8.989805751488557
Ag 16.087187829196626 9.675930629289555 13.038731732393503
Ag 17.32328467366891 10.690862407931574 10.68097904761323
Ag 15.785587467462955 11.823077055051554 8.489821551279958
Ag 15.376801098670558 16.087798153847242 13.994090050765324
Ag 15.834400350023259 13.112802765577845 10.93807250479951
Ag 17.13475659064471 9.3603919916232 8.279976611463097
Ag 17.40099280811391 12.153497269581838 13.0283709004536
