21
Energy = -42.17265915 eV
Ag 8.307192804243574 10.897486258424065 14.047871428165138
Ag 8.107923623294017 13.37113306917017 10.286420802769829
Ag 9.831975965473159 11.89759272782966 11.979101981269228
Ag 7.272302014386419 10.91770034170136 11.40898912800306
Ag 10.919414668831372 13.816744716147625 10.236247677547299
Ag 7.0494253353744005 11.328285330203132 8.628065547325848
Ag 11.213035157123775 10.128125014820972 13.607006311823545
Ag 8.940377113070078 8.811599220674044 12.338598906884124
Ag 12.61005870895718 11.828133937181867 11.380436034938718
Ag 9.89518405382696 11.436634829553888 9.181887174332557
Ag 8.302078835841186 9.038128756096322 9.583723132098811
Ag 8.91474373016742 9.96696648014062 6.9873737209863815
Ag 11.433000107128553 7.420041052493163 12.70195877965278
Ag 11.205972963419168 9.520925489022542 10.90991107167852
Ag 13.047635779266706 12.826398851222253 8.788100409579824
Ag 11.62180368017539 11.135791793890743 7.05445814176522
Ag 9.999570847158468 6.976519201873612 10.307803281861233
Ag 8.819044198029392 7.081653011700897 7.695993378689905
Ag 11.039750580267702 8.650772173128765 8.229288003226507
Ag 12.837093916778684 7.431911010384912 10.116698828729493
Ag 13.284640585836176 10.109531440018166 9.13782689689578
