36
Energy = -77.33406902 eV
Ag 7.884130444080408 12.593442906602117 10.146391376744306
Ag 8.332071274979526 9.867113395222068 10.839966525724115
Ag 7.891034923342192 15.472486418917502 9.545881871862488
Ag 9.527396267973364 7.303637829703554 11.46672690737602
Ag 9.831921699263138 13.825680387171568 8.446186745284859
Ag 9.77157978220999 11.031532831056404 8.685030993363004
Ag 9.671692090079532 8.286433314643117 8.848955297635126
Ag 8.534688082523266 11.828755802657547 12.831716362538033
Ag 9.753832210149847 5.539922927756443 9.343028739954413
Ag 9.569807321393696 9.246331198865652 13.40781137057114
Ag 8.424553929166214 14.567396511420288 12.097890440877991
Ag 10.694985090021639 12.766506998621812 10.950601395531788
Ag 11.187252066840054 9.841256854960012 11.01013877193092
Ag 9.703880726379577 11.229469485710043 15.407325123899579
Ag 10.480072717794673 15.734094179798984 10.551214170734546
Ag 12.029663075668624 7.757332690253166 12.752926828613647
Ag 12.24442442449381 12.303355413330014 8.392778459778306
Ag 8.904802704044053 13.879431668754425 14.736389883127654
Ag 11.535257541628345 11.54430189618037 13.350767883905714
Ag 12.325100320977358 15.14524040701886 8.537261336079977
Ag 13.429407332705095 11.468872723354563 15.526552902683829
Ag 13.370368405643688 11.789926766774363 11.193464256361793
Ag 11.95400713945489 7.052988711325011 9.976758392696992
Ag 11.041763612811842 14.77866531481012 13.16168887064336
Ag 13.592843492078568 13.684727182700035 13.767828401912256
Ag 11.759434549789171 9.233954510842567 15.136611549635772
Ag 12.235697964311107 9.461074164849116 8.403556145222709
Ag 11.485829287695436 13.473719258534517 15.613391602574264
Ag 14.579716939520413 13.620211955578597 9.190914275259198
Ag 13.91928692931671 8.814353672176564 10.6789137533112
Ag 15.564147294780325 13.548868004482236 11.777413124333345
Ag 13.921490004322552 9.75584282185625 13.327524320922649
Ag 14.665855927954622 10.809238017193659 8.833822206500482
Ag 13.04418819489458 14.787613942416785 11.216879535655327
Ag 15.915968980076359 10.628549644085085 11.417907898511114
Ag 15.69567941026813 11.844217441278248 13.964828662699192
