20
Energy = -39.71423533 eV
Ag 12.91853904554637 8.533493591114047 9.02198762364114
Ag 11.586487692781096 6.296084216309148 10.310841294478356
Ag 13.43811037302035 11.443608340752 8.288029920314706
Ag 10.092081685240217 7.943707896885663 8.771846322409594
Ag 11.017924534931735 12.544115515884052 7.438671622315783
Ag 11.08205038868092 10.52084507119757 9.36144234109467
Ag 9.130776356794286 10.366749641651035 7.416245279993156
Ag 13.374379386231325 10.911483120340302 10.976827486265636
Ag 7.382118118859068 8.31179141998751 8.088831820974336
Ag 11.77827164515824 8.78512788265373 11.579489296215923
Ag 11.711571756432367 13.070670056400166 10.289516761913804
Ag 12.080873841979187 12.053465206341965 13.183420126602005
Ag 9.851311746343324 11.500739832701871 11.834873221541871
Ag 9.399383469826665 7.545314679109421 11.709869196205815
Ag 10.621012968282152 9.74656142474323 13.870240216614432
Ag 6.62636620732107 11.124210271120655 8.57919808531033
Ag 8.978257344909021 12.49340400143545 9.332587600720121
Ag 8.41270045204622 9.698752886148995 10.196794513916121
Ag 7.083193629730088 11.878891494802861 11.343697273786779
Ag 8.021810561680555 9.736155312124112 12.96228500288353
