44
Energy = -94.77262342 eV
Ag 11.853916765955098 9.815326251586075 18.203076947263366
Ag 10.707087783892772 12.582905445688745 17.05496060504662
Ag 13.336150009418079 11.61750736844986 16.846132925100363
Ag 10.563185182549523 14.858050968552792 14.91871044356656
Ag 10.812882573507682 10.184065434810597 15.682719328860909
Ag 12.712470717839887 14.47340778369202 16.731806625951844
Ag 13.26187383909911 8.899522586411562 15.836011997710546
Ag 9.334906859805496 12.350728212671296 14.624691035067686
Ag 8.388300461749882 14.35847017202825 12.94254503425472
Ag 14.959723249925764 13.45726357667263 15.510917345566549
Ag 12.203755762687893 12.596843075884939 14.332749831768213
Ag 9.358351371058204 9.890988910165797 13.30647762035312
Ag 11.208434664566152 14.43811222946599 12.21666022621649
Ag 7.1403659306476 11.57221284552951 12.993970522390896
Ag 12.160998724331192 9.751919979357748 13.283448108297582
Ag 13.28576310080503 15.458522388534082 14.121732907893591
Ag 14.626884246544325 10.895666586490856 14.446268423194198
Ag 6.965602257677337 12.869838917681921 10.587566257125443
Ag 9.01760981099939 14.704545624920039 10.216428744129635
Ag 9.616461689579305 12.24581874045626 11.625582561299565
Ag 16.2504833516937 15.211066310919172 13.792413065196275
Ag 12.005998195808623 17.16213461422811 12.23894918231123
Ag 14.820879865139544 17.17171642092584 12.417739169645827
Ag 18.572715473742303 14.345777436956379 12.381837333063602
Ag 14.485137578630395 13.245520299399017 12.684262582641711
Ag 10.576383456399483 8.341502319952594 11.376335337888563
Ag 12.46063312282681 11.871573729735847 11.473410831674359
Ag 11.237211856017472 16.234309273188625 9.671936892277456
Ag 8.138381152737011 10.157338687514189 10.655569538982677
Ag 13.527695364837856 15.249521147673008 10.852149771051304
Ag 14.501398060859133 8.304105126212184 13.234464141609955
Ag 16.9455667914822 12.418559958303414 13.6563259511371
Ag 8.979105545115283 12.34598630703606 8.699496664171312
Ag 11.607664244141594 13.418450871652958 9.349682314565168
Ag 15.375295137200494 10.617072659479955 11.849238560860025
Ag 13.220568702082904 9.170761484601941 10.630855916014514
Ag 16.27576859693466 15.11100691173246 10.977086508451286
Ag 10.770226543082188 10.465098540418671 9.696749727755586
Ag 14.634360707806929 12.971018569615797 9.817496046401487
Ag 9.923608845902455 14.871119065603551 7.5927112645345085
Ag 13.138665025047757 11.09056825245125 8.500810104478496
Ag 17.202363658321534 12.438029062397474 10.80808654648663
Ag 15.747513786068371 8.065561485814833 10.696296008081204
Ag 15.776345352052576 10.422490145359367 9.1639297537213
