46
Energy = -99.22892915 eV
Ag 12.895715578751082 6.510408727498295 10.48138708268063
Ag 15.07215746367695 7.252000391482548 12.297407776764038
Ag 12.37011448284181 7.274462083492967 13.220458447856807
Ag 12.338177895537932 9.143501834647868 15.542692567085378
Ag 10.19594822969833 7.5297593083468 15.001375557728396
Ag 15.165055766897229 8.02104046762809 9.478354248156275
Ag 14.419510153781934 9.603798051543745 13.805113201390144
Ag 10.637952799079649 8.253987441412951 10.630975599927233
Ag 13.284565233388067 9.142018605634403 11.228667461414897
Ag 12.564889262137177 8.753793331936476 8.559076620381964
Ag 16.00851320524131 9.880049401730009 11.417245610997053
Ag 11.24482498099081 9.853482611124026 12.992969955388087
Ag 9.791890980632978 10.431910908510503 15.397372567244597
Ag 12.239433333639195 11.918607000991848 14.826908706765488
Ag 7.672010991314095 8.688808912428117 15.36601014387677
Ag 8.809052305068844 8.335308556005682 12.791821362399583
Ag 16.30686778105241 11.785774295034813 13.441893504205412
Ag 10.014429211962096 9.872530761998377 8.23328646459139
Ag 14.440747584041116 10.840642530688541 9.280947365620891
Ag 13.542601853535901 11.795683139845044 12.266343597496656
Ag 8.787185631359096 10.324068635534738 10.854015836849813
Ag 15.898877803330222 12.67661627828647 10.824301166088667
Ag 12.267572046352813 11.531981061363016 7.73587651560735
Ag 11.377234462260425 11.316285752830344 10.485808114654683
Ag 10.012291925448272 12.097374698157346 6.283236961163336
Ag 7.718988856608125 10.84560814283874 13.463638126530189
Ag 9.052218533120053 12.406894723714998 8.827748581023306
Ag 13.278995636534509 13.310110163648323 9.826770726382641
Ag 15.095386207184164 15.358360749501427 10.533472402623175
Ag 16.59974341326003 14.553108402643922 12.82422291719751
Ag 9.815103716078067 13.163470604373423 15.657451756059896
Ag 10.08048360453581 12.418837996432465 12.886119156499012
Ag 12.115215891310479 14.791563940347725 15.274915129860993
Ag 7.699517023301183 12.804042952613033 11.25948038310661
Ag 14.431173344988876 13.604032021514593 14.328772162358995
Ag 11.245489602171766 14.1318410668607 7.966798826509003
Ag 12.216539674744896 14.399879485117179 12.48596747649195
Ag 13.954992548918447 15.177474966857659 7.9344011773255145
Ag 10.121199888456323 14.234175398844904 10.606263851871786
Ag 14.330380216539668 16.14604355226827 13.116972159926991
Ag 7.632886820231139 13.572964792215085 13.917061287519221
Ag 12.349157613914329 15.950297459952314 10.057899758655859
Ag 9.733257394135022 15.388624748959028 13.870368880647227
Ag 11.854424750929802 17.16614500132282 13.828225047867178
Ag 7.836950701455316 15.53791722999837 11.80299763082692
Ag 10.252456693731325 16.877400014219504 11.589985106980286
