42
Energy = -90.18544698 eV
Ag 17.27851948009117 14.549919824436925 14.338949828844202
Ag 14.554848221758867 14.934774628890132 13.884320225006405
Ag 8.975235927731843 14.440507432767147 13.84792013302882
Ag 15.375933826976468 13.14720078506558 15.887251134471729
Ag 16.26725291586096 14.212233781260826 11.723042691018493
Ag 11.641027803243672 15.111774727799778 12.947966183077863
Ag 9.991715898845111 12.62376669226975 15.822885600603726
Ag 14.045255283731233 15.94267433872035 11.319296462125068
Ag 12.674870469008129 13.130190051025181 15.04181394940225
Ag 9.427223027550074 14.272502674900142 11.157846684038397
Ag 16.28830359149712 12.061366123423367 13.480809445178
Ag 7.866534080537161 12.125401604395947 12.380057605572537
Ag 11.744223519482361 15.193053218445694 10.001683740599681
Ag 13.447049704456354 13.199711307531617 11.996691051016828
Ag 14.287907978221144 10.761351070764318 14.972278023729467
Ag 7.239487235605182 12.625162913540187 15.099098595434167
Ag 10.786361873682221 12.428872244573972 13.060650953533393
Ag 11.585756143251581 10.436502338328545 15.108637333808158
Ag 13.786949616266723 16.21938233109071 8.433945224411708
Ag 14.614061043291835 13.81085690642605 9.469037074163394
Ag 15.402208491531294 9.519780574342061 12.741384066674966
Ag 12.50412655010445 13.769799401489927 7.652774784306118
Ag 8.843468634592679 10.447819634262459 14.536881206697075
Ag 11.391719657267304 12.319456504020144 10.24377342433205
Ag 15.393860710435954 11.518232723248259 10.819734005490448
Ag 9.773174602343705 14.071230791720634 8.283577996681952
Ag 13.187109323091505 8.332629649184357 14.084656770689616
Ag 8.536179670796491 12.034818223670209 9.650761468320662
Ag 13.519155669165725 11.300212536182524 8.653651771993964
Ag 10.3595148192537 8.199900094817268 13.785899046019626
Ag 12.712868422046494 10.477081256456273 12.235171753514285
Ag 14.161963734132287 9.042950668094887 10.24591636198501
Ag 7.1414535468999745 9.778575305685905 10.366891704603814
Ag 10.857417809123834 11.523597122767473 7.538174687311045
Ag 11.944385806399644 5.92223065282997 13.602620333984467
Ag 7.839620491625288 8.600667809919399 12.741410518060317
Ag 8.211261344038371 12.062281376956967 6.882602847978303
Ag 11.489956493729101 9.44355186916263 9.343273344492108
Ag 11.922105694781555 7.761056393450031 11.526481607182461
Ag 8.844763220901537 9.646941668252301 8.178365944721728
Ag 9.84691716733809 10.218416395472342 11.616159718090278
Ag 9.297095274634845 7.840409127680221 10.354499473127152
