48
Energy = -104.48254077 eV
Ag 15.252153455885498 9.92192787989891 11.316868328393754
Ag 12.830371967959467 10.869975883769028 9.98207043062377
Ag 12.733161464742214 10.02495945944922 15.649437435918776
Ag 6.166703244576359 12.42485787016162 10.045414432885401
Ag 14.255742730815427 12.185815503862456 14.54793863767148
Ag 15.191683117371273 9.51573889327687 14.15376613845831
Ag 11.504676677877042 12.856082573878162 11.65472212870131
Ag 11.245073944835537 8.179315960568816 14.005115078129649
Ag 10.095684690409557 14.606392366218753 13.471121591086206
Ag 16.66118910975291 12.060250098335095 10.09857283366492
Ag 7.435144184295391 9.858878195679422 14.126766842922043
Ag 8.849802717396251 7.966530026525698 12.47198776721174
Ag 8.551964664964244 12.925623817012887 11.634246767186834
Ag 11.44568288836753 13.039524372713469 8.616987999149426
Ag 15.822912685108465 14.797767601702 10.014184175387824
Ag 7.486161664584784 10.510106543947153 8.4367589050508
Ag 11.295084473812114 8.892702302831163 8.231591858445942
Ag 8.586883758150814 13.172816602028158 8.722802781968277
Ag 12.79914123376435 10.508737503551362 12.814587356788088
Ag 14.305454801873639 12.899654234955785 8.676255977833053
Ag 9.94932166197217 11.200766405097614 7.103466123848616
Ag 9.950938310055502 10.945265169721196 9.961259889237418
Ag 8.54701782941088 12.478549735965045 14.501051696968588
Ag 6.144113347252324 12.100435372218756 12.95578820116495
Ag 13.65479254811807 8.118372935842594 9.653874087167688
Ag 14.41892496013521 12.911087810215234 11.65915859871983
Ag 16.637376124973112 11.72237029746855 13.002161953648814
Ag 12.906371764569405 14.525841197103317 13.703393199866325
Ag 7.398349007743571 10.193710061807735 11.283355739801316
Ag 14.48589900021409 16.140415478426362 12.032304588855357
Ag 7.248275700686366 14.71192296536478 13.371540261390972
Ag 12.93305874576227 14.966828663382433 10.023926611499268
Ag 15.784780571696638 14.35823209623389 13.713508307807222
Ag 11.40076708370128 12.330157456591673 14.659888062173682
Ag 7.256299854340018 15.046621200264877 10.39675495092552
Ag 12.808248128772624 11.057952083491335 7.101942334245366
Ag 9.87646287366107 10.168399029053546 15.638044466854687
Ag 11.7062401496066 16.46743423258159 12.047692060940264
Ag 13.639294083356825 7.781726272351887 12.472471962266699
Ag 13.666066379104237 7.423487786430703 15.222494589233138
Ag 8.878824907928205 8.314311980481762 9.619262352851578
Ag 15.222876788634963 10.197266942502607 8.45965468774402
Ag 10.11094001847335 14.987172076133366 10.249420289735376
Ag 8.742233486554342 7.643002912481128 15.228723750582011
Ag 9.930712900109317 10.603604631656845 12.810607233336084
Ag 11.283911858157628 8.633814595030374 11.132618997415905
Ag 13.70909451574819 8.418009275364314 6.898099867194962
Ag 8.854726188343783 8.64235266861263 6.853217886323195
