27
Energy = -54.78395359 eV
Ag 12.367632971973183 7.272933984194355 11.794503399780824
Ag 9.782950711133898 7.872293312302864 12.51585117687754
Ag 13.179438676889184 9.155480132590233 13.610533625317272
Ag 12.654305873482944 11.079970716893653 15.631048803250748
Ag 10.314283544267846 10.17439458160382 13.958576255758349
Ag 10.423099264492217 8.005592385872196 9.613643304729703
Ag 13.392731177892216 8.488446960516058 9.545547726726394
Ag 15.016517105232746 11.356492317632146 13.864385958564577
Ag 11.42164894397533 9.900436687391071 11.230938129213197
Ag 8.323147312566851 9.938333309403237 11.443557621091271
Ag 14.197875720061116 10.678824582326266 11.047266235938068
Ag 12.44718010828417 11.790251978970202 12.962421706056132
Ag 10.643786716539077 12.917562969513318 14.718407885819897
Ag 13.439177521548496 13.708109458903575 14.63408742463529
Ag 9.657958375415136 11.050404692612688 9.272808281686544
Ag 7.540411620883927 12.577838979943559 10.55609219644614
Ag 14.42048128414424 13.395606548243633 11.901326821132935
Ag 6.94228384132819 10.516784433652466 8.82288610654964
Ag 9.772640236506726 12.240658606964356 12.108050474030994
Ag 8.754031402204111 8.792641405957578 7.6313015622636495
Ag 12.194299158845006 10.578607842145733 8.284280153033322
Ag 12.22200189678598 12.604866703123772 10.22240046491183
Ag 11.616384704678435 14.410770915789731 12.321262315641135
Ag 8.21588766704889 12.917118862566054 7.798508881796506
Ag 9.848373400052008 14.175920295298049 10.07812594298743
Ag 9.88877620434236 11.011311860147847 6.447598339867834
Ag 11.068064135776783 13.133087665046787 7.768346408490996
