36
Energy = -76.21496086 eV
Ag 11.882056960879614 9.730727448426693 15.440644613948821
Ag 11.910435128286915 12.442095773131026 16.15263152199961
Ag 13.879183370528382 8.583818923690577 13.601077468325968
Ag 11.896471957000404 15.175846882372715 16.62554462992463
Ag 13.742176796100763 11.309137926433051 14.213567111268143
Ag 11.263964715930808 9.227439937313036 12.829162998252478
Ag 10.59525776558246 11.744916656069575 13.797594326640118
Ag 13.871077786309025 14.031974042382407 14.949603638470489
Ag 15.945798773382805 10.238075320053397 12.443680981717486
Ag 9.787423933014555 14.08693154706735 15.103854074573933
Ag 13.877031430201264 5.957113585945529 12.82845063698471
Ag 8.700732603976261 10.225276572551426 12.292416484312104
Ag 7.937027370872915 12.676574887998541 13.51569849854147
Ag 15.38728147675433 12.981637291267292 12.630424456534254
Ag 13.391658916737388 10.662779963497556 11.490436106472442
Ag 15.494121815663638 7.727165385094016 11.357593267475698
Ag 11.758003262444904 15.703106620245427 13.924515223293438
Ag 12.753736849122863 7.722283286604154 10.986676859338019
Ag 14.454227333340922 15.648634390934689 12.802489282179545
Ag 9.904675444386234 7.990505531402146 10.802342463570293
Ag 12.567339643938906 13.351004212013757 12.387497622578222
Ag 9.844307310538042 14.205479702745002 12.198207381471637
Ag 10.769667990985997 11.645066684042966 10.918078830193487
Ag 12.2464556196502 15.99570261827202 11.226902228736769
Ag 7.626049389451452 12.352121576169813 10.793953730510388
Ag 14.443994449476437 9.342869084931804 9.29039977301767
Ag 14.185681914546423 14.187737492558313 10.24588938390027
Ag 15.653002975085824 11.776346410714693 10.040193868738093
Ag 11.575842466293862 9.530278825885642 9.18797405272829
Ag 9.64258842833341 16.188036917247405 10.32451089502513
Ag 11.429898666640705 14.095037174974822 9.457693199319989
Ag 8.684305408158098 10.048127746168431 9.467598392643334
Ag 13.074762988138453 11.884720876128817 8.886689964068465
Ag 8.73164930634502 14.082134705737683 8.854339559872603
Ag 10.300250598806564 11.873988967785152 8.04870232908821
Ag 7.326086863404002 11.920925526553305 8.027794803521466
