20
Energy = -40.50658271 eV
Ag 12.51620364375224 12.51620364375224 12.51620364375224
Ag 10.569174797221304 12.619956911748467 10.569174797221304
Ag 10.569174797221304 10.569174797221304 12.619956911748467
Ag 12.619956911748467 10.569174797221304 10.569174797221304
Ag 10.67040062674078 8.517203373259223 10.67040062674078
Ag 8.517203373259223 10.67040062674078 10.67040062674078
Ag 10.67040062674078 10.67040062674078 8.517203373259223
Ag 8.6184292027787 12.619956911748467 8.6184292027787
Ag 8.6184292027787 8.6184292027787 12.619956911748467
Ag 12.619956911748467 8.6184292027787 8.6184292027787
Ag 8.517203373259223 8.517203373259223 8.517203373259223
Ag 8.6184292027787 10.569174797221304 6.567647088251534
Ag 6.567647088251534 10.569174797221304 8.6184292027787
Ag 10.569174797221304 8.6184292027787 6.567647088251534
Ag 6.567647088251534 8.6184292027787 10.569174797221304
Ag 10.569174797221304 6.567647088251534 8.6184292027787
Ag 8.6184292027787 6.567647088251534 10.569174797221304
Ag 6.671400356247759 12.51620364375224 6.671400356247759
Ag 12.51620364375224 6.671400356247759 6.671400356247759
Ag 6.671400356247759 6.671400356247759 12.51620364375224
