13
Energy = -8.2797059 eV
Cs 1.4696013242297339 13.626304026634843 14.361182610315893
Cs 16.82876700813914 16.781723200446844 13.63906089346441
Cs 14.767498038072059 15.458010358372054 7.919083127959305
Cs 16.691697714463253 11.935517283125154 11.315609040924786
Cs -1.2154102105629336 14.499819759126058 18.751384115445735
Cs 0.3936478744402761 15.533063894305176 9.498170056282284
Cs 14.099211789171367 13.981511655171044 2.4561435514838044
Cs 6.488800268722316 14.858411513234692 13.132040565631785
Cs 14.716824790400903 12.31001302617425 15.958391462614042
Cs 11.807626590902439 17.326114731355847 13.19641263995679
Cs 13.910891869308195 17.40634230587509 18.002883897197094
Cs 11.49327669783621 12.535681919986319 11.80306682603642
Cs 9.997628091083758 13.940891796609533 17.076363735155567
