18
Energy = -11.80656164 eV
Cs 19.081967326540813 2.2564995088036857 15.069010693869865
Cs 17.466860296383445 18.476597043721323 19.001975565088202
Cs 16.497823310244666 12.409608546423689 15.165055133078239
Cs 17.391352707194095 1.4298507576416526 3.53649175127336
Cs 12.907741291492261 15.958359700933093 16.585296249172227
Cs 7.593479634341405 -0.16269735550691813 -0.14752292167240064
Cs 2.1822533973529175 18.702517933611098 2.895872108729474
Cs 16.304228903583056 4.113281571402118 18.979560915335096
Cs 15.245054809990876 13.088071080262834 0.567473167008827
Cs 13.954027780361207 0.8404063147611758 15.195663287210653
Cs 14.574997501689005 16.92222621508975 11.59482147410273
Cs 18.431912716272972 14.188540852680699 9.756035295072436
Cs 17.07997034638743 15.947766556598255 4.711881230924621
Cs 0.34234507567899536 14.441556889880694 0.38694734893062566
Cs 2.9931823304279845 18.71943585474262 17.432577126308963
Cs 18.961378654981623 16.699476569506867 14.520430223146963
Cs 1.5223345648328577 3.295252262350082 0.27760957937733216
Cs 12.805767601869785 19.132843685114427 1.2571511318541981
