16
Energy = -9.71401862 eV
Cs 9.830001 16.03008945867193 10.948249805685405
Cs 5.446884793348319 14.213117206651681 8.71221438461973
Cs 3.629912541328067 9.830001 10.948249805685405
Cs 5.446884793348319 5.446884793348319 8.71221438461973
Cs 9.830001 3.629912541328067 10.948249805685405
Cs 14.213117206651681 5.446884793348319 8.71221438461973
Cs 13.678042058753926 9.830001 5.970580544972505
Cs 9.830001 5.981959941246071 5.970580544972505
Cs 5.981959941246071 9.830001 5.970580544972505
Cs 16.03008945867193 9.830001 10.948249805685405
Cs 9.830001 13.678042058753926 5.970580544972505
Cs 14.213117206651681 14.213117206651681 8.71221438461973
Cs 12.551633899638244 12.551633899638244 13.688959264722355
Cs 12.551633899638244 7.108368100361754 13.688959264722355
Cs 7.108368100361754 7.108368100361754 13.688959264722355
Cs 7.108368100361754 12.551633899638244 13.688959264722355
