18
Energy = -11.88923419 eV
Cs 18.04811929542526 10.721518345278337 4.218672291705781
Cs 2.1412484519769035 19.02981497479768 0.8620681486758925
Cs 0.11385711030758544 1.7631821111199308 7.669807417717038
Cs 1.1455255978231482 6.825502697174134 4.90256367567929
Cs 15.1474245551312 14.505778313630511 2.2558625735495776
Cs 19.02772543913873 3.131069566146505 2.395523493633911
Cs 1.666485064970635 5.784189855151464 15.469941713284323
Cs 19.41729084566427 1.6787298982823564 17.64265268507238
Cs 16.47574445053414 15.43333150080262 17.15936083409584
Cs 16.52953687252589 19.049267574799742 0.6064375946735491
Cs 19.436579576063895 17.266382720790286 4.684336437046346
Cs 1.2305740611482938 16.91798558221194 16.28018581751992
Cs 4.500237359717227 1.0756397174363832 16.833500557206133
Cs 0.11496447536543206 13.764363016478338 0.26886341936861685
Cs 19.565872046700377 8.224801232297638 19.653213669958788
Cs 1.1371676966875994 0.905149389701561 12.716892296198708
Cs 3.531402547691841 4.791638013136569 0.10778454602449752
Cs 4.029810850454263 2.2501321025331014 4.43823252226501
