18
Energy = -12.10468025 eV
Cs 13.865731469432513 11.209980229525872 16.4533282234312
Cs 11.788074065599831 14.64228238359101 0.4111561526323304
Cs 19.121905317836095 10.513666783075568 16.069147868348917
Cs 16.683468122285507 13.145388331583332 1.4086211309854206
Cs 16.48067316757402 13.435566820134545 12.610668527908743
Cs 12.470521119505403 16.312001121232395 14.544691042788061
Cs 9.39749247031492 18.949688709709854 18.119279144454858
Cs 1.942707435329639 15.131838157536542 14.144678658237432
Cs 2.3595033147302784 13.574153896619007 0.1166400919614436
Cs 17.322402225247266 16.599959108281304 17.011128431763236
Cs 16.612324418077286 19.11775943362827 12.463252813345566
Cs 4.022713396664463 18.527284086691065 18.268987103704156
Cs 0.2685678580464986 17.75168119551691 2.3813027650665255
Cs 14.403056980198677 18.977468471722773 1.257600715932207
Cs 13.695944710223792 1.9505391682608646 16.04776391337084
Cs 18.691169280199745 2.334925473695934 18.555493006735002
Cs 1.8007827717195777 1.1455505249350726 14.011105471397101
Cs 17.429580676539114 5.414251147857238 14.427728846916963
