18
Energy = -11.46381117 eV
Cs 1.5253271891374576 18.865509385425916 1.2534906533573162
Cs 5.554840824394588 1.1491313276688397 6.836503431778877
Cs 4.423666658226306 3.188105393540235 2.2848057811613076
Cs 3.913879637419466 16.329032136257243 14.368852491051525
Cs 2.034004116736939 5.336309741787227 6.684270361541412
Cs 0.38124264934307156 -0.020330606071213467 15.213798557392137
Cs 19.778081788839227 15.839682037636864 17.77774421406653
Cs 17.48257926977844 6.911844767741767 5.18405577200288
Cs 19.519067695906116 2.301866055949663 3.669816530083991
Cs 2.495952167613033 11.493602374770482 16.40295260269857
Cs 1.0199522330651447 8.12441925071138 1.7476014745803896
Cs 16.85625222950547 5.82825421243686 -0.006891420723630163
Cs 4.541289564212212 15.080453312405783 19.53946451732872
Cs 4.945544364055057 -0.021853818365272032 17.86166837279098
Cs 1.1426608948554295 3.81021799186298 18.75916554241616
Cs 6.732799509776261 18.530024321603197 2.6649328673501413
Cs 14.336037261894605 2.664939992484342 3.165542012172839
Cs 17.250587044077722 0.2608165654767675 19.38229647063165
