17
Energy = -11.10249862 eV
Cs 17.79220356242343 15.642682992667647 10.2519636515789
Cs 13.273179430304058 18.436869567434037 10.475809174724814
Cs 17.946102870134457 1.499870183946405 12.294921475691593
Cs -0.7065637963139999 12.141643265513096 14.563180330653195
Cs 13.352535205275723 13.630820672536505 12.279693929170715
Cs 2.3678482881235867 16.881443392995067 14.479938850491976
Cs 10.22969402755919 16.72984075153832 15.950931213180198
Cs 13.489305039848624 2.153530864067134 14.838594102748749
Cs 12.031888986363306 11.757680779017747 16.92772889824822
Cs 15.79334460656318 16.186610298181396 16.195721284376376
Cs 2.1501114399187573 13.489034484445188 -0.01930057418654427
Cs 13.614457291850323 0.3973849298490796 0.8369132202571079
Cs 18.488354975015156 1.4554039329664472 17.667770418118742
Cs 16.43717884486948 11.395870864021036 0.7341944031592381
Cs 4.322001931212471 18.012468843414872 0.3973097830956229
Cs 12.534627026527849 14.506546704134301 2.295826028856938
Cs 17.671003303017194 16.46957050596437 2.843890919045799
