19
Energy = -12.91603905 eV
Cs 12.671230511549787 18.169121684313055 12.018174074178583
Cs 14.749099736753976 2.7274015402794585 0.5434607219521502
Cs 16.362277813481434 1.9004785961430148 14.602404041523341
Cs 7.896349618015982 16.5054774280195 15.811470290655873
Cs 17.878528355231918 16.27342778161972 12.554934181264601
Cs 13.243508026674629 13.482414621234222 13.919902899504683
Cs 12.80588208306211 17.608236380356363 17.197301292451172
Cs 0.6854633583296079 3.6618663306671064 18.298635040565333
Cs 15.300092738751793 15.339794570629891 8.149183514875423
Cs 18.693761333933452 0.6827448563720031 3.2812232930447993
Cs 17.863557094534055 16.802323652707646 17.642900098031532
Cs 17.982244473571278 11.31577549568926 14.63066332359149
Cs 13.942903037539802 17.16164789892804 3.195122977692735
Cs 2.733619661811633 0.25449427861122764 14.837787088417285
Cs 3.274303852041695 14.170805403832567 14.741226322569021
Cs 15.0088575166838 12.807904310315111 -0.1451694897487717
Cs 3.432185136490576 17.184328007915955 0.537061447698423
Cs 18.558521899747603 14.57443048395913 3.67471198597332
Cs 1.6228474096860916 11.850170701983236 -0.014630101658109325
