16
Energy = -10.2252994 eV
Cs 14.82201332161239 0.8433946877044193 4.265849420800323
Cs 0.19307980112898465 -0.4436138192162738 5.386827242128289
Cs 13.438535656559697 19.346322823256827 19.21631874107249
Cs 16.144715362761602 2.3560083982872695 15.132751098040211
Cs 18.114971115666492 14.541722370221171 11.692260119099632
Cs 17.00854915503469 16.179819983856383 2.47548465099139
Cs 18.7976125162106 19.63706962248446 11.228514721340849
Cs 13.88053990815126 17.291179266850808 13.576695825641949
Cs 17.569511285652144 17.42432732230027 16.77272382701181
Cs 15.078762417735902 11.77835112405405 14.558270564386453
Cs 2.2693516812416195 16.213544736394923 14.531328726641732
Cs 13.791548759594548 13.79135305485792 19.110520036673794
Cs 18.816065522983006 12.7823807678096 18.101249084906772
Cs 18.37663452869278 1.9483637156629625 0.5485778632577605
Cs 1.4066375162580675 1.6793401091311237 15.657986561326375
Cs 1.885248837482988 17.45148434556842 0.3291608617399762
