10
Energy = -6.33610566 eV
Cs 16.45691800518723 8.568278850640226 10.380437153300079
Cs 14.233977853339557 11.548992571750547 7.060963016431668
Cs 11.910646883200418 7.000061977488231 7.3917923686643165
Cs 11.154544170193217 10.893929494957002 11.294794899974772
Cs 8.595165352280501 6.357880256132447 11.365883062242606
Cs 5.805336839396437 10.867916171365335 11.181012517170418
Cs 8.391473820133747 11.265614583441854 6.735544537859611
Cs 6.752017756850516 6.458857739555305 6.447913504517137
Cs 2.686394098272639 10.08397561706289 6.9599075737972855
Cs 3.3316302211457285 6.2725977376061595 10.499856366041982
