17
Energy = -11.08606232 eV
Cs 9.119044739179706 16.19360239398642 16.15392849587149
Cs 3.9043047880884623 13.948662483704048 13.669938952824722
Cs 4.503419754696018 18.9134760170468 14.202855733435849
Cs 4.705751859046568 13.567725832159379 18.64981528482364
Cs 2.3380546587896918 16.040635276253333 2.749382044807388
Cs 2.8632377007543997 1.389737597893429 2.786670340724594
Cs 18.11720931459151 19.302241361552664 3.9929051472459647
Cs 0.5289601088388937 18.08917765552449 18.24825223105685
Cs 5.927364632876302 18.663844622893865 19.355595327837612
Cs 2.7527192058568004 2.7423097573408524 17.273404059137622
Cs -0.2685365513967697 13.128360532826 16.976943659005446
Cs 16.875873751857768 15.063822899278058 1.077842470366529
Cs 18.374369294321617 3.2977906463059496 0.288798754552944
Cs -0.4048840867002325 16.94153451408275 12.831460122860937
Cs 14.60689108671803 19.575781900847865 -0.156295413807324
Cs 15.08130661816327 16.257762198036044 15.731795915804724
Cs 17.309521513964178 1.230908787310238 15.342203176053244
