19
Energy = -12.48384179 eV
Cs 17.55415349023756 14.371617671913322 13.034459765301438
Cs 17.978123053337008 3.675450580580587 20.31780453417105
Cs 1.7297046905514697 1.97106253995477 1.3072821848866256
Cs 18.762601301094303 18.83968318247786 20.427512040812996
Cs 15.204570422736927 18.985125614417967 12.33785306646873
Cs 16.367908119685787 0.7927104097662785 16.493184808745017
Cs 16.383404783191125 17.119217404424568 4.707088626330273
Cs 1.0738785695946105 1.5850436150428677 17.28115906226747
Cs 17.956792468759858 1.2977941296319753 3.9470918637604218
Cs 2.606554425549253 17.853676490778824 20.0202843051631
Cs 20.28713873203232 14.025130937196929 2.214384299284208
Cs 15.195569532540842 14.260823684489118 0.5475689702220978
Cs 14.660058845865843 16.62454484536418 17.009370629896715
Cs 19.775844859299703 1.5496674341706913 12.445972702507122
Cs 20.653022992551207 17.946068955113304 15.167978929412861
Cs 19.369537948413345 13.72979295128478 18.077672630065752
Cs 19.346050311026584 18.21119234178848 9.151158509320144
Cs 0.9483123679866156 18.63313493207896 4.156353920510523
Cs 14.145941752659681 19.872787034272843 0.5398583574474496
