18
Energy = -11.7453496 eV
Cs 8.822943579703619 14.117709204816522 2.7774886449633414
Cs 6.92008963091583 14.356605049488353 17.853892666625065
Cs 1.5126306107802214 5.917554058656235 3.7177962429532934
Cs 18.807733426890607 16.584711684359956 14.244716534290314
Cs 0.4384592996630274 6.931788648547443 18.505871972072843
Cs 19.381240028438185 1.6761606644135094 16.18244449814094
Cs 18.82855862780154 16.908190870450582 19.381419438738586
Cs 3.8932004724466296 1.5122060133917663 4.972240351742408
Cs 6.230278606852912 18.581061213368557 1.2776935838984096
Cs 0.41179260543029866 17.316606727117353 4.967503746151205
Cs 1.9435417093498564 18.81804862055671 10.228671074814041
Cs 3.44578695473867 17.97851004916479 16.589811290125045
Cs 5.529085483620052 16.468612020075177 6.225833078004049
Cs 1.5063736827436018 12.68576285099973 17.018060297172052
Cs 3.1906445504571432 14.368721493137263 1.675925112812193
Cs 3.4941173585471588 2.7678383996426117 19.37145734091263
Cs 18.98788919277815 2.117807180763793 7.026287332719837
Cs 18.839915436517675 1.660380650129745 1.7677392902323725
