17
Energy = -11.09034584 eV
Cs 14.863796932386094 2.435755995946966 1.9177321933928886
Cs 11.64932158310069 17.33754730944687 2.9639150647034667
Cs 17.051994064698384 16.754643972603027 4.356330422093336
Cs 0.559626324277052 0.25848867583172375 -0.1228632388060414
Cs 16.637133126444397 3.806555604542549 16.228093560085206
Cs 9.919007942424882 14.607162498336942 17.582983217840116
Cs 14.376638551969206 12.824421035296918 1.7908418037339515
Cs 14.601148869751166 17.316822187276333 17.98764267165527
Cs 1.7820497466100027 2.1560656888438072 13.648176783639629
Cs 0.22778615024661836 14.19944584844149 18.87688076272627
Cs 17.716879798808073 17.173769578186707 14.289329376079246
Cs 12.409913450728821 15.817998556324351 13.190304475037642
Cs 4.316448780383511 16.515196349238515 15.744334216572694
Cs 15.499532524285943 12.14833979439492 15.725439818588098
Cs 1.917434493490203 16.895222308289597 10.390692761719952
Cs 1.2723385118198018 12.572363645175614 13.708004778817894
Cs 16.324726049713878 14.48837590064661 9.762560382855321
