15
Energy = -9.29804584 eV
Cs 15.436640551037454 12.7991159383248 10.212195661765309
Cs 16.999982813842458 18.09520678594727 11.457999744633248
Cs 11.053751880353884 12.200246544355542 12.843775797866362
Cs 1.1661184425746478 16.547463140976653 14.391725134461277
Cs 12.199229455686979 18.462065506904896 13.203183065086755
Cs 15.567969676352961 14.952750822060922 14.994175329275878
Cs 15.349017331055755 8.951175169457164 13.830461461409133
Cs -0.275506445032397 11.82419153443476 13.060456851916582
Cs 9.396877699689906 15.604576905784104 16.603582532804687
Cs 12.807862009595715 11.480859477621868 17.746030936811117
Cs 19.103194259502615 17.493082276407513 18.74753865012822
Cs 16.163439871363185 0.6852667508528136 16.11437382533128
Cs 11.046568881355773 0.5084641541004585 17.723442016537888
Cs 17.9767612349029 11.646033614597634 17.911636587526854
Cs 14.073249105188268 16.814658145643822 19.46464747199162
