19
Energy = -12.44141022 eV
Cs 0.1527384180249689 16.328406150007712 13.466286034116639
Cs 13.154291896854467 1.6384244119197393 17.142803015561686
Cs 1.8880039927037482 -0.011991929565386802 1.1173362065196195
Cs 0.5404676443288684 15.224541926788817 18.797296866797904
Cs 15.385128716253815 14.38385867982069 11.138101897909092
Cs 11.84964714436693 13.4891936950825 -0.02925301402855627
Cs 16.73499491659666 11.272218593907867 19.49456479723127
Cs 18.647407337936464 11.52524283956548 14.683816842149238
Cs 15.232825530952683 19.220578663555745 12.64382936246446
Cs 18.52497363842922 0.9475701844509817 16.630698477698733
Cs 10.72988259404649 16.775644732378723 15.390788011767881
Cs 16.331948322018814 0.4004933426661956 1.6379622799121953
Cs 15.622133202163639 16.261476461506085 17.173472665979116
Cs 2.0212305510470165 1.2299448707465988 12.645911204979694
Cs 11.391853098970213 18.527652694643763 1.2065325449015731
Cs 13.454213477825418 11.699349236302167 15.095286648674172
Cs 4.808562405943611 17.957327352499437 16.62725391143579
Cs 15.652570044584058 15.261795327086759 3.271844183076799
Cs 3.4174914454130816 3.408637145096719 17.17231219990031
