13
Energy = -7.89365441 eV
Cs 9.306040162014675 9.307932347427469 9.307304005474823
Cs 9.295245607532424 11.809689358503878 13.952747046266714
Cs 9.575960720158603 6.68766067087289 13.967696983165913
Cs 9.038007864195048 11.938015855686428 4.646692097190917
Cs 9.319302534422738 6.804172120898257 4.65995946729279
Cs 11.824700111829964 13.96026834267797 9.429770820812612
Cs 11.893548569237742 4.634772396882422 9.536881643666304
Cs 6.721599820216672 13.981446113810867 9.072004078957065
Cs 6.789854952563781 4.652057600305436 9.18336787038032
Cs 13.984618083164877 9.123193547291917 11.85579176144709
Cs 13.938242164510108 9.401711269988493 6.792309994398293
Cs 4.670967690994108 9.189537477822775 11.822409785765348
Cs 4.627627764692753 9.49525894336443 6.758779399648595
