12
Energy = -7.74778496 eV
Cs 12.246275590893363 1.6102310675231037 15.105235137029949
Cs 16.152622892957094 4.667840900619746 16.94215478271347
Cs 14.698790526323293 17.588077382032534 0.808074771539507
Cs 13.290019410012505 14.449133366214452 15.095120435594213
Cs 14.487361759415815 15.757482099864596 8.357388431108733
Cs 16.77968024717995 -0.25787245370774375 13.42966026137362
Cs 1.3073727706027127 0.6491040674271419 17.892878206669195
Cs 15.745472763378777 9.499741834605935 15.631614513075446
Cs -0.8278419496937173 13.031882559141714 11.71044517765904
Cs -0.2792343697268843 15.52512482073305 4.543414186145409
Cs 0.1717382098858269 14.058285064946146 16.864811294790318
Cs 14.56192318516577 12.444486168204401 1.8844242110330518
