15
Energy = -9.42020251 eV
Cs 0.24353258812198697 1.3178074586957287 18.910626156679754
Cs 2.226488570103502 17.33440386530402 19.198120994597776
Cs 18.609294121527054 9.898721946227985 18.116250955430445
Cs 17.6590721269605 4.834541952251687 17.32378483957146
Cs 19.198421991265278 18.889263162752002 1.942405491566734
Cs 19.580953268063556 13.934580975359225 0.48682867731396123
Cs 0.660864951077675 18.985789031617845 14.349480167825982
Cs 17.991723395382753 17.841149776361085 17.751928033666374
Cs 16.406550745007113 0.7839803626544178 14.22378471895689
Cs 15.248155944697917 0.9163599655394377 19.89370911597463
Cs -0.012529052350505067 13.933922916162635 15.543573171894764
Cs 14.560239877071682 16.830821947046605 0.5012519619575735
Cs 16.85692968513389 16.62667351264434 12.79342755719105
Cs 12.904288816970068 18.223231259235813 16.40050049763111
Cs 14.991124024784208 13.422995890240648 16.808835638017396
