18
Energy = -11.62130146 eV
Cs 12.91040250906726 2.902384917526895 14.419454412980546
Cs 18.03699327515652 1.364458558545308 13.342916187274504
Cs 18.275016188556435 15.397233083281204 12.088759881352203
Cs 13.857830002252072 18.125298385790963 12.504152389160643
Cs 16.496225308423146 3.153257195553352 18.270483514615837
Cs 2.338600618449469 18.19077562518703 14.441999361027786
Cs 17.44874410481194 17.30046747226232 17.03914874196862
Cs 12.645964338797219 19.08311926907508 18.12361670366132
Cs 1.6717248198819314 0.2855727150055413 18.98954592135347
Cs 2.17033850914663 13.889376030792517 17.169732770231278
Cs 16.499239797496234 19.124254435090297 2.311522262968007
Cs 0.0883038743626859 4.419632138640721 2.1551247544379653
Cs 12.818454644153697 14.385222130555748 15.777591329796492
Cs 0.40451690905291565 15.108581677528932 2.0591743432709895
Cs 17.50998281773295 11.846620670104802 15.64300744769511
Cs 18.94179336127857 9.755745020838246 0.4022185731727187
Cs 1.3923353848199462 19.629078591239306 4.494626440225835
Cs 15.372837918356874 13.86622263124669 0.668342114449536
