16
Energy = -10.26957491 eV
Cs 4.059894752126767 0.8840096950652134 15.619429135265701
Cs 6.67932483640588 17.66217606924326 18.660700916589896
Cs 19.413010587114172 2.4108058456085812 14.247554299284221
Cs 0.7683458531721233 1.6238779511733767 -0.6077867797771221
Cs 2.138834683766222 17.270848605105723 1.8681507035978155
Cs 19.77988341015691 17.64029733868618 17.122308535975876
Cs 15.635413302001142 0.9992454101853646 17.64749543085909
Cs 14.359384677628961 1.9008332771764036 12.678064942250778
Cs 3.0310246217203276 13.74353299764995 18.27451624381442
Cs 17.151069972531793 18.411932589652004 1.7784389091511552
Cs 15.773465078447916 17.135558871544742 13.62008858439278
Cs 11.702541573391729 19.415575846968363 0.2664551789306332
Cs 18.48421640573064 12.84055377483136 16.14424603050223
Cs 10.984759153379553 18.551374307751864 15.152243665607184
Cs 18.578881202473276 13.407572412306063 1.2460215143521318
Cs 14.49553337651407 15.387761104855825 18.42108254823227
