12
Energy = -7.27721424 eV
Cs 15.197416304479761 14.789595279911877 14.020190371093742
Cs 0.002206771866459249 9.58125010454815 16.539328113319968
Cs 11.46196351974229 0.4872324587407627 13.834666728279723
Cs 16.789383691513574 1.0498902767891305 13.347104799329568
Cs 15.995620575053772 13.338560788508394 0.15502794895289507
Cs 1.0684405221934488 16.281976352391208 15.984811200406451
Cs 10.918295649212334 15.576807673864622 17.32873480291433
Cs 3.0303645115867157 12.932195191199323 0.8534221069154753
Cs 1.3467504105785646 4.873858002999162 14.818470037174688
Cs 15.054869260708248 -0.1596483985857766 18.261926601339777
Cs 0.8142610145734832 17.466353938812514 2.2656714782902703
Cs -0.6958725787511918 3.9317229996624548 0.5448102636090798
