16
Energy = -9.92199892 eV
Cs 9.595488879222627 9.595389703534677 9.906820720118944
Cs 6.971002187098215 11.343054992779152 14.351190757667656
Cs 9.392223801167459 6.449558245410569 14.350951452803425
Cs 12.421395518793256 10.99350433131712 14.350390150581372
Cs 9.677353519043097 14.60080032570671 11.387194164494685
Cs 5.450607696234633 12.52361413565087 9.242079645261915
Cs 5.21958998735829 7.164205698977699 11.388412407465728
Cs 9.132275836738858 4.5416251088522674 9.241453693117878
Cs 13.889223542623194 7.022129535649184 11.386895894585749
Cs 14.204562999389262 11.720805118493553 9.240716997515957
Cs 9.279547403999112 12.59037948336727 5.508524958581945
Cs 7.160564224877478 7.823486747619751 5.509196981803689
Cs 12.348829326985737 8.372875703925057 5.508225890328441
Cs 12.373607294535633 16.070369619402538 7.385307607674919
Cs 13.813789553032423 3.9526171769922898 7.385126923352441
Cs 2.59858582890072 8.764231681892321 7.386159364216018
