12
Energy = -7.48398966 eV
Cs 16.673460303091595 16.27792449211697 9.656998440887898
Cs 2.32006638450737 14.61752012822183 12.042325074306007
Cs 17.455191962468657 12.364305580334626 13.571228271592133
Cs 14.058994027591082 1.2208194708765776 16.433696007727153
Cs 18.19293541424801 18.01711068226435 14.503876840005187
Cs 13.525096145466575 15.737258240411022 14.215019616694246
Cs 15.608328678963254 13.30958682211593 18.600495827401403
Cs 11.734686179132462 16.67729819402924 19.17151087899335
Cs 1.272601552691187 14.336270789104994 17.34756780525164
Cs 12.987180204238614 1.375497562944447 2.3607814380220553
Cs 17.499734764547153 18.031045786644132 0.3775537626185825
Cs 15.08900602265517 16.16509422024141 4.619019350654808
