11
Energy = -6.89411218 eV
Cs -0.007518364498190584 1.7763157718193692 16.38668617162498
Cs 0.9121929572267002 15.563906693270557 0.9545675337835623
Cs 16.187382630660988 0.7798568285148489 3.515429187668442
Cs 0.5173777705580056 15.225146684094735 13.632861113489197
Cs 16.49889689795456 15.7116241049356 7.927181803322998
Cs 15.465507570618795 0.775566794386957 11.922709475115433
Cs 16.34978383380184 11.946509999504348 16.86937167342851
Cs 14.060679094607284 17.235299710578403 16.882087642237767
Cs 13.7656688681886 13.800644054946838 12.4648024093401
Cs 14.424552396728576 14.003385162209058 3.380979651878512
Cs 11.317032403967076 13.120640449880717 17.3786105902479
