11
Energy = -6.75972148 eV
Cs 1.2975801041863924 1.044387510627861 17.91659204039503
Cs 1.3359588659632087 15.188667120177296 13.297433515281726
Cs 0.7984000156415223 14.512258330388516 -0.002093977209108865
Cs 17.711051144414213 17.671302086401678 4.207394662805809
Cs 16.274544849781115 15.930007811353136 8.917229939259308
Cs 17.014048547363323 0.9252032741022768 13.303522080698468
Cs 14.645012795753676 13.845002577400521 2.6179371911145863
Cs 15.592120052648117 13.214223902398881 15.029659794131662
Cs 14.802551676717131 18.020461541093574 17.77280352471369
Cs 12.545350584900104 16.852261414625303 12.533243581734206
Cs 11.088149211006122 14.415608021453233 16.893265438014463
