12
Energy = -6.27797627 eV
Cs 11.974494316253876 8.35092753 11.974494316253876
Cs 11.974494316253876 11.974494316253876 8.35092753
Cs 8.35092753 11.974494316253876 4.727360743746122
Cs 4.727360743746122 8.35092753 4.727360743746122
Cs 8.35092753 4.727360743746122 11.974494316253876
Cs 4.727360743746122 4.727360743746122 8.35092753
Cs 4.727360743746122 11.974494316253876 8.35092753
Cs 8.35092753 11.974494316253876 11.974494316253876
Cs 4.727360743746122 8.35092753 11.974494316253876
Cs 8.35092753 4.727360743746122 4.727360743746122
Cs 11.974494316253876 4.727360743746122 8.35092753
Cs 11.974494316253876 8.35092753 4.727360743746122
