19
Energy = -12.36940704 eV
Cs 2.0228176867761665 12.94340798334093 18.415470574520864
Cs 3.8388332760425175 -0.37981088594618606 17.027015052788624
Cs -0.014787697183230137 1.0212596264580194 13.574453471469349
Cs 19.725386403495946 17.31769542346837 17.141003232773315
Cs 17.679047178588128 1.1739890911318693 8.939730188022754
Cs 3.07340024858644 17.117588456713765 1.0054034182000735
Cs 16.776557450972135 17.803398549627275 12.407000583050015
Cs 17.354393507556033 12.551610204620616 19.29179765363677
Cs -0.23426101816230416 13.586484191200663 2.8077048743508985
Cs 17.050164262715533 13.068603953367438 14.367711797751925
Cs 14.603571707048197 1.4013379660979925 14.722442862350734
Cs 18.18946664903732 1.8011402017160125 18.337122963602187
Cs 1.1481702349209193 1.1687100672042385 1.4119631818953906
Cs 20.11494445465196 18.325957318771028 5.474021005927258
Cs 17.2948190402136 17.66015326574419 1.1315760529631498
Cs 14.341528472213675 17.02381724490817 17.13620978011925
Cs 9.216358458178496 -0.9037234103557801 17.174082791671346
Cs 16.78886051384107 1.9339812471975553 3.5746787347187494
Cs 13.321017699511314 0.7827549055315786 -0.40201644178760537
