10
Energy = -6.05378523 eV
Cs 13.414917050481828 11.09716195497427 12.844732306984632
Cs 12.080936819000016 13.856955113118328 8.680767661813114
Cs 11.299846754803342 9.123490591910414 7.216512243121799
Cs 8.600040284529657 13.328760639357434 12.838620577046267
Cs 8.939545777274894 8.334216279389665 12.622915245010088
Cs 2.6776529835090193 10.214342214705605 10.792536294139003
Cs 7.0624978976057164 12.1027880520812 8.022103973202713
Cs 6.546302775181611 7.036005145322088 8.440207953277968
Cs 17.63454768554454 10.242211332680066 9.588729538800088
Cs 13.536451972069377 6.456808676461368 10.745614206604607
