19
Energy = -12.47426679 eV
Cs 12.717380631988865 11.923485404313837 14.449442755354012
Cs 17.784871693305977 11.478535043187549 15.01882818148778
Cs 14.419006504008202 13.046632993471697 19.29759172875036
Cs 14.76878711990384 16.28996085699091 12.77673648993125
Cs 10.916245349614636 16.409816773413578 16.544944487518855
Cs -0.12950183225419054 13.511741508611145 19.177271091612475
Cs -0.16477816036845605 15.507359452880488 12.825330931759215
Cs 16.6632241673634 15.662836083569944 3.247490483832379
Cs 16.70648431462626 17.355244536438065 17.611638485010648
Cs 12.274439007650601 17.941989141718373 1.3756060853341374
Cs 1.6727195868719502 18.13549067455055 17.025607588548546
Cs 1.4876157249796826 17.475602901599498 2.1933984262254733
Cs 13.036973989885954 1.0110027468718388 17.047685262319163
Cs 6.91081882665933 -0.6289551186840364 18.924584981728977
Cs 17.89904825607437 0.3750944540621898 13.290085155731445
Cs 16.979684317022453 0.5669419501944953 1.652826192280047
Cs 2.155574355498192 2.767781535547596 14.923917973786024
Cs 1.7627904002041759 2.2323577199383773 0.21837714852976364
Cs 17.547679105037695 3.642360418957715 17.416327621109794
