17
Energy = -11.44847888 eV
Cs 13.544809102947568 1.7188384376095094 1.4707509849641873
Cs 14.180986747349635 15.953844435739903 5.353877084319848
Cs 8.8789443615394 -0.6514557166717163 -0.28377231125708774
Cs 17.779961053367586 13.033831182056781 2.2636425097740434
Cs -0.25870102687575885 18.38437424835085 3.60763222076807
Cs 13.299430273090044 -0.16452785817139184 14.605081777278476
Cs 17.8273634854716 5.049245633921823 1.3037654360081898
Cs 1.6031947616368005 9.406544953130096 -0.6725104063046695
Cs 17.96035998740758 0.4717122479656677 17.250473413265006
Cs 3.980083554932759 2.2497009816982105 1.0754696406707485
Cs 13.919239357093574 15.394417985709715 0.12064238609203808
Cs -0.1517268996784883 14.46012702814937 15.510098179702211
Cs 0.24649876768069867 0.30543013105214767 12.065850461037677
Cs 3.607517253822275 15.541095798349485 0.6607082692462318
Cs 2.2470598515199884 4.624703542634515 15.143332124979805
Cs 4.502744668576078 18.347292222538837 14.97864544177004
Cs 15.143464228135677 15.782079719913382 10.486638066722719
