13
Energy = -8.06025933 eV
Cs 15.772905007672101 1.4958689268328285 14.75436439090699
Cs 0.7560223935903583 0.34242933635395145 16.322191342703473
Cs 12.395425024700543 18.265754134662107 12.61538175796237
Cs 6.649222705283683 17.781533297881047 17.99591836846835
Cs 17.64807091372186 16.78188473748021 13.62058658763471
Cs 11.475379492499059 19.73220471101725 17.5475033488442
Cs 1.8358671361490764 16.858150449995346 0.5694723978483089
Cs 16.764347927870606 18.88820452710458 19.174691426407897
Cs 13.871554649912907 15.138217879071956 17.018477637508163
Cs 12.25840093716384 16.641652573755376 1.7500801315809624
Cs 2.8328904879161434 16.066449662490506 14.82804954320347
Cs 18.8833218485765 13.894500099390333 17.7618077021253
Cs 17.218659795192824 14.967878629434416 2.6027462222672413
