11
Energy = -6.25503876 eV
Cs 4.756194285144467 7.970125289276832 7.4657569199169345
Cs 8.849980345827795 4.125815113529689 9.003096553718494
Cs 4.988749802001131 5.941178374308553 12.349801161130435
Cs 9.932406773295849 7.597615849552539 4.503192962669041
Cs 13.680025632564652 7.511158880763263 8.500047616260382
Cs 10.10494230969393 7.600464556075514 13.168910037395293
Cs 7.634544827587344 13.281178702707768 6.8430158656496385
Cs 5.912303166175404 11.094466687958016 11.97956189324231
Cs 13.044800050547593 11.985740593899736 5.801343801926034
Cs 9.15234049344726 9.151469041562466 8.845776830618814
Cs 11.223964813714316 13.0210414446268 10.819748179385378
