16
Energy = -10.29280069 eV
Cs 19.045844523823607 0.37363035650887944 0.9142358242833161
Cs 17.11609596715843 14.8310398969253 1.9139467339816945
Cs 18.93104199452977 5.6149306704403665 19.804334894477126
Cs 13.303294921429698 14.198362189094144 18.811468317168714
Cs 17.936476543720072 17.15786489627404 18.04192821745119
Cs 2.832981800882507 18.28863144594192 18.037251435594904
Cs 14.073421238978938 19.434087265584516 0.2569016441074613
Cs 3.17700508625593 2.441140738842412 0.11181109818572818
Cs 17.78908662196329 10.920485112183107 18.42496542993791
Cs 12.6729787462109 18.427384367841622 15.837435755184066
Cs 1.4903108243544185 13.69448020618701 -0.14303363013335108
Cs 15.853671630850604 2.1627223371712354 16.89622784233197
Cs 0.7489940915998912 13.959794231935925 15.229241893252004
Cs 0.5287004835001871 2.2812746143041847 16.11439781232605
Cs 16.102945810138095 14.141212214190153 14.22664180864805
Cs 18.55200402951707 19.103270165289114 13.5440238803362
