12
Energy = -7.77168077 eV
Cs 2.779782137116221 1.4444744643035825 17.58278115535978
Cs 16.131699300338045 3.9542376913865267 18.118780455340076
Cs 7.39100601714084 17.460204526873223 16.79999910042646
Cs 16.616601521835385 17.094597723158365 0.33490084621621635
Cs 17.372961449438716 0.980825978965972 13.882401908895927
Cs 12.148634140459613 0.7858785669110678 1.5717793000236269
Cs 12.444373998811038 0.6495885950236032 14.919297714072345
Cs 1.9843707464431846 15.224010451711099 15.872677806274936
Cs 16.404359693373177 11.614614183323518 -0.28703318169093883
Cs 15.359962289200165 14.667614963382437 13.999594019477719
Cs 11.792194520444822 14.659656669034495 17.817417788614936
Cs 15.860621583048346 7.796859019095363 14.807701129617792
