10
Energy = -5.88502889 eV
Cs 15.451910393253424 3.8896707636141725 14.702818620705658
Cs 17.432945261615323 14.348421162577896 14.801730257199592
Cs 16.32684669934126 19.109608256484925 13.075850919130337
Cs 1.1932317879139007 17.96444445736459 15.055085590382303
Cs 13.378171918334711 17.16069538008962 16.74149894467923
Cs 19.578169713788757 10.913325108418302 18.19981138304626
Cs 17.612725850376744 0.6458735138968446 17.914627118800293
Cs 19.57209293289624 15.975178234712486 19.480007497316596
Cs 15.188599695667765 13.11679777709449 19.348984378070526
Cs 15.225861246303872 17.904347941289753 1.640140790161214
