12
Energy = -7.72839528 eV
Cs 12.482801046259977 14.091698531795092 17.049571195435608
Cs 16.551405608431857 13.371750613343439 13.661990831334316
Cs 11.671595644060957 14.682225854854597 11.642951435342095
Cs 16.30170866658068 16.091018544351776 9.260954133046486
Cs 0.4730570746944457 17.732747460710073 15.103468181505919
Cs 14.868133863888152 -0.008615273364743764 18.420233650842594
Cs 15.118095497508648 15.755325714581002 4.2591955967965625
Cs 1.2893877368231068 17.25135800556805 2.0023127995462997
Cs 14.191064080405992 0.05874086503901603 13.559195867702584
Cs 8.772702936487962 17.328619960044406 15.360706632331501
Cs 4.3636252168550484 14.727652835546367 16.961745375341167
Cs 17.360908377168524 13.364567523498867 -0.018157275218038924
