15
Energy = -9.51546028 eV
Cs 17.929961204204336 1.1028795118201686 13.342206472279978
Cs 16.643177220667173 2.90269750428191 18.953218076229916
Cs 12.133710413521118 -0.28103531458717973 17.214891844723464
Cs 1.9357845111497254 1.8738416936113698 17.247779216421772
Cs 4.0796490444510995 19.298181430708848 13.180110374685889
Cs 0.08441613153410692 16.16980308722468 12.565228273107007
Cs 14.574744581271206 16.64350318257304 13.623109230155926
Cs 14.609809420494383 19.270102947262288 2.4650418496867483
Cs 17.767732159107 18.14030326616411 17.730776514176533
Cs 3.1535074016034543 16.65134646801887 17.626066180537737
Cs 13.62310219843131 15.001728046890458 18.965323268251165
Cs 1.2006066456732425 -0.46540431686068673 2.2852528321481476
Cs 18.414582520504894 -1.5606556800823 7.224970148518505
Cs 17.89069127527755 15.234770594244127 2.4690465391979965
Cs 18.56469246269229 13.358908859538635 16.938987112905433
