16
Energy = -9.61099931 eV
Cs 7.591914897296626 13.339955002577655 10.665575
Cs 7.591914897296626 7.991194997422347 10.665575
Cs 10.665575 10.665575 6.786271387174825
Cs 13.739235102703377 7.991194997422347 10.665575
Cs 10.665575 10.665575 14.544878612825178
Cs 13.739235102703377 13.339955002577655 10.665575
Cs 10.665575 16.169931741453336 7.650597634234022
Cs 10.665575 5.161218258546666 13.680552365765978
Cs 15.687840371220158 10.665575 15.051767474645981
Cs 5.6433096287798445 10.665575 15.051767474645981
Cs 5.6433096287798445 10.665575 6.279382525354021
Cs 10.665575 5.161218258546666 7.650597634234022
Cs 15.687840371220158 10.665575 6.279382525354021
Cs 10.665575 16.169931741453336 13.680552365765978
Cs 2.9076540159465347 10.665575 10.665575
Cs 18.423495984053467 10.665575 10.665575
