13
Energy = -8.0120957 eV
Cs 13.01857483776493 11.15629147805172 0.8978052803097648
Cs 11.61674212013323 10.682787174738174 15.213538335331123
Cs 15.931830258319222 15.46005147344015 1.6227671207063767
Cs 15.215924157472205 13.833595549613158 15.719149016786032
Cs 15.660801286356406 10.581874739296401 11.358066647990325
Cs -0.5494072988463566 16.722685100686746 15.743417426019043
Cs 19.341738759889566 14.2296894360459 10.959633838086908
Cs 10.737891047981924 15.148819675131294 18.57922027265364
Cs 14.769224070885716 18.859944028602932 17.76768484142405
Cs 15.64769633337319 17.564382821384886 11.568283817341731
Cs 15.416297799846877 14.03757772152336 6.860411073644358
Cs 11.875105868132298 13.85423430877817 10.84360188509572
Cs 11.103099958621428 17.753211433656755 14.206132820595142
