12
Energy = -7.48559906 eV
Cs 0.6762399773261536 3.074639543952151 14.623006252024629
Cs 15.694806192038627 4.250862632480919 17.330877547461494
Cs 18.554564150595894 18.705853673719776 18.71336383655255
Cs 2.170031517675717 17.487937807433727 14.046800771696066
Cs 16.20708548215161 18.383983586615276 14.142082469164432
Cs 13.295690893794802 18.47526922234952 18.529950013132694
Cs 15.687343574636934 14.189611631726544 1.0926409009905524
Cs 0.017926540478008127 13.66036361541212 17.085934526088007
Cs 10.941506093333672 12.743916905329552 0.1793566025176114
Cs 13.106407052682558 14.347388528774202 15.22017257037348
Cs 17.2790985336284 13.282396936974182 12.566492642834126
Cs 15.570055052401832 9.640717336315573 16.785094477872583
