11
Energy = -6.71807772 eV
Cs 16.103909761273005 3.743104708285664 -0.14680866524755115
Cs 11.427273297972809 0.5391279597800738 16.501372091721578
Cs 3.4663302805216656 1.5646853731433652 1.0886914005231105
Cs 14.094702388806766 13.117252647302548 17.036965218274794
Cs 2.2800116478680135 13.828449295783784 0.9363868148500191
Cs 16.651573981637767 16.5615547618529 14.319443204892496
Cs 15.578969428509359 16.65234495434915 3.0763821425558735
Cs 0.5790478115707796 3.570037704239234 5.201657236221389
Cs 2.2879444079621845 16.248533701946393 7.051834762834983
Cs 1.4479025730706603 2.5553594006109073 10.817451018691525
Cs 4.738016707236125 16.517499604450826 13.783219047735047
