11
Energy = -6.20307349 eV
Cs 4.776802763167664 13.596599445664957 14.767887588828955
Cs 0.6414807064108591 16.398001446937887 13.471124471433772
Cs 17.95569594868915 14.107018345526246 17.432363536047937
Cs 16.666240182876564 13.802357350869679 3.77781873261492
Cs 17.316928769692545 1.9080000754119002 11.916872659618642
Cs 18.031851821846864 18.29675912480274 1.4234333937940673
Cs 0.8542706346169467 2.141886837465342 16.292787722320515
Cs 12.544634314182677 15.529467209695826 1.1296170240484316
Cs 14.303635773753456 18.19209770734648 16.037325140402718
Cs 8.407805918532139 16.67407509086705 17.29994024175268
Cs 4.262341123580307 2.1267895776585455 1.0288507655295742
