18
Energy = -11.82783271 eV
Cs 18.112955842480392 18.107981284715546 2.5568260640125513
Cs 1.679958215025506 0.27001220082000627 16.13801596438601
Cs 17.176184004053923 13.216932745446373 17.02954142746425
Cs 18.77907936790736 12.865229372439451 3.1049989959552473
Cs 12.977046533886938 0.8008618532857105 1.754175482102425
Cs 17.970232490258326 16.493398234982536 11.204123582160427
Cs 13.799265833772541 14.622076227590608 1.7497781732516813
Cs 10.653834618866453 16.619520311977354 16.482123640464284
Cs 2.4300717442627446 10.609142518638329 17.310677581764352
Cs 3.5103665969994213 15.531321624483061 0.3945364070759099
Cs 13.654083929091074 13.51121033063721 13.110953026106513
Cs 12.444005719426679 2.8337480949654728 15.794558945474753
Cs 18.53524851479992 11.355026411200635 12.422312206273997
Cs 17.050476897088167 3.565714867106628 18.53270407526692
Cs 15.789567304415025 17.67543161178712 16.341929139384476
Cs 12.84711873060682 18.36454276628967 11.627583770759466
Cs 3.332060912879801 14.788543960146987 13.97202733472341
Cs 16.936646762625653 2.5771460713578844 12.925298696649845
