11
Energy = -6.80949614 eV
Cs 1.8205689202746635 13.92635324979296 17.18762307157195
Cs 13.035546262406728 1.1749264839278062 16.418144911196695
Cs -0.03211516190904916 0.3913839758515872 18.087287526507616
Cs 11.593291189210888 15.198530092209062 13.758812905678724
Cs 14.833094827001949 14.189459771687511 17.953670269512145
Cs 5.37853875276515 17.59760778264641 15.842336288396567
Cs 16.41459516093573 12.384304104330063 13.418221240426378
Cs 16.557618433793053 17.575338154790074 13.279425879862618
Cs 13.685083369337386 -0.39529873287626227 3.1091575340620747
Cs 2.723493634521432 15.088551390204541 12.113379317030128
Cs 9.471824644366096 15.832163080457901 0.24935543280720787
