15
Energy = -9.53218447 eV
Cs 2.0037779652064733 12.919700790306464 14.038601494822432
Cs 4.383047436485362 17.153916655760582 16.284842804245507
Cs 2.9959797663264847 18.152581631972048 1.4964446183503355
Cs 19.63907522386294 15.301027837940818 18.375842707670298
Cs 16.927268857860287 12.167336298759192 14.907778064637622
Cs 0.8642296126949629 2.6372983829921925 2.7516809854760798
Cs 19.047444132520376 17.196522865017958 13.52354006700758
Cs 14.379394301604217 15.123931716320847 18.467793149398293
Cs 13.7759394939981 16.043337814156644 13.195777965263
Cs 17.54331863741481 18.530550661156322 1.7599503344441085
Cs 0.5043049631738246 0.7594350248320996 17.641391170991422
Cs 16.58315960869375 3.6126537396833593 0.09100768359588766
Cs 15.647773725415634 -0.25387445891254157 16.405074969594857
Cs 9.849939711021692 17.66527803283271 16.68542848281298
Cs 12.636580169027367 -0.11762822093245781 0.6544079732702185
