13
Energy = -7.83285693 eV
Cs 18.51120719509568 13.261278944326273 11.74244549212593
Cs 15.188516906437487 16.82201046564782 13.431241023716455
Cs 1.077935855316685 12.885570317992313 16.595685760042848
Cs 17.967945607607064 16.618009338416815 18.64178371716918
Cs 14.697073020741684 14.598240779005419 8.550347452820153
Cs 18.54824787197186 8.755001545876961 14.260263048861468
Cs 13.89999825093158 10.626323051327587 11.919648998527085
Cs 10.497789548113392 19.530505720635773 14.845882360145836
Cs 10.658369424659755 17.670448902687447 10.15484442060982
Cs 9.872003220719934 12.698920130344208 9.006793909048088
Cs 12.89218391678184 16.940936616283548 18.532581726324736
Cs 15.302209626071889 12.509287002796212 16.543984131592786
Cs 10.747027186365738 14.152066036566154 14.154975486616348
