17
Energy = -10.95384508 eV
Cs 0.012176104676581015 1.7800861320426287 17.470012710491147
Cs 19.500359275338006 7.867650442762669 17.223463020079695
Cs 15.455366737920345 0.2387093163373084 14.31548479656039
Cs 15.57363883793264 4.175063428018617 17.843107707825933
Cs 0.10495607463857885 18.703304856972014 13.178263122878926
Cs 0.43975488074188557 18.414154258579398 1.3556433408303206
Cs 3.497830164468391 17.906923978539005 17.292974903746735
Cs 15.709618116673818 -0.07892266916194024 0.7242170863024764
Cs 18.084701510500512 16.949603747542575 17.46008548225333
Cs 11.592613108615767 0.14409481129502874 17.826030253420004
Cs 4.454424086809951 12.912802675365114 17.085599314279573
Cs 0.2429808108528246 13.250579129957115 14.265599839075255
Cs 0.49691485504542676 13.02980454192506 -0.010836251847150199
Cs 15.691139027202315 15.200918322096618 13.288186518209102
Cs 16.090990639761408 14.91549724594684 1.516181741567448
Cs 12.416235365546504 15.439584950705557 17.715649819366742
Cs 16.10836886972425 11.739750109450464 17.356332179925456
