14
Energy = -8.97053536 eV
Cs 9.08256893196242 9.475260161041628 6.6107714422831645
Cs 14.599199483856436 9.11344828996737 6.832848520915115
Cs 3.0095128644807225 9.105270899051265 7.390562459988101
Cs 11.974202408700602 14.156233136221152 7.2092632534495795
Cs 6.360297136872727 14.034623778264807 7.116553822639254
Cs 11.638450546541376 4.4245752064536985 6.92817507744107
Cs 6.239924717181689 4.4229441236264115 7.0429322234331755
Cs 9.114461521148115 12.540676320562573 11.051981174020652
Cs 15.641177990104765 12.450291761122964 10.519558863669785
Cs 3.0228050629942085 12.875715447456944 10.803951306494131
Cs 11.969770288209736 7.675301209804343 10.841299640711826
Cs 6.374414588052138 7.700568084855285 10.874445260916126
Cs 9.085200446236524 0.25234845921938664 9.192759461072992
Cs 9.229828998221342 9.114559122352176 14.92671247752744
