19
Energy = -12.6010999 eV
Cs 18.54345437570274 1.679362970845847 2.6189602251410378
Cs 13.681588649422265 0.9671605066032543 0.9728935549051599
Cs 16.324593729111065 17.300021400762326 4.415489060009853
Cs 1.580660450184624 17.190909425794565 1.9101801725829866
Cs 16.879074285079344 3.2036719152798003 17.593325231431727
Cs 12.676714485788738 16.03390547522719 0.7423889631078089
Cs 1.7782385336349404 1.4944810369069934 18.425801746979182
Cs 17.280100659804596 13.040085775646531 1.0929923450926557
Cs 17.80567473711195 17.206533737304834 18.12580595529951
Cs 4.460026779127263 17.30882885530491 17.181124371778555
Cs 2.1906143599980767 12.997907714580768 18.697677493217995
Cs 13.278781096070206 18.679464894741088 15.772383391372545
Cs 19.07968398150563 19.779731097047915 13.856850949670815
Cs 13.538681587862893 13.175641532739533 16.617292514934032
Cs 14.661898855681276 3.0211178445614304 13.010775325319292
Cs 18.11357636268865 10.935045725762693 16.05267094320911
Cs 1.2320058972170784 14.84273008315148 13.88742976420628
Cs 16.179883157758443 15.097119611069303 12.76684957156379
Cs 15.376636227121429 19.133225978310893 9.54446467580542
