17
Energy = -10.91136823 eV
Cs 4.664703335005451 0.9526248735535744 16.751652990364505
Cs 0.005559152639382938 1.3688537215511312 14.421558846477078
Cs 17.599770814105085 16.488166224947985 12.493608868194983
Cs 5.191089539271634 17.161341032196933 0.600943937497244
Cs 1.7924034232161776 16.224698867006296 16.20685769480597
Cs 15.393083752608842 1.3897279945675511 11.559381642581585
Cs 0.28236895167750914 0.6605664114103557 0.009160488510824079
Cs 18.553413124325164 12.215816581597833 17.44660326346769
Cs 0.284987859207379 15.411607488838003 1.791606550861662
Cs 12.367383229782314 17.73273080346956 14.011106844623018
Cs 16.37939307195626 16.896887116066402 17.42723627528754
Cs 15.091540860462835 1.9318711578811338 17.037570293352907
Cs 14.149188604499377 12.886816123861271 14.432916891352976
Cs 15.4860995124677 18.50804450326954 2.183090557050749
Cs 15.265287436674992 13.112644018829513 1.6834741081538036
Cs 10.749162685994364 19.314587359493483 19.06068932340391
Cs 11.409779571371493 14.306103617141618 18.430442067124073
