18
Energy = -11.39134027 eV
Cs 4.086870532098927 15.479492950497376 11.312366957564604
Cs 15.65145641601366 18.984326419311174 0.7000079601189303
Cs 17.51946661844175 18.674784973465247 16.826678034905584
Cs 18.41678561371522 2.1158277456085735 20.150565854118202
Cs 1.3897446878414366 0.2852147071047563 16.79480767536154
Cs 10.106283590835096 19.757860479591567 -0.2676940767015484
Cs 5.06485788565539 19.883764936853474 13.403080305992294
Cs 4.628993219903445 20.37079394949824 1.713284813054334
Cs 19.645779545810502 5.861734195586885 2.7569845997622675
Cs 6.387146781859879 1.320403415390596 17.86379377945018
Cs 19.694748893279044 3.5017214143830313 7.511332864429173
Cs 2.244720470239065 3.5432438336444743 20.906133791626594
Cs 0.27114473702744807 18.0369175746452 20.516758981931872
Cs 20.517448533336925 -0.11587708191907421 3.5992151191923862
Cs 3.1412978324471266 3.4988350640783277 5.023505510544684
Cs 15.921837922826485 2.375641694613632 3.704477232254396
Cs 5.232223088359198 17.2303648888689 18.536436543383942
Cs 1.0816137337363438 16.07932506750571 15.438467024808038
