11
Energy = -6.81777193 eV
Cs 0.8501307356895833 12.165893617633568 18.0999835322445
Cs -0.13512085463245246 17.592052478259433 18.640451276039503
Cs 17.626943908459754 14.53128652804992 14.413104856764416
Cs 15.898267209512243 13.847310341058426 0.28565524008320636
Cs 16.2986231891174 8.947075017585826 16.45224912034264
Cs 12.773896689076446 13.445497753076072 15.882875257419288
Cs 18.255454142298387 0.17748147378181953 14.083838267491938
Cs 17.6396686269195 3.439882260068826 18.32033770942037
Cs 14.276334849348036 18.41980846227528 17.92940149663626
Cs 13.62374426048725 17.899834166500305 12.787455667414266
Cs 13.992110726542435 3.5283752382004083 14.799480107730924
