15
Energy = -9.58130348 eV
Cs 0.6729536975697732 17.829233780653098 4.440768972774481
Cs 14.566647956992531 15.088172914964645 5.310807661687761
Cs 14.622051865081705 1.832804649264789 5.804076394255394
Cs 16.799425821472717 13.629886031447848 1.033535410739815
Cs 13.004538479850977 17.971805722102346 1.0056858490659608
Cs 16.66762610744156 3.779110216826346 1.4461608345723906
Cs 3.8171370463398193 2.21362615770698 0.7734392457841595
Cs 4.049730585821916 15.357330619133755 0.520905940332307
Cs -0.12851190911821145 17.97655131890598 17.41230869171727
Cs -0.42394794446617307 18.102390390626752 10.726132473225311
Cs 14.701336397445743 15.596047252460641 14.552414402424612
Cs 1.5611288908332372 14.174745707441032 14.275491531314186
Cs 14.80492214742232 2.329960322618462 14.812545685259566
Cs 1.5688992644958735 3.641194237258528 14.42351285859221
Cs 5.001520590371448 18.10170737646684 14.434980837754791
