11
Energy = -6.81148617 eV
Cs 17.03444149301838 8.909780778878812 16.002742299627585
Cs 15.468587643929041 13.860339409537405 18.517383927543946
Cs 1.5635949656085653 13.578020177605469 16.518320248972252
Cs 0.6805737481722041 17.431176325053347 1.8382941828017074
Cs 13.211682446947721 11.989035222195483 14.111757847538248
Cs 12.127510064526925 17.03995356131285 15.314280988856364
Cs 1.461702711452783 0.3987373187088018 15.710283283311764
Cs 18.263025392484494 4.50351016415011 -0.001604033204402423
Cs 16.741409520209395 16.055458357324927 13.559124107175888
Cs 14.866578324316034 0.42480639875609477 0.47940714818212615
Cs 15.480574964054089 2.8801665854596443 14.504102155390914
