10
Energy = -6.07040524 eV
Cs 18.215141413811384 11.711886967008857 11.968603732718904
Cs 13.510499379155661 13.573125070725597 11.528670262515671
Cs 14.824571231234138 7.895069086667766 13.586978180788904
Cs 17.274589466731246 15.917547780840064 14.837476539450746
Cs 14.842023018614311 -0.002788633539052976 12.227395271253956
Cs 11.694217751670147 16.774866440005805 15.165424971341656
Cs 17.343364761609262 11.19073826426568 17.07429143212339
Cs 12.151416959252796 3.5924038738013 14.47015219694081
Cs 12.082403181219803 11.580230516146218 16.039075854905757
Cs 14.604680239958435 14.925500993085029 -0.3406591761030183
