14
Energy = -9.30373142 eV
Cs 3.6638690801643374 18.032711653045165 13.930722016497272
Cs 17.100560922052733 14.626332408608128 14.60923123319979
Cs 3.3490176075289013 12.76445910148115 16.104119039619874
Cs 17.21252310924628 1.0505759460390376 13.285638619794529
Cs 2.663085130625949 17.541656950658712 0.18794088253698282
Cs 12.359290687169835 18.03278746212818 14.75550617726401
Cs 1.0240259587727507 4.16331676922606 16.848587094688085
Cs 12.275596132442132 12.231597460032605 14.63195767581108
Cs 17.91910138394858 13.435377223586684 1.1607364957594515
Cs 16.74049234936087 9.287085000177411 16.361657322287734
Cs 7.887705362161759 15.763696741170394 16.672979982652485
Cs 12.783704514876014 14.478983017528156 0.496783365384358
Cs 16.076643678976126 0.024538533575306835 0.00671354308129255
Cs 14.108097973188773 4.495135033734156 16.062993555244173
