15
Energy = -9.49627863 eV
Cs 4.052767140826345 16.134418930844564 14.511155714389627
Cs 5.881073142892121 15.913935264632839 0.25796255577384525
Cs 1.2081382487398529 0.9360406155175984 13.419836080770061
Cs 0.9589969784342507 15.566221319703214 1.9779406940981568
Cs 2.5545491681848564 0.2839323156355338 18.529012076372798
Cs 17.600087894015488 2.6874246019157737 17.199016778026913
Cs 18.563127378311215 16.109268216707356 16.655945051477044
Cs 15.8953316361629 18.328859416317577 1.0531814283201386
Cs 18.801749988213267 16.08079814145387 11.439039004828699
Cs 14.82569358450083 18.853824841909848 14.044375040040103
Cs 12.183533766855401 1.3460256460637956 18.01234345455136
Cs 14.21509313239557 13.78967458345592 14.46127718708872
Cs 13.931317187243335 13.694245587067597 0.02139070723362863
Cs 10.827249645690218 17.240251765788223 2.3311398394537997
Cs 10.021394528570704 16.255214348882422 16.50886520031759
