15
Energy = -9.43075693 eV
Cs 9.754091884488298 9.86616090168239 9.753451889825815
Cs 10.546542871273527 4.8825780602306885 6.683437029574881
Cs 6.91588044462556 14.758935014840475 10.578716009861866
Cs 8.66084765027066 13.671899367996664 5.844580355113864
Cs 10.553002417707257 12.869650744782366 14.365545857248446
Cs 11.373603467368667 7.8641556063835205 14.904456062709954
Cs 6.364244093015693 9.108215109800213 13.019179715047947
Cs 13.258683576913695 10.159978078915893 6.504603610813492
Cs 5.717675391863075 5.960061021280327 8.276395766683642
Cs 4.402287704240155 10.872833493862775 8.166167761873396
Cs 14.891879470131384 11.50009062605849 11.644667505253226
Cs 14.112335645526937 6.512395271415675 10.56268669219253
Cs 8.143928742124258 8.820609241982622 4.342415034070923
Cs 9.745822061575625 3.921885706927346 11.658196396150759
Cs 11.911083900788384 15.582464466188796 10.047410313579105
