19
Energy = -12.70738299 eV
Cs 16.11528179131453 1.0767677326814857 12.186531515008875
Cs 18.006034737179156 15.397455178528865 8.943237845345973
Cs 13.527886700479264 15.734422992129357 11.634037624799376
Cs 14.9763411688898 10.960931638304427 12.763504603407599
Cs 1.2282822991227331 17.859970729284463 13.040497972601086
Cs 14.419029047740912 5.198645897648145 15.513433510659356
Cs 11.53479983613241 0.39679022579275347 14.564381850541816
Cs 0.2467168260123028 12.775509964619271 14.273207916658661
Cs 16.07016584593111 16.084031570893863 16.343132593230262
Cs 11.126648514541847 14.174577727639104 16.052753864802973
Cs 18.15301916832655 1.5818036019817152 17.18038725080876
Cs 14.389304017113428 10.15256987814035 17.723888804734305
Cs 2.301177222071569 16.23720016013778 17.950182321307263
Cs 13.193321231076624 0.5547289180700774 -0.013910577179912254
Cs 18.395382475286624 12.647079541628445 0.6605227763148072
Cs 13.308162818816854 14.30181981306388 1.5078145701461398
Cs 17.02122884631963 17.731431459185796 2.739899125172239
Cs 2.042354281538085 15.285272354027777 4.158832466168383
Cs 2.3169050147948638 0.9830330619359124 1.9117064111650466
