16
Energy = -10.23294064 eV
Cs 0.13465770442879954 14.313019165688898 17.993515886873006
Cs -0.2907035562399854 11.458604522353673 2.9937830758570776
Cs 4.087840675248356 17.558489662199612 16.775791095821745
Cs 17.009896002587208 16.222383987926502 2.8714283925414614
Cs 14.433812993464294 1.2067925475485355 1.5053417420196582
Cs 2.1931633316892656 3.1672164670103276 15.193156218950056
Cs 18.813088977390308 0.026111823445895934 18.256876783132473
Cs -0.28825025011523153 1.9065515758947065 3.533370856118982
Cs 19.218695846690842 5.580169983195646 19.072046820034377
Cs 14.989415274125037 16.23049196904759 17.160768057597146
Cs 15.215733752221455 11.37424546713967 -0.12566774359835886
Cs 15.779153625361225 6.291367015741625 3.1152475075561346
Cs 11.971988803228705 15.54756064098782 1.3755904716904708
Cs 7.160424467640324 1.768126759222271 15.818163977693589
Cs 3.9625903307421253 2.2340669461486247 0.5623688018154158
Cs 2.560481495445596 17.038711032373882 2.327110598107902
