18
Energy = -11.94371167 eV
Cs 19.740781665158572 0.11543227648544035 13.319861554124401
Cs 2.7681532715447132 0.7440305021183194 17.594926850083922
Cs 2.6349058492172976 15.749578770408126 16.093242536285366
Cs 18.394741260891887 4.0123685845444435 16.712819902385483
Cs 0.3674096821515742 10.837742958326597 15.693712434391772
Cs 14.072069992395887 1.6014409649101768 14.660246531000375
Cs 18.7202515369859 14.992879943232778 12.923029462521917
Cs 13.674009179838201 16.615703640100076 13.856660409636197
Cs 17.35911978609783 18.44641946504142 17.350873425660765
Cs 19.095478615563014 1.4869860963399557 1.3876420432422019
Cs 15.071022822833525 11.748026586408317 14.459474459429083
Cs 18.112683246966007 13.80615959000341 19.21848252263405
Cs 10.92533633561301 18.731006420703235 17.982394867531237
Cs 14.189478443073646 2.384822378427033 19.96473094111961
Cs 1.5707678477266174 17.127537256203677 0.9674844702842952
Cs 16.28690092220107 8.740267696043686 18.5601931939788
Cs 12.890391577470826 13.860536066115333 18.815494988673805
Cs 15.045525421784937 17.688412761564763 1.6901827868286547
