10
Energy = -5.87929354 eV
Cs 16.31944440877435 15.429031095540385 10.146420354705347
Cs 13.298816902539166 0.06290676781968564 9.359715094923414
Cs 14.461614529854703 18.07056721994291 14.438305819681222
Cs 14.603836097356554 11.746514608780075 13.768851367359408
Cs -0.8247373196804532 14.9400731170429 14.746558368256435
Cs 11.386268128779504 14.850119875720436 11.119834018261894
Cs 18.000787238671528 10.602134076320523 17.697409440969714
Cs 15.437002544898982 15.318246250752534 -0.7423295284847058
Cs 13.264975955018748 10.475734799410999 19.097512852692443
Cs 10.9812373886718 14.573188763658514 16.296398681664428
