13
Energy = -7.91812614 eV
Cs 18.282692565338074 20.646262102305244 14.520492964325342
Cs 18.020388640820613 19.592580806655075 19.94876623181281
Cs 14.898306247212822 17.141793969799693 15.791183691609882
Cs -0.40334945079003776 16.366185970496755 16.734185329679924
Cs 15.308501391834783 16.3740149963655 4.355122790308764
Cs 12.560425165434525 11.629822158697122 13.582381511115592
Cs 10.586522001852966 16.208201912102858 12.939164566668051
Cs 17.348565267867517 14.486664304644497 20.737986391540755
Cs 17.237345674693174 12.411578862123253 15.683284066067959
Cs 14.505612207253845 19.07661610349287 10.601812471758754
Cs 18.26693418858372 15.779645528391974 11.66811509374964
Cs 12.59906961775712 13.763212362827003 18.674713847349956
Cs 13.781775678036457 14.056610687789748 9.142266320333674
