18
Energy = -11.95279962 eV
Cs -0.3035503773923499 5.814139795946808 18.1842380494871
Cs 5.83875921319396 18.855761357628463 16.15961651489228
Cs 3.858888849888145 8.471897913148279 1.119987310058645
Cs 1.068245049149321 0.6916159595149513 18.015348112953866
Cs 4.841599188164737 4.4213614187198775 17.298133445174678
Cs 3.73455788533817 13.170865106432506 3.7110016268035255
Cs 0.5604160302387348 17.30384611957477 3.7619653372634563
Cs 15.04506601077492 2.1607611792796217 17.0102956721958
Cs 5.271895214254443 18.56180164207169 1.8076229594322446
Cs 8.31016927810601 3.984202844974401 1.7408091361168436
Cs 2.786197344556667 3.615143613669905 3.1589600075873987
Cs 15.135517328578565 15.894076855924137 3.8520646511282375
Cs 16.625455271275715 16.4692258527583 18.1646263001077
Cs 17.78567502645947 11.780080493640178 1.3723914124823657
Cs 2.2626423977636323 14.834444776228572 18.404731087717355
Cs 16.898375706477264 1.8818839119945479 2.396884440053939
Cs 18.05801732487999 7.101162598273919 3.7259797058399613
Cs 13.688554961424146 6.165372236420549 0.731839304080618
