18
Energy = -11.64145724 eV
Cs 17.066477260458754 17.27469330844399 7.076488299516708
Cs 15.132526303226701 13.030629408963037 4.090680730725932
Cs 18.706325683808924 20.521680413314716 2.853055835225169
Cs 16.014661465157072 2.8559426741522325 19.46321901484919
Cs 14.453261936110025 16.637911288825606 0.399266844732657
Cs 17.409093824796358 10.713540409965512 19.884399068140528
Cs 19.36327139023755 14.955507392881593 1.818693486005293
Cs 0.4007256387741569 2.8376695653881687 18.83626553907973
Cs 2.0606854827855123 18.30978501074999 -0.2827744091203466
Cs 18.211450842972237 18.715668151127673 18.2176064301971
Cs 15.357871822905869 14.180078500901065 16.414357945833313
Cs 1.5518470003430127 19.815171647532313 15.088700504172579
Cs 13.907260549178252 19.480930963931996 16.138877645443614
Cs 1.6607582790704223 3.982743301209185 13.258013581835211
Cs -0.12444945992949766 14.187463288516113 17.182842138842194
Cs 17.52992791683026 2.1761779294570136 14.3222827141913
Cs 18.03994748899583 17.282874999862198 12.645340531433902
Cs -0.6611430958311367 1.001757632096128 9.523671156427785
