11
Energy = -6.79379733 eV
Cs 18.13517953962037 1.5617965155435807 16.385359551194963
Cs 13.08473229560317 0.24651150453567391 15.843275050878125
Cs 3.42277524390577 17.04253096261457 13.982505274908325
Cs 15.657220385816428 0.1692019148770339 2.4213911617044888
Cs 16.7744966704911 17.159997341618826 12.27220034637159
Cs 12.120236454045063 15.152907840201491 1.2890926660854067
Cs 13.44642002806366 13.727281418059091 14.636185914667099
Cs 3.9478991778101804 13.779512235430133 17.93744442532842
Cs 17.36882111167434 15.010649955166183 17.873008207128954
Cs 0.3270579481800081 12.658999901195687 13.72124720271923
Cs 8.321613656305527 16.11039828560474 16.20451408668747
