13
Energy = -8.21439199 eV
Cs -1.243821124490914 11.620424647946301 14.663932001259488
Cs 13.438731268948514 11.29291855640189 11.431494148337304
Cs 17.06242345038183 15.190195549659887 10.570838873664064
Cs 17.042489985995008 13.294599428877113 0.9791968828710609
Cs 1.7405706905192804 15.582375997004958 15.84086128097517
Cs 14.136084730274671 13.732634307208846 5.91083290810006
Cs 11.694660822940016 15.87369839698812 10.34377682815298
Cs 14.514702706551274 16.13463507359747 14.93677109109033
Cs 17.0851758862222 -0.5213340808795711 0.008164816286856386
Cs 8.180529900685855 11.997735345146122 11.33109083397362
Cs 12.704838849284366 11.380292691666925 16.652788760058538
Cs 9.137409132535236 15.096500202457788 15.266614249932015
Cs 12.326777535485983 15.555530110485769 0.9992366128595114
