15
Energy = -9.47346122 eV
Cs 0.9397202063510641 16.572296285566544 13.836987022351968
Cs 2.482406214428594 14.914816969856297 18.605886600169917
Cs -0.007497249407861875 9.563376993834828 -0.7035908281212401
Cs 17.08579351350634 13.19009442315337 16.436859718073883
Cs 2.5417207914226347 0.5069811087312139 17.45968120464574
Cs 17.635200269963924 1.5094440170667807 13.298132420350223
Cs 15.483639895181128 16.62563476755961 12.43749321610354
Cs 12.215901012199936 0.7915828194636985 13.37686757789584
Cs 18.365252463323177 4.368387237649642 17.823599401400774
Cs 17.535701172930963 18.219361801585105 17.632783416841825
Cs 12.61745154570631 16.563512083671576 16.991396207256038
Cs 13.551845936821703 1.9144677860242034 18.18480329763795
Cs 18.210110221135274 13.939524404005738 2.07679273152143
Cs 0.7081397310198693 18.630064055862416 2.4469573364634862
Cs 15.06228037812816 18.067697316695487 2.3202607830505086
