15
Energy = -9.74464905 eV
Cs 9.347250979611761 9.149043763233028 9.170932255526688
Cs 15.956794686432813 7.858306426520301 9.814952495455065
Cs 1.9736330327847635 10.425294339639288 8.34518962796509
Cs 10.469336403306407 15.74773698866198 9.457485963020202
Cs 5.6282628282078395 13.974662868920392 9.407368464210485
Cs 12.549482429975154 4.047700868580381 9.036608126353554
Cs 7.7236375805430795 2.50967175411308 8.8904662007828
Cs 8.52684289531745 11.850558474907434 13.334700315948266
Cs 13.557444094922992 12.05286863841744 12.005701246458244
Cs 10.994929995718447 6.961101116067993 13.180506714106118
Cs 5.268744854881599 7.183536363371554 11.28396699670858
Cs 7.430992411312305 11.36516024776277 5.289112161797602
Cs 13.146529415690523 11.413201479968068 6.862653064845515
Cs 9.928016787534384 6.535265398351435 4.990831565462684
Cs 4.847949103760472 6.275740567171458 6.279371403515681
