12
Energy = -7.48581673 eV
Cs 13.312071916801242 16.084515901781074 13.27857798756361
Cs 9.746091532026394 17.601046119060342 16.527092815162785
Cs 15.083201049048009 20.1967220944251 16.20727895418156
Cs 18.269153139689497 16.098045871978016 14.812381238004702
Cs 12.000269958091485 19.041532074986637 0.4888605013921781
Cs 14.824329070989698 15.206168474848422 18.64530146913353
Cs 0.25326408777652076 20.20039418887497 17.000078285479898
Cs 20.21278389936657 15.3408105627359 19.678456356484872
Cs 2.9715499140101573 15.760333728044396 15.198815331500525
Cs 17.20706593411149 19.54978687433435 0.4851015619763941
Cs 1.6700342663908236 19.66106941752261 1.930637537917689
Cs 5.272243399613215 18.054115940481502 19.129703153895537
