12
Energy = -7.33982374 eV
Cs 15.61890521430335 18.7924646217711 10.55048343794674
Cs 15.266816303599947 14.167172108774826 12.496967465506756
Cs 16.32236375779624 13.473851343492635 17.650971184838436
Cs 19.49202090448626 16.94148087507311 14.02929462882873
Cs 18.47680182719663 1.811442967050307 12.904479581628852
Cs 15.400378288608058 18.751162718560582 16.4448842805115
Cs 20.205079507908472 0.5197040440222856 17.692237280345132
Cs 0.11506626403205784 16.05527914542464 19.26812956360975
Cs 13.247091028779135 16.532751253365248 0.14928207846799058
Cs 17.310982292169477 13.86384678182948 2.366533732388902
Cs 17.193450092224552 19.62561024878023 1.2790760677426327
Cs 15.291029963817271 17.284627373463074 5.690039987553211
