19
Energy = -12.75383332 eV
Cs 19.060478272368837 18.37674144418686 11.294306898303253
Cs 12.80476793781194 12.24580856997756 13.100499953075271
Cs 14.01476268949117 17.41546241044271 12.536496350788594
Cs 17.979550556668407 13.506950383145917 13.072514922776858
Cs 8.982945391018424 15.808836110589024 15.394321957741928
Cs 16.01925339580135 2.7423929426157647 13.860731170871443
Cs 3.2470871964694457 15.928719449432792 14.565019203813804
Cs 1.368593469686551 1.3563683609438328 15.65109320626758
Cs 16.352858687996328 8.562495285137192 16.06174403603575
Cs 12.127272727210606 0.28558252402590467 16.608476477402693
Cs 17.516580489119548 17.616224504910118 16.952806181641694
Cs 0.41094830079335837 12.375421012504075 17.57912596570969
Cs 14.0436596765641 14.025059500931508 17.542316708992406
Cs 1.3304367619638722 2.0154411228297575 1.10622213330033
Cs 16.07794036801832 2.8683876270024666 19.200110310045616
Cs 2.31325533047021 16.633086043051332 0.3966062661161095
Cs 13.77993534476277 18.01304190328269 1.5168443849496962
Cs 17.466748081984225 14.306013985625016 2.0468963531553763
Cs 18.105705123598035 18.920746621163396 4.516647320809829
