17
Energy = -11.09492796 eV
Cs 15.848689431119318 16.76005620802231 10.86583307228796
Cs 15.546284520568147 11.670718699395229 13.024815244624813
Cs 1.360863973550821 13.816445054708588 11.949773739014677
Cs 1.5384614399673946 -0.030381989148858018 13.448471626248796
Cs 11.743712664426765 0.5666594780457016 12.527694217306133
Cs 11.29124256992049 14.595389988939875 14.743178997639586
Cs 16.013706507469443 2.671247293787825 14.832210230288778
Cs 0.8114374167247683 0.27241675658007425 18.64315582506331
Cs 16.347015843167032 16.096866365337714 16.083655221530165
Cs 11.559105036740258 0.5287820662139405 17.71599685623421
Cs 4.443618758784859 15.181110009968435 16.434226378582295
Cs 0.8557353055348532 10.753275818906202 16.236384777514882
Cs 10.456973431493184 14.753126335794414 1.0556401310124366
Cs 15.349469633575174 3.2324498343155126 1.1099251097206182
Cs 14.625007030685168 11.698352893682067 18.24963551909438
Cs 0.5396593507777968 13.973375570578504 1.4296860187524176
Cs 15.097489936085948 16.888582465463344 2.6539190182273433
