16
Energy = -10.40764145 eV
Cs 1.8050804392255557 1.9408800904240855 14.518588578267467
Cs 16.86917984281223 0.8322513739907914 11.651412541303769
Cs 4.597779444917917 16.905158067137783 16.59749538262051
Cs 18.52127661835414 16.85181751975451 15.326184466767756
Cs 16.58433211199809 4.321953437775263 16.195053177364382
Cs 0.25932539999797094 0.13476375595523293 -0.01597006675974446
Cs 18.268094304890862 11.488586577192994 15.433969575978399
Cs 1.42080627081648 13.81506839931858 3.1361227463533325E-4
Cs 14.377804835410682 14.946859187465087 13.15357198142392
Cs 14.58268131293741 0.9234591958514323 0.37409132982485366
Cs 16.749789352722267 10.580288585828521 1.0919902617361859
Cs 17.01155886948178 15.488692728759055 3.452734462057649
Cs 13.141092622405157 10.641194110070343 16.375254494708038
Cs 12.847147620478738 0.4108960147726353 14.944496391962312
Cs 14.740468251950787 15.19176569405093 18.372107449083348
Cs 9.696288413354399 15.378224734679295 16.242455943618708
