11
Energy = -6.80338322 eV
Cs -0.9134453114295759 1.7988139358931563 1.8499416804875326
Cs 0.01854652286545677 0.26058893419444434 8.07907696335681
Cs 0.6278898582132537 15.54263369023857 3.280720386015999
Cs 18.196490200405414 0.26608352599099533 14.788194898423175
Cs 0.22524056235425607 13.847287095142175 16.502309206419813
Cs 14.13350138575043 0.3681707109859296 11.530900212529334
Cs 17.276375208003763 14.382866038681335 10.933377719820871
Cs 14.251185975076371 -1.349638617479994 5.6425766952785645
Cs 13.620902542307219 0.01832672086262764 17.280139627030735
Cs 13.609861531218304 13.986495386401119 14.500858459955381
Cs 14.386229004328571 13.74144528335993 1.4602079568387536
