18
Energy = -11.5118311 eV
Cs 17.316580224812267 15.063018747468503 15.61830650866429
Cs 3.5589944513372735 12.278764147816084 20.055126587897536
Cs 1.9827902567216507 15.21968429002318 16.233023827734755
Cs 19.272276973044832 13.493909809117017 20.292778624621352
Cs 6.87257151430871 16.397532342266075 18.755396175484172
Cs 20.204805122961638 18.874497793934083 13.509213724828324
Cs 15.36055223095102 20.175249872733932 15.472103956659398
Cs 14.542745505814366 16.78136641816112 19.933084504809813
Cs 2.4970776481775703 16.91005976072227 1.2007009924396659
Cs 19.43481974081423 18.4969925969113 18.745921446326403
Cs 18.515507186389023 18.10230444074888 2.894394251475824
Cs 10.873259319357434 20.575651462506244 18.846111662861404
Cs 3.425007268046126 20.35001234550237 17.575216005433322
Cs 0.7890880902575252 0.9051087315615344 0.8120592404995627
Cs 11.509862632586998 4.044246561954226 0.6436644552668093
Cs 15.978706726461981 0.8999463423572455 0.38583864224831005
Cs 19.522734480192515 2.4928776637648666 17.187225849781218
Cs 14.400528894175668 3.9266091611177054 17.429377994311864
