26
Energy = -18.1370993 eV
Cs 13.00231779749777 17.921501088605808 2.3403377207158664
Cs 15.07377957628563 14.377856535701058 19.514731651940767
Cs 18.345618126687636 16.605038004882033 2.3234451742456423
Cs 11.0621242878906 18.28875157414908 18.080059087686195
Cs 10.511788698442304 1.5366692426033948 1.1787996653727504
Cs 16.10247996762663 20.001821226549033 18.747934458200948
Cs 20.0219980722397 11.706263972999169 20.405004027309474
Cs 14.43041001542988 16.088427454619804 14.42090364471408
Cs 11.528557894901365 3.625858662989741 17.296736977359533
Cs 16.966039405302247 0.7785041447115011 3.3868984844061516
Cs 15.210989757350294 4.54167095735073 0.14246242827095393
Cs 13.201643857506179 0.2458173805551077 13.894171365107894
Cs 15.46117087973942 9.117363022265687 17.558222263363284
Cs 17.140515317048603 3.8809268972891564 15.991292395876338
Cs 2.0528198579230374 19.872825284588664 2.982946226968292
Cs 2.591689951767838 14.562931715880188 2.215978047774781
Cs 20.26867463790097 2.745260635753832 -0.2650254492923217
Cs 19.107511850231266 14.68136479323055 16.127459532596493
Cs 0.5278479833369386 18.342083550034125 18.991241574254392
Cs 18.440074804445 19.753567148895694 13.78106397327407
Cs 6.9986089594941925 17.67398121419053 1.0441565165913973
Cs 5.294009920044473 1.821529280301939 -0.6538982000631618
Cs 1.8030493743958738 1.7396233584260639 15.852214540244589
Cs 3.9289455519978875 14.559347382800452 18.0594492782575
Cs 2.33114409125247 17.417205865900648 13.781505690952054
Cs 6.506146123562113 19.380592804300328 16.097596483841922
