22
Energy = -14.54947748 eV
Cs 13.579114057800085 14.560877704726375 0.37152808893969724
Cs 13.340943116834218 20.027389817015337 0.6472646859751671
Cs 14.679605742827901 17.754287466668067 17.597204838743632
Cs 17.35757855696117 16.419393836460166 13.222678511704075
Cs 17.61374744423992 12.004834243096274 19.738870121537058
Cs 17.89583930121736 17.35529989515248 1.3268318784165605
Cs 17.914604589977056 0.8611811147279848 19.07413700580993
Cs 18.135987715582317 0.11964575556980145 13.62258787642781
Cs 19.63048218702944 17.335811888474776 17.87321141084239
Cs 1.1235813873572296 9.186971863214696 17.986905555389033
Cs 17.144728727086207 1.4763405807513847 2.848690607311858
Cs 0.9289289180622 14.141181746720282 0.2440194591043162
Cs -0.6701751890870838 12.94608415705982 15.217461083108242
Cs 18.277475894069266 5.894918756937403 -0.5283415017424924
Cs -0.2846390340834299 19.638906528290722 4.692108684965915
Cs 20.410806708727772 4.559586320876841 15.507451388401972
Cs 3.3033057077227412 16.28760268875929 17.102848894298674
Cs 1.1763523640615168 20.424773227841886 21.042976760284166
Cs 1.5976804754348548 -0.2625313897116876 15.6066509452644
Cs 0.48744642567144364 3.5871524817155676 2.986482654225758
Cs 2.261896042691023 4.266946319109256 19.61044157888062
Cs 0.40205658681093487 9.07060665242164 1.8652511279900177
