26
Energy = -18.19383794 eV
Cs 5.895527230044171 1.9037245798295508 17.59991002239299
Cs 5.100995359518235 18.38572266370159 14.270620879443602
Cs 4.614594278800424 17.202352209641393 -0.26044415815444194
Cs 1.6593079512580033 2.1727670214368726 14.044556102850365
Cs 2.9245332803170174 1.921743753936779 1.3870815639609866
Cs 20.0669704898927 5.088365372046646 18.745070920339245
Cs 0.27383513623682615 19.77507813609161 18.058393748898062
Cs 0.0017078935289462482 17.593502374435076 2.7989397187442426
Cs 19.52760210668454 17.984218409757954 12.765660002567655
Cs 2.041469287660614 14.530616121150365 16.07768915590447
Cs 17.994993827239792 1.7943605264179074 1.7749848146434701
Cs 16.727487225886026 1.5284844680451046 14.738524032991286
Cs 1.4014520580319751 12.783793614592021 0.7546524586379187
Cs 17.985611858859173 15.673711390743364 18.625761208994664
Cs 17.731759639222762 13.278207820287173 13.64203032369162
Cs 13.755348989919188 1.963209337463511 19.005154685580568
Cs 16.85977600549953 13.40651139688544 2.792465562037626
Cs 14.134610826185423 17.50558059290378 16.70705844657996
Cs 14.686069814310532 18.247863408807 2.028490594031088
Cs 17.858300132041308 10.459222612482552 18.240267974389692
Cs 10.33165770535456 0.0029738317723944363 14.667700848833679
Cs 13.285125048124078 11.842740436162345 15.471172756149958
Cs 14.064472008529368 16.9905903641791 11.788262579600865
Cs 9.580101061680347 19.031625702723677 20.05484142283964
Cs 12.2505103090826 14.154507154176844 20.1608658953625
Cs 9.03172274255634 15.175435108366921 15.834303954186135
