22
Energy = -15.01676738 eV
Cs 11.205684618623126 10.815202217935765 13.826475688258235
Cs 11.145606601527437 18.828635685875845 18.18014522812824
Cs 11.971179387288691 16.273293757224724 13.45651643023795
Cs 11.492658694972613 13.558748296490382 18.077342781115945
Cs 14.785139337953597 1.2241465957099615 14.802556059925882
Cs 15.075955878221356 1.9017839037086783 0.7542523276681717
Cs 14.705537678075046 16.10374662686944 1.7144229272778246
Cs 16.434748245019037 17.67802954897484 10.652160214505441
Cs 16.29962687526946 16.110131510274076 16.411807874131252
Cs 16.132865149623406 12.32953679571809 13.282937254894009
Cs 18.18260708090317 4.956044369542975 16.848458328983185
Cs 0.3768775788363811 0.7128228109693127 13.659285272199623
Cs 19.035986871284138 19.17679760404369 18.624942702393408
Cs 16.142894987948292 11.206231364245685 19.00930934278872
Cs 0.483537469531052 3.7088266137567816 2.0214599966471845
Cs 0.9440172674049321 15.326846847461677 12.610666592646604
Cs 18.21169380301919 18.878147532159037 4.668335819071471
Cs 3.563463165851106 2.4791886576488316 17.652422157680665
Cs 0.8694992926027331 12.02475757707619 16.621317533003147
Cs 0.27487567565986337 14.651696766285463 1.4668519654882783
Cs 3.834841833072446 16.635249509356978 16.86436114547071
Cs 3.47522568660159 18.93822955790783 2.0986239931096007
