20
Energy = -13.64839423 eV
Cs 1.154482588042001 0.6040761162892581 12.58112562216662
Cs 14.554210397710934 -0.016868700382931263 12.625057913277692
Cs 16.98791762110539 4.61927073763934 13.582641575661818
Cs 7.320414506968173 1.036022838553146 15.536212415285803
Cs 16.89031079023725 15.298817390937973 15.339006463255147
Cs 2.9464922055957334 4.431646162032083 16.401289385373225
Cs 12.796740779716702 2.300454135661943 17.003979205460944
Cs 3.0232185715766633 16.366603937344554 16.36714931924666
Cs 18.088632805998156 1.2283054864423628 17.39993173631785
Cs 0.6852790977304656 11.438435765054505 -0.4188452370647415
Cs 18.33461551809048 16.73098852433265 1.6152644569155086
Cs 15.37913655292903 2.0397218648561877 3.1277174773792593
Cs 4.608551679902262 0.9101682943626408 1.030361694493597
Cs 1.2490896785005485 4.215499888328782 3.1112446970245022
Cs 17.26444602810639 6.405752230008781 18.62611362910502
Cs 4.3378488543063245 14.700743723771085 2.1520119819835517
Cs 0.18279071475636308 13.124010465362419 5.101723979773155
Cs 16.319716707836214 16.987864622831825 7.07984230135136
Cs 2.147307784843583 18.531284770171663 5.511532443905899
Cs 17.67746863524528 2.9240519795575164 8.175310458284395
