28
Energy = -19.30321791 eV
Cs 2.9705416447106776 2.6832979449433205 19.131195190033566
Cs 0.11069740000985223 3.4985539735007216 14.48761394587353
Cs 5.426380290371438 3.616440713237091 14.35120153779659
Cs 1.1519430351731075 1.906755411494863 3.6298741289800205
Cs 18.20176579422586 19.807719374721124 11.664849770617318
Cs 2.4492140397049496 0.5263567554049781 10.612154234383292
Cs 18.488830557971163 3.4789350262807086 20.05630137778626
Cs 2.9552946776786357 18.473789714217872 0.5192626865556541
Cs 15.647567534702194 2.3545893038963293 15.541313520947762
Cs 4.026032462505729 19.391414199433346 15.650944618079954
Cs 14.107101587742466 -0.004317024844191307 20.305750308076394
Cs 16.665666737187582 3.4504079854617125 4.348884658906864
Cs 18.22454861041601 19.013016702345467 2.1987852403692276
Cs 19.42739718640698 19.28685880398064 17.31223969084254
Cs 1.8053424328151604 15.946097421143712 12.132452335352534
Cs 1.7971649687908489 14.634544198411751 17.46539200490931
Cs 9.94391957124728 1.1490328853979053 16.042167761590697
Cs 14.272703310140885 19.934044434040946 5.999901172789049
Cs 20.171449829124597 14.23829859239296 1.5747294933933764
Cs 13.971657491186008 18.21895098619757 14.887762901566553
Cs 16.730296107398676 15.14616027008574 5.845346054142969
Cs 17.96269191584946 14.62080876966873 14.246461346560352
Cs 10.08139748541899 17.19201386527065 18.911046013792973
Cs 0.8994347135571 10.607184412805305 13.74216425754101
Cs 15.923361855645489 15.504720911648784 19.156252074797663
Cs 18.767872113890537 10.611286695408658 18.378461185597306
Cs 15.79181483454834 11.260695819755133 2.192715253831232
Cs 12.725231616858554 16.065515124150068 2.598545701961389
