24
Energy = -16.37022457 eV
Cs 18.549110247136642 16.99763334309352 6.992674113068904
Cs 16.46265854397511 -0.03575101804804998 2.0885546717398253
Cs 19.336434678935735 4.553193030327668 1.4351357911394136
Cs 0.7915389264426924 -0.12966321007896306 3.5065097117109905
Cs 13.606252752998563 16.456050673715676 2.4838527089182905
Cs 5.304566905087441 18.77803881051542 0.38549214912092405
Cs 10.761169216537981 0.09287947184968594 0.6555586746738971
Cs 1.3458630337421422 15.427980973933147 2.2422388909994346
Cs 17.65201606810298 12.832098603781642 4.152104760573566
Cs 15.306869898997627 3.1137382370115287 18.576762561835956
Cs 3.1293483141138267 2.607241123062942 20.12406983642871
Cs 20.22421500538203 4.896775124193056 16.96787036470857
Cs 17.122295996577712 0.9203426331868714 13.766146236172249
Cs -0.27960766321380565 10.24051401095863 0.1110737315948509
Cs -1.0109447998259582 -0.5261272392035257 18.43215229883418
Cs 18.02090968328127 6.465934294996439 12.574242956337875
Cs 14.024387042541475 18.904103390866293 17.77249471143953
Cs 1.5379447813558151 15.524025653760127 17.36157064773981
Cs 18.941472736950956 10.895789068818772 15.655393331797901
Cs 17.717850884953705 15.41687474767819 20.09711886000972
Cs 16.741236608396235 15.809601427824196 14.774715665471394
Cs 19.43699835071629 1.3212717626583184 8.82399522422664
Cs 0.1474697911791843 17.902494873585447 12.457571029177632
Cs 18.672333570932302 12.845710905005943 10.617331726374188
