22
Energy = -14.86734042 eV
Cs 2.1341452390547637 14.580946942211892 1.3719988867021997
Cs 5.424744928020608 15.829066116482192 17.12874692576418
Cs 0.23977948951309283 12.590603626613202 16.831281641533657
Cs 16.986556520705022 13.838562628638368 1.2817454866389892
Cs 3.406499173885227 -0.15401617578902452 0.8901072706393582
Cs 1.8833874638521737 16.47237467626457 13.204288146746372
Cs 18.757554149882896 18.216010447899205 3.404254437136402
Cs 19.9947369102808 17.631729668241352 18.100232811362197
Cs 14.971138187358052 11.707645065006464 17.218528545418863
Cs 3.2203609615287436 0.9803885882275598 15.780358526919509
Cs 16.997641403623287 14.827387212114221 13.082662091764217
Cs 11.83941352433293 14.975611465864736 0.13398850906143445
Cs 10.890009654067738 14.381781986457623 15.05799264381892
Cs 15.309835602769239 17.236337081127473 17.134072404875358
Cs -0.700012031309885 3.1026797952074956 3.21023269578652
Cs 3.2663467086962896 4.722807645084779 -0.44701413665673745
Cs 14.470200054869117 0.011084106759881421 1.0101754898750464
Cs 18.607634307144362 2.406447524115145 18.44470353785927
Cs 18.36981277261297 0.2627819715615348 13.458515047267026
Cs 13.268907053636942 18.761929379583393 12.613278118751289
Cs 10.046860699769837 19.370815340696275 17.600499425251744
Cs 14.082744966350033 2.48743808328309 16.101589510950998
