24
Energy = -16.09268996 eV
Cs 0.38136025374563765 3.7444763437576607 14.186248092785485
Cs 3.355205317032904 0.24089461610224328 11.99279416595101
Cs 18.17759188725367 20.33689042935849 12.374742153827915
Cs 13.138045337025739 18.93616011000704 13.946971192402414
Cs 6.711282294176589 18.659190761198357 15.459430570230877
Cs 1.034175726269236 16.50924088789206 13.919916047903657
Cs 16.72348782035277 15.201117028054217 13.014480953778136
Cs -0.9055973146344551 4.367814724482672 19.05873534435978
Cs 1.8265835304728932 20.332317613413792 17.528848960341968
Cs 17.41024950403825 -1.2910560535877746 17.503302914082102
Cs 11.332559188924783 19.3277888064651 18.680794599600034
Cs 17.241622831628955 6.973182107511003 2.3048653510249126
Cs 3.139478247363016 14.931870390086369 18.27860204240035
Cs 19.056892220431536 12.520496902687189 16.861552815483613
Cs 15.069274377764323 2.1925450881615784 0.5257150031576951
Cs 20.343920738629045 0.49775320482694113 2.069343935314863
Cs 14.416157007333684 14.821277399286192 17.89294648572217
Cs 5.413046515814751 18.64591505896137 0.9137098012723889
Cs 10.544461307980255 19.862134799243513 3.100985439076821
Cs 0.3661825297420978 10.687211424691466 0.645021110570266
Cs 15.454784418017592 17.863044525823785 1.863103840935301
Cs -0.41537203930961897 15.968855776340613 1.1340427131326443
Cs 15.83307924368236 12.232454269531576 1.919755467007537
Cs 10.931280917623965 14.838948230625332 1.4038428609980382
