21
Energy = -14.0591864 eV
Cs 1.5174925616988861 0.9554900108356392 16.201766017124708
Cs 0.6825093711018966 15.508912571612814 15.932060159556253
Cs 2.9149856337586435 17.36878128273324 0.34857764044637574
Cs 18.454368625568936 5.093068229674374 18.131001198604714
Cs 17.314368634035052 3.04939283191856 13.431122895468112
Cs 18.671062715868377 18.395913270289217 11.785814220456473
Cs 0.37094209871656414 1.6200988381269879 1.6270964299733401
Cs 3.1475220667074395 10.66322058705328 15.252853395622896
Cs 1.6052986947552457 12.289157758814834 0.13985708397304963
Cs 0.12628410230809894 13.016424379274927 11.37637018854891
Cs 13.429160047684613 3.457928867662797 16.904249413444614
Cs 16.760435933434927 18.717590955281672 17.597296601746798
Cs 13.277953446573443 19.105839577007888 13.717956524091186
Cs 14.957846972271582 1.363701997880378 1.5399349934255588
Cs 18.294366449143077 17.019499222314575 3.444395402600163
Cs 15.710234929547646 14.41022185683754 13.866946004912945
Cs 17.85067763088069 9.970394282048854 15.916603040399462
Cs 16.71688040429129 13.844444012554552 19.381098865567058
Cs 10.387150983546325 19.419181402143636 18.616467818512927
Cs 11.901429305216913 14.840105242089347 17.17871583651149
Cs 13.020512627804504 16.365124966040003 2.1981674323490275
