25
Energy = -17.10098183 eV
Cs 2.889938848650483 13.062895101343786 14.327545842899267
Cs 2.583653860475985 11.461968004876853 19.144912689572394
Cs 4.836906154589472 16.929425186200106 18.348041373212638
Cs 19.148611352610786 10.647353081929046 15.828590071928561
Cs 2.5974943276794478 17.953399101581617 13.17130009197041
Cs 18.483005669596718 15.384252927138718 13.15487796593433
Cs 2.062908266260453 15.219182232081529 1.949864643573454
Cs 20.56751463016254 16.489700200829038 17.70875101659911
Cs 0.7845234191254652 20.062934413079272 1.0378563052346745
Cs 2.327024473166892 0.887299341966054 16.806509414227847
Cs 18.63797377246633 12.490917259686201 0.24692259180771983
Cs 18.118561419165168 17.17929824759139 3.914123962131909
Cs 14.971496404615726 13.580594423711547 17.179062035422437
Cs 14.030394278081081 14.188957591765062 1.591414615662332
Cs 19.03422313078611 0.03490099247171228 13.533861745333361
Cs 16.4184440628507 18.11246948986008 20.05539829504986
Cs 18.32619094392938 1.6848084827352823 18.503340539731962
Cs 14.590308952432022 18.889864636633554 15.266608133423048
Cs 17.053607678290017 1.811813489648255 2.7378549458354393
Cs 20.077021693746563 5.461064937831787 15.255153661386753
Cs 12.902455304196959 19.289635755859763 3.111094735253546
Cs 10.957974837432996 17.329103107964073 19.138913876318398
Cs 14.87798169006534 3.6984695883764385 15.214180528621505
Cs 13.15044558227423 1.973161598902485 20.039300405104928
Cs 15.89562925362437 7.056499511691606 19.26019738403577
