29
Energy = -20.56912845 eV
Cs 19.971304844452366 0.6343020680769885 11.381534293056117
Cs 4.83931926460052 0.6170721853617508 15.049921452704288
Cs 19.961535531977717 4.025521776804057 16.666321041485872
Cs 15.527088316071223 3.933278638992235 13.388153281102413
Cs 4.297918542310366 2.778903395364708 19.805912421463034
Cs 14.40585636881596 19.714337223394 9.616409119520375
Cs 18.440483037890463 15.782525422315809 10.129497140676575
Cs 1.8984091118712598 16.43372479128608 14.012296314967028
Cs 3.1940307280350138 19.05967122270913 3.029157828450829
Cs 16.791316366821935 19.238354316990986 14.908055873408847
Cs 5.708818786755495 16.902946065151987 18.809475727882436
Cs 0.6510840895148161 19.051086240827548 18.563756786700026
Cs 18.823315073234756 2.6416956224455346 1.6305145138816333
Cs 14.322858075240845 3.531183232735046 18.604745878417727
Cs 14.034126813271088 1.6435641975860145 4.291584401727513
Cs 3.0175945230738654 12.380107088384964 17.308473211118386
Cs 18.05381883692165 14.658782654998495 17.435450032694096
Cs 11.3466363725703 19.96654037737233 15.409586693426983
Cs 18.58013874004361 11.47339389880469 13.62681491283586
Cs 15.244851147809955 18.690582676431017 19.95832028642106
Cs 13.828970104681352 15.101395383474784 13.8107550820893
Cs 9.587289882392781 0.3874854050852429 0.3852675638461267
Cs 17.81622955672988 17.69807507322898 4.663814396024875
Cs 0.9833203131988214 14.294216158803042 1.6287744000575595
Cs 12.01774031093558 17.04303225828787 3.729450478100869
Cs 19.568850264139577 9.208193327407127 19.44051240760492
Cs 14.515994832937515 10.464575450655621 17.055214288610642
Cs 11.24488930601802 15.141150779760174 18.68477518729107
Cs 15.780202967597592 13.27824182094043 1.6231128060611681
