26
Energy = -18.06474031 eV
Cs 19.438252039166116 10.832587979770214 1.9462245238612033
Cs 19.98967422447911 17.011671964607146 6.6564569196407835
Cs 1.8148834547707373 16.3413374709114 1.2909991448803673
Cs 17.518153667468418 16.071467164913155 1.7070177066202075
Cs -0.8142211975832399 13.479194911323217 18.27042070667791
Cs 17.784782935309714 2.090366202197868 7.705311587442429
Cs -0.23721402622628998 0.2659865287751578 3.243934766077156
Cs 15.566193915941678 0.023799431481354365 3.1497627541500206
Cs 14.881268936132859 12.780230905262432 18.716229459260045
Cs 2.593248896622893 0.6585948800565478 19.735533122082582
Cs 17.820356423680014 5.371045374857497 3.3802159750021157
Cs 1.5739844686928532 9.532841214105876 16.105508297019057
Cs 4.421753769218701 16.023060902966467 17.282765189433643
Cs 17.61315321674657 7.846157442207477 18.298954700051535
Cs 3.9626135806073073 4.921929669347298 16.953766161445934
Cs 14.374391480948464 18.58705467089701 19.21718950968979
Cs 19.64333206187335 18.57657343865008 17.648884927357056
Cs 1.0514014823883135 6.147500582010916 0.21652434086742461
Cs 10.199118610339848 15.951168096221627 17.237698205509357
Cs 2.7403359491973864 -0.40442555076426934 14.512765700922875
Cs 0.6636716429579139 15.179887547349903 13.328103484439147
Cs 18.02711903210342 2.365079211403633 19.729242346874162
Cs 15.979276249955323 16.053647700143998 14.764683708506379
Cs 19.220462749361563 19.527337990292885 11.617410258856125
Cs 20.114057729323665 3.9038778610159457 15.028674415470276
Cs 15.803370083574697 0.7805824683223594 14.911576124276117
