24
Energy = -16.49583587 eV
Cs 15.385409389012572 17.745393056461914 1.694858854665811
Cs 14.238600110507004 13.15070966380108 19.603243404175196
Cs 14.751117142178751 14.343616588066737 14.476802209922715
Cs 1.4543597583476822 1.8345273017841905 1.6010641070543357
Cs 13.153472235235386 1.1682493000207852 20.94532022491593
Cs 20.267820290822687 18.132210393460422 2.6441795838874316
Cs 16.706851693602573 9.610293424350147 16.06686112413993
Cs 20.545755770060435 6.452138666743086 20.932943108394117
Cs 18.547009049692527 0.12266431594910786 18.932726111543886
Cs 14.49791530968713 2.243685381548093 15.934517461885802
Cs 18.40533119942872 11.539007739231836 1.0611556746706852
Cs 19.85859067411204 14.23129925321612 13.568055628608274
Cs 16.978784678756398 19.091689845802584 13.556778429212372
Cs 3.1179036957870685 15.017479495349514 16.336335294875482
Cs 19.095841737265093 4.648722903139367 15.538445243674722
Cs 13.56816380845931 18.277133152512935 17.656294366018447
Cs 0.801137207301708 19.61900292092187 14.616039010009287
Cs 15.399769043949789 6.077111987721429 19.89506534159402
Cs 0.6435098866174035 10.393574743187463 17.49605550504619
Cs 2.7563164395009347 18.946378686113196 19.61494091605646
Cs 18.828486501755677 16.04180953734279 18.42282390098448
Cs 17.479465389112192 2.2144962625044133 2.5054763431248226
Cs 1.937442411126796 14.062251464859441 0.513796591005898
Cs 2.3638084137935915 2.8996828282925122 17.617720182480856
