20
Energy = -13.30288509 eV
Cs 13.61604413845659 4.698732097882007 3.189907535593738
Cs 8.505076351949079 0.13845971976286436 15.811618678057028
Cs 3.9168464902813525 2.834850696700648 17.838658644840564
Cs 15.947833551274206 9.075226141116383 0.28457248582434574
Cs 9.856581194673126 15.186703229076903 2.6415313229526807
Cs 4.373148268241902 14.5776960182638 1.835676803190722
Cs 17.515488086416763 7.556367053728678 5.018598965615519
Cs 1.8891707070894201 -0.398045183214884 2.029539832376399
Cs 13.260175811628482 3.382768679956197 17.724615206192468
Cs 18.104259154400694 1.9074227807042055 5.940095320603499
Cs 7.465011746191733 0.12555542247775137 1.3495715072364107
Cs 18.104721073909218 0.23936318730084455 17.16555699177423
Cs 15.251874557792336 19.18987692725685 2.046762316969394
Cs 17.981833971978936 14.604474216123805 0.01568657525976949
Cs 18.783252679346408 4.254040289061468 1.2240519120732556
Cs 3.3785376920823165 17.028149795715606 16.647465625040173
Cs 17.820012600642126 5.665309279573979 16.001479891045538
Cs 12.716581348349527 16.63604501670552 17.95375313757572
Cs 7.837267112235272 14.48334545553384 17.29120559430832
Cs 18.664846084568573 15.953919944728286 5.129912421925397
