26
Energy = -18.02036916 eV
Cs 13.699632123810844 19.688728047189272 3.310217400015751
Cs 15.492582255590799 15.117419821676089 6.228616851619314
Cs 10.642746570308296 18.2850201008482 19.06689136758358
Cs 11.431803609633954 14.73638678470471 2.538692838774852
Cs 19.93890722515131 18.655675674285398 4.594510554571339
Cs 18.2846376935968 1.4054187531111482 0.6268636236002793
Cs 13.95937476715531 1.8233069077644035 18.54109819688277
Cs 13.16513585724821 13.764156850667224 17.63178239153199
Cs 16.344806946050287 16.352796023567304 0.8972515399450395
Cs 14.975929181310162 11.03978248726471 1.662933571210909
Cs 12.814714816534755 18.418588882538618 13.978694389685248
Cs 19.524505122554814 12.972083863328857 3.187869426096187
Cs 16.896909825391873 17.662645869975506 16.654849071600335
Cs 16.516625015325776 2.5226861957713305 14.212375001844412
Cs 16.37133780063546 14.003834610607134 12.824695163316427
Cs 18.428779918740183 12.197257237029639 17.781203681640694
Cs 0.09509452919173032 5.132621083703301 17.114814026115372
Cs 1.2522798550866272 16.371429509289538 19.941388508982904
Cs 0.54154371938208 -0.01537017875521978 16.165372613246728
Cs 3.056934127579177 1.0235864904640486 0.38267530995973376
Cs 0.7684358010173316 3.435725839600351 11.931654547395357
Cs 18.421444292518707 18.788030151386035 11.030793329768828
Cs 1.1330912009462748 15.228893794895386 14.472761849612464
Cs 4.8313388280805825 2.8061309224260347 15.477917498474088
Cs 5.474943245635634 17.928970450325554 16.84334196562499
Cs 3.5554273719288916 19.294969631686996 11.798167018154617
