22
Energy = -14.77357678 eV
Cs 7.982015664427622 19.932457341406057 18.734666015656643
Cs -0.4034769229232469 15.429843661989848 2.779919277465215
Cs 3.6466114533770035 1.9975188484058393 18.093052974654658
Cs 3.0522844328883605 19.12470255896331 0.1493328256631068
Cs 3.975039301518979 17.789292555994965 15.938232775022874
Cs -0.4132040254149399 20.67262945625772 15.992918492639259
Cs 0.5335784836084857 20.179803643563314 4.790019306307584
Cs 18.323818116868544 2.1001547794458055 7.177128848742348
Cs 0.7858472518893324 2.803032792600608 1.335622804941905
Cs 20.15743362224338 4.653376996698876 17.90391903079823
Cs 17.960256890990653 19.81216425022386 11.432829903180409
Cs 19.765574645570588 16.092120831157402 7.962558810155939
Cs 20.84624407174734 15.306583233286464 13.408475243256131
Cs 18.72600122743396 -0.7897484987426898 -0.514551358293939
Cs 16.464577596089295 17.505745519223463 16.087400696289148
Cs -0.010701451618001252 15.798660830887002 18.70991571613876
Cs 19.223455954731648 3.593955904747752 12.609816360078003
Cs 16.5985991550821 18.87061132284422 4.1068372420019665
Cs 15.92961055448525 1.8447904850475931 16.45197853725951
Cs 16.32942509257667 15.408532039859487 -0.14038155712281544
Cs 18.05886470952344 12.102456508648691 16.992548919522278
Cs 13.374705446121778 20.05166856295872 19.969925021904803
