22
Energy = -14.53966901 eV
Cs 16.5793322677002 17.657435028804954 19.691807099562208
Cs 15.698196674903663 12.508134203866025 1.4058986786301302
Cs 4.7570386751967275 0.4908344005145389 17.840807973081265
Cs 17.995361626445284 16.664907727315303 4.1298838192696135
Cs 12.704309197435274 16.370673268830007 2.945627034491242
Cs 0.5003965281271481 19.839132488899004 0.8934503454236876
Cs 11.95817301029191 0.5055431477287178 0.6537179881851958
Cs 17.242882577523392 2.3148818957814394 18.690326639589795
Cs 5.268587593153512 5.651010841700749 16.722970182181623
Cs 5.539361003105996 0.13074567645890203 2.7249929049155455
Cs 0.24752071142890344 18.03126172356038 16.484865967043703
Cs 7.869933911958045 3.860891546043932 0.23933412310929303
Cs 5.030528171027477 16.46202864428144 19.965843520782613
Cs 1.9404048640920335 4.097773395252816 0.010043805976802715
Cs 12.873008354411889 20.24262377426113 16.358888443359668
Cs 15.80617778080553 16.480373862263402 14.300717524666338
Cs 0.7465063029015573 3.0886831317457997 15.484679630360972
Cs 17.246557150342166 12.626168334661214 17.25609653284436
Cs 2.689539497668766 16.23660767986684 4.1156555274230735
Cs 17.44219630669146 0.5463201031644987 13.416616657703473
Cs 12.090113573634046 15.326175912519496 18.29155179730644
Cs 0.2505252646283727 14.066294906988961 0.009660778366727206
