20
Energy = -13.30069915 eV
Cs 5.1190399239692645 17.373290147553913 1.3721831011809675
Cs 15.199142929384767 17.27937025055128 3.2981759253988217
Cs 13.763968945021368 5.99238461510877 16.967280088790062
Cs 14.936225062464395 14.263411058820408 18.169735106747282
Cs 18.135933029409784 16.893628545903955 14.664014793067969
Cs 2.645155520866727 6.490922795566033 17.70448810937333
Cs 5.8053939128627166 3.282765372075536 1.0930951924055248
Cs 0.5133390858126989 1.5795838584991886 2.1837169645800865
Cs 5.209827031834897 15.324331035502448 6.067949181078753
Cs 0.13166921911937593 15.907549597236248 0.9694157528775196
Cs 18.30872964600258 3.7961489370189736 15.260225016478524
Cs 2.492699762190497 6.590276284108784 3.740501129538128
Cs 2.5993811432009077 13.81433621806638 16.702594557856568
Cs 15.342401341334563 0.4426096509816036 17.980365685081438
Cs 4.287219649948173 1.4833644929045902 5.800710335850281
Cs 17.158957488704605 5.577677526299144 1.142069544418303
Cs 17.867318828572113 9.927244166680248 17.135720954905484
Cs 2.664735960759043 0.6416005538195954 16.850513465524525
Cs 3.5813195680644907 11.718871909525783 2.331767477984308
Cs 0.4752634595124855 17.202281812360624 6.147126445445095
