23
Energy = -15.82344042 eV
Cs 14.511474064281483 18.064556926545094 12.331598892698393
Cs 15.916257468570638 3.2737367979576137 13.557066420998027
Cs 19.37840214900121 0.20170606306180022 10.151808571383189
Cs 9.329316366565237 16.76894770162034 15.526792987661835
Cs 1.235801076328043 3.6975037168421894 14.532415703169345
Cs 14.254017501873333 13.431598292978768 10.147794559191045
Cs 14.260552498479424 14.14640200097013 16.18858390197474
Cs 14.84484602869603 0.5767816184278362 2.8763780509975416
Cs 18.888118244443245 18.91873856911956 15.736793841287549
Cs 4.222544706518565 18.76263356924712 14.666163737061883
Cs 18.757957162240107 14.511368576909112 13.135631556264945
Cs 2.136827018228474 1.8353357995334176 19.42644149987838
Cs 17.15050452108355 3.7399882810706875 18.873435284923
Cs 2.5777518658481027 14.142157573194428 16.985708374234196
Cs 17.435731671625256 16.738399371284192 0.007624243699404186
Cs 18.304812630003347 10.659015135820418 17.348080706873542
Cs 13.576380071716384 0.017843689611425805 17.263395343445456
Cs 11.67801982422158 16.177917987188337 1.0245337600968263
Cs 4.421028249818575 17.262260130268725 0.8252341753669543
Cs 15.232002598676322 12.369681409036756 1.9110364743323447
Cs 0.2901725234425819 -0.16717256598593117 4.281910165282536
Cs 0.678706626171517 13.7199425586339 2.585875301208119
Cs 15.909179365526207 16.0297754437011 5.875391780837174
