23
Energy = -15.88857746 eV
Cs 18.258379478994595 9.14654823053716 17.18392208528109
Cs 0.3941689724531007 13.768269908438114 13.492887831050277
Cs 14.579107174067325 11.731916807247206 14.001668076917463
Cs 2.8374313788417007 14.439220252929212 18.516215636637554
Cs 15.14433854380405 16.890660395320666 12.671257550887383
Cs 18.52595833366498 12.411814308611437 2.301177274668063
Cs 13.139823475811903 11.48585762188649 19.164761944145347
Cs 5.177654277847205 17.02599129646967 14.19147472258733
Cs 16.97102187542391 14.508485458602452 17.576636655183393
Cs 10.632670235416597 15.13442323914918 15.80523306215071
Cs 0.6687184816553494 18.78145958533682 11.314416217782194
Cs 0.22891198215622294 18.447122799739166 16.502165881045954
Cs 2.714719726710759 3.002733067689197 14.866766358315052
Cs 14.727217508939452 18.83945442157562 17.859313262090094
Cs 16.628098508238626 2.332263337662016 14.038048054972636
Cs 14.413931891380397 15.946431532860085 2.6916247916379126
Cs 4.783383906891317 0.28856678221253135 19.07809201072738
Cs 10.885376256638411 0.6787589444543637 14.72364768328417
Cs -0.0050397003307043236 17.86471253506782 2.2928311843374987
Cs 10.109903003310377 0.1570645964219128 0.5338233151808016
Cs 19.21284777135928 3.2549171716742724 19.32382008282875
Cs 15.256030832071572 1.6130926830116477 2.858952909513547
Cs 14.023154158483631 4.673489645840189 18.11901125210788
