27
Energy = -18.691862 eV
Cs 15.170360547803714 11.661303466865425 0.5395616250929258
Cs 10.781427544642964 14.809735289194176 17.656338301308836
Cs 11.292259801486248 15.804408022513094 1.939594600719314
Cs 16.605013407779325 16.838816925489645 1.8142566773645654
Cs 12.863614291166517 0.4009143676605489 2.736209052119899
Cs 13.77776258380772 17.78100238548101 13.882242857850995
Cs 20.64846420536365 12.977818659360038 0.6629875120645109
Cs 16.82810490342419 15.060113277060786 17.515919603639578
Cs 16.601423986894236 4.953873279515636 3.510899204374615
Cs 13.374790168835357 19.461550392091564 18.671340127043162
Cs 18.163417508632236 0.0020236228484569285 4.535325695132932
Cs 1.9412295592114117 17.649196733889582 2.5900811627390374
Cs 19.967458278813965 19.196674295623545 19.030069892378325
Cs 5.846294527569425 13.898387001285526 -0.2388911153264439
Cs 1.8213614082763985 14.942585292566722 16.87402325901989
Cs 19.184877864959425 17.016168373029632 13.236900231721345
Cs 17.630433089228696 0.9010403834587053 14.83628092937247
Cs 16.961510390936137 2.5806963666247293 19.86336181200399
Cs 19.550412327734357 7.690298852824583 -0.01620111090078947
Cs 7.516631201513128 19.465649508501556 2.576625996155849
Cs 1.1117653590985297 2.4731790033237093 1.9530258939795961
Cs 4.798974600845679 19.212611433236276 18.950774808691094
Cs 2.4321246669665597 20.24236072232985 14.399531074544509
Cs 1.4322485572073698 3.528494623247412 17.754075479085806
Cs 4.0697480696606245 8.44001997058867 19.345539593635603
Cs 6.615208618417429 2.5855087688669993 16.33059759944114
Cs 6.103449320276381 3.515935773074112 0.6301971457276022
