24
Energy = -16.58027844 eV
Cs 19.940781581584595 13.762972337102767 14.909557479353786
Cs -0.048807726676818985 13.711336754953564 20.276383802311862
Cs 16.458130497769854 12.450251996245985 2.8813992678912053
Cs 3.1432610880692033 16.593406072078192 16.650278599766313
Cs 3.112879975732753 17.391210305542373 1.289008591739221
Cs 15.556290022019258 13.862675275350613 18.260700904149427
Cs 20.215661529870495 15.663725790197425 4.816748472433791
Cs 16.271706540803546 16.908199860175266 13.159237418396765
Cs 0.7655279718659235 19.942322264681824 13.363437239596788
Cs 7.474726355839396 18.939049303276875 18.904724087139577
Cs 0.12207485423731447 16.077639271189387 9.981135464958506
Cs 18.775801623491876 18.416904405257583 18.252628253690578
Cs -2.7293561452391777 9.09567739349589 19.172300631167065
Cs 14.545459395585302 0.8983461573797614 14.118654334594638
Cs 2.4291921677849406 0.8953901296520966 18.90354368133851
Cs 15.544842475014946 16.203248976907968 7.5134785438749
Cs -0.6616707983475708 -0.13196686336673055 3.0805789641196757
Cs 15.563193840416128 17.374298618488606 1.913456523146886
Cs 12.682111380144729 18.119899367562155 17.74816308827382
Cs 18.001875683333562 0.2606327175435031 9.58793759593247
Cs 15.28575441727252 0.7739821060175904 5.149683114859353
Cs 18.87292848428164 2.7296344597060047 16.080959730319275
Cs 15.03462451630627 1.4470892975540017 19.968765637769437
Cs 19.30068293964869 4.271746673816796 0.40567905741754856
