29
Energy = -20.4704911 eV
Cs 14.480502102891942 3.197287732350843 2.692753529210374
Cs 11.25253554220779 19.229964551211737 2.671604635883973
Cs 10.72940940076082 2.402371797504405 19.33992271411128
Cs 16.539450164267272 19.11622018688413 4.744622936301761
Cs 19.76281408200088 1.9256809380492939 1.6771589691404607
Cs 16.42977811045269 4.09032639055531 18.19988585931525
Cs 14.869782770335862 15.014906507545824 1.5548163815182872
Cs 11.002693474159125 17.407573655381476 17.951869001843868
Cs 15.387129044556195 19.755079946153327 19.738240652007388
Cs 0.7861729389823241 1.401773960731495 16.955532317125122
Cs 1.6594108345381882 18.864774145173165 5.399094223789587
Cs 12.4463433808493 1.5190842968261766 14.50126854565498
Cs 19.81733249410972 17.32748293791747 0.7634305433041813
Cs 19.104425011397538 14.234560732408333 5.276212212852322
Cs 3.4571797631513568 14.386470670998307 2.6904617152067116
Cs 12.724083957202977 16.551467103056787 12.955771375051992
Cs 16.805586978184326 19.22469818555264 15.073259631837027
Cs 17.703660695096517 3.4555581866924374 13.07144041963047
Cs 0.3908009243420757 16.583272812461825 16.532800425804695
Cs 19.617864914137286 12.192376957680112 0.11185208975535897
Cs 15.99638375873417 14.12896775269529 16.907488137139133
Cs 15.51183836158614 20.14139945330679 9.886381228924607
Cs 4.371691470674782 19.264525572764743 0.25320236695970016
Cs 4.422534209361245 13.93548383926188 18.054893892119285
Cs 5.537201009707321 18.856214508036427 15.384399954459953
Cs 18.075676326020307 15.136076842862549 11.638336050493752
Cs 0.6574647094803446 19.73318965115654 11.769472458731824
Cs 20.38169117656147 11.419317918211842 15.251139053158736
Cs 3.1870186396092723 14.774583546377611 12.559450166524623
