26
Energy = -17.96975493 eV
Cs 16.799275913173283 11.34725178192798 14.258042862356135
Cs 12.831101719586306 14.79018622136318 15.305486664785107
Cs 0.27108268496929994 10.548614247718039 16.917800014634828
Cs 15.308866121119662 12.150292694974283 19.300233124249335
Cs 15.834693402957424 15.692438541834436 10.976526303998629
Cs 0.020282972840603247 14.898057390343876 13.223359551157916
Cs 15.73122295468657 15.329433517212678 2.628958523037938
Cs 13.476575313465043 17.92422962376603 19.66043774492754
Cs 17.970743200162616 16.2391136561655 16.79554065952227
Cs 20.00726778368141 13.275561598061065 0.3876567126849268
Cs 2.251487415812252 15.964716510589732 18.472249217915973
Cs 14.656949997612308 19.793538320525062 14.79274185472911
Cs 19.28273319824068 19.78200357636118 11.616419003533121
Cs 19.25444421303173 17.71313375797892 6.076881306542321
Cs 2.110743364289188 17.188438106356752 2.5001190164900344
Cs 18.905636282064826 18.90289919485537 -0.0253966097610221
Cs 2.239512374653691 19.695910748215947 14.932081431462786
Cs 15.308455285083523 20.697137905758535 3.032624625043521
Cs 14.483726574792508 2.097607134337203 19.351768104859403
Cs 18.980240508573274 1.0423464919810157 16.81312217957874
Cs 0.763475114283313 0.9154889938591807 4.218315411545069
Cs 2.2142416000185725 0.5586802911296654 19.95539699273508
Cs 18.61092781378227 3.4128939682196053 1.0356094545744943
Cs 1.4036978116021996 5.009919097381433 16.60589829812237
Cs 17.434018936195795 6.981474384694222 18.20571924055038
Cs 1.568591698606271 6.213535848896397 0.5109375056906416
