28
Energy = -19.40770199 eV
Cs 18.705096932066635 1.0761281242540865 12.901623730893798
Cs 20.282155024256856 17.740686705001014 11.330050416489335
Cs 14.256816950764406 1.6219735893088933 15.470607381519358
Cs 2.1427827761765377 15.482614974584411 14.796834361731872
Cs 17.289214288010793 5.808002927149443 15.624835061067568
Cs 2.0094179908784278 20.96324814197772 14.548046842330553
Cs 0.7574387290951895 4.393542060965917 15.445732714173209
Cs 18.839378023451992 1.2389980501259772 18.556709688135477
Cs 15.353520717203613 18.195621174855205 13.90307305914066
Cs 19.55318840210938 18.281533750102238 16.896895492807477
Cs 15.22005352092178 4.3334733032366675 20.44183977791539
Cs 21.379241578903635 19.766021970533618 1.7573009663235577
Cs 21.120741587704316 6.6013036662006295 20.02672094274154
Cs 19.539070148203496 3.2526978366341206 2.2575940662870613
Cs 2.7454871519902566 17.80132490931754 19.431337285270327
Cs 2.1674526517845187 1.7418948119416224 20.033929534025607
Cs 1.4435923708856342 14.86991557338845 2.519897583203783
Cs 16.400995108594145 20.716503870926537 2.1358992734975684
Cs 0.6699034353036696 12.374384055270182 18.825442737664435
Cs 14.258257858250857 19.5240154510445 19.11606843067273
Cs 18.407722063950487 15.48406873302832 20.973887153188556
Cs 18.152023348809845 15.210110011499571 4.713550994622707
Cs 18.55716194529509 13.596362462826603 14.680078493738575
Cs 20.030348363578028 10.611057612385647 1.8866448327124632
Cs 13.544811770203749 16.382473628190642 1.9773109950050565
Cs 16.937644901164468 10.09111298368315 18.712056136511404
Cs 14.137911493083203 14.512839953825644 17.89843500283616
Cs 14.933025378645121 11.567466209499647 1.7475265116354621
