28
Energy = -19.56542634 eV
Cs 9.971328325475545 18.242516103327407 18.1591337582813
Cs 11.461073968297287 15.990609264094273 13.498388774277883
Cs 11.189658270365543 13.091744140494946 18.20312116290542
Cs 13.073770020124524 21.009853852156176 14.799343308121871
Cs 13.87153372994972 0.1592489528289111 20.238460421816033
Cs 12.805132750936568 16.265632056338006 1.1875487596088967
Cs 15.032679585310719 12.152282771403632 14.40267209964418
Cs 15.455095385524125 16.89677858373648 17.549204006682
Cs 16.744834465390454 16.520060005528407 11.910285342699773
Cs 16.649881146193724 19.926225759705428 3.6747974246947543
Cs 16.505267228625755 11.470331715911815 19.41697462976364
Cs 16.66405669276592 4.062020329780589 1.5453993426388102
Cs 16.767925697862733 3.958398999399162 17.20526899122906
Cs 18.22597484022535 15.737836317367073 0.9129185384645386
Cs 19.800621060780564 14.301268535753545 15.878291540192732
Cs 0.1264056486999849 2.253415142713233 3.684512058953208
Cs 19.15403181422591 0.12356576150292445 20.301521817676637
Cs 18.34705684642877 20.713120175585544 14.691778598533377
Cs 1.2987716476581073 18.34678916747541 2.889302842909233
Cs 1.123294042618565 18.07152021462639 18.477251211753416
Cs 0.2675236958580985 5.416040036308103 20.480627466017598
Cs 1.3413855456273838 13.081507337600899 20.591011757773767
Cs 1.447094251242956 18.224082907635072 13.10244437936358
Cs 1.4133685297906322 2.2396263843772886 16.40214614806074
Cs 3.842323572192713 0.9028605065008579 20.98917554213452
Cs 4.95050775716096 14.818643978121566 16.404059645578673
Cs 5.822880878745286 16.769590589423526 0.16274169900152266
Cs 5.685500482188418 20.21065634539297 15.945548179295386
