27
Energy = -19.36301521 eV
Cs 13.860451980446514 2.4959309324965258 10.453943518322188
Cs 12.987944012107787 3.0052425427713207 4.707355425846963
Cs 9.125164543069912 6.248954362820437 2.617951857151393
Cs 9.739589177353439 5.357679367266043 8.231421842584739
Cs 9.842360466058574 1.6215700578715675 0.021539418096050703
Cs 7.35577136664048 1.6516915026369967 4.839395492451422
Cs 5.580082675736621 8.057311845928437 5.893447881115255
Cs 4.131587054592433 3.8918636665177386 1.1583374720328963
Cs 8.195481506586686 0.27801225668835616 9.896260547419166
Cs 1.4272739158453607 8.109291240270906 9.437033344954717
Cs 5.150180201873471 4.5045633942943235 10.75540075936919
Cs 2.465525636414391 3.573708801203709 6.275504345139326
Cs 6.654712210695611 1.2269057772979268 15.268144905672536
Cs 0.6552906948757841 8.046926592984423 3.812469778841763
Cs 5.367565159672802 18.7195652373268 0.3935522026432203
Cs 19.372521814610295 3.863666552707028 12.354261221096102
Cs 7.692078807940524 5.83577788456823 17.269043259219433
Cs 17.080600713288224 5.734286533548477 7.4301458858055085
Cs 2.811688983606783 -0.2898562502757285 11.780927150744157
Cs 3.8846569618063875 18.098950400050406 6.743854663067964
Cs 4.653602841793872 9.024551068772894 0.32605133376943907
Cs 17.880775141320466 3.579253095092194 2.483474644301067
Cs 0.8777586178015122 19.44117503432151 2.7560722719781854
Cs 18.585003760878024 0.5519904024437754 7.919188232015479
Cs 1.6183088484337995 1.5088084905762609 17.0830549210506
Cs -0.06926155182003228 6.49805126484577 18.56100054900088
Cs 3.3367642562912616 7.1187212730605625 14.827248670982087
