25
Energy = -16.76653572 eV
Cs 0.5328312512731723 19.906633943424367 19.943770532604173
Cs 2.775884492733261 14.911718284195112 17.73037562053564
Cs 18.67064962507105 1.7283981859704183 3.1616479412889174
Cs 5.962581301149734 19.294648254588147 18.23996322196688
Cs 18.123522557801362 19.15183869628124 11.963532470805273
Cs 17.689730374645297 20.23986143091478 7.200676255778918
Cs 20.204434420951955 3.8760012027847766 20.10972534324009
Cs 14.5143721797231 19.567234513616363 15.695333764730115
Cs 3.7235276241885775 6.41049104417202 20.38093473727501
Cs 0.8130546178373347 5.986277415635998 3.7047250071905284
Cs 18.58871520742186 11.948421263709486 17.30733420334597
Cs 0.27348131508915047 7.088049490759239 16.132173654317576
Cs 3.166213646122527 2.2935267250942384 17.042097990597128
Cs 15.0546667441539 15.690369086987834 19.41757069247516
Cs 20.405437207434773 9.091101250751663 21.187602659117452
Cs 19.380503815234974 17.07708163886473 16.505567416017584
Cs 4.492875112548538 16.919887060682218 1.1923904622651234
Cs 16.63524141298822 20.78559674736141 20.128869070664432
Cs 20.399195486312717 15.148577627233943 0.35168339678250454
Cs 16.459692002220528 11.984050473614213 1.6470528837029665
Cs 3.337170038192449 1.591256749320969 1.602592651382128
Cs 16.52269363671839 17.454935160861673 3.0366460972415696
Cs 19.3599428034597 1.459104369791671 15.534666485496144
Cs 0.6634688916106167 18.772581751219114 4.1151263622172
Cs 1.2109045704792174 1.8843551764699962 6.929938623265921
