23
Energy = -15.40529466 eV
Cs 2.053146575321939 -1.050827842773686 2.5736247227826325
Cs 6.702876414764874 20.19868511441771 15.465730713910009
Cs 1.9338203614512706 1.7843227734505507 18.30009798796398
Cs 14.30384422730625 4.427409267054761 1.9256997310405295
Cs 18.289224393735477 5.820616588258239 18.6576694996143
Cs 4.1021464208113585 17.250292474020515 19.049795886572856
Cs 18.26840047500948 1.1875995119306404 0.9990524017286755
Cs 1.5434858381530454 -0.03329321464174702 13.408943009624034
Cs 2.1192092457301155 14.302599644199612 2.819856984127148
Cs 17.503158969706895 1.1776460288749884 15.633971354291823
Cs 13.020732579202939 2.604287046250748 17.77522461978745
Cs 2.1962602693270066 15.673936594674327 14.271549812850612
Cs 13.105545594512215 18.285573271309687 15.316024192613524
Cs 13.760861050928426 8.917082518856622 -0.6654120848095775
Cs 18.018824224771397 16.332517606540964 2.4580235706557083
Cs 0.7800303149968542 12.857787798952675 18.541026140225565
Cs 19.560396780491967 17.78985452670113 18.06436252104077
Cs 14.166348305106867 18.798043057294215 -0.1196728323139306
Cs 17.777739180360335 17.091884478821125 12.896055212942168
Cs 18.797105269829505 11.962347758938149 14.144531650901405
Cs 15.835634139744839 14.0435817120859 17.876478556544406
Cs 18.261005979434852 10.937525332089962 1.536947170040249
Cs 13.270798990578992 13.64743982211887 1.7948120030556702
