21
Energy = -14.04473845 eV
Cs 17.76320230513558 15.703165474728026 10.199651876231606
Cs 15.838058269315944 0.3860257712357325 10.844730819600969
Cs 0.4979772491067273 0.009268762954073004 11.088664644141788
Cs 13.640442513178908 16.31364489017524 13.270592886634644
Cs 18.629489463041324 12.872678946398985 14.681510899774944
Cs 2.1719108504061775 15.947987041182364 13.000814394550911
Cs 13.529232414124758 0.7632983505978423 15.547119839856066
Cs 18.380928347540873 2.7973689262181534 15.18131663377224
Cs 18.115631331878543 17.989430313534655 15.814840771972145
Cs 14.056568315233841 12.252420534004047 16.72418039966187
Cs 2.6660595961481213 20.025898315185234 16.46355334367265
Cs 2.035675974834076 14.815303067735051 18.003266155075504
Cs 0.26639546493235067 2.942534033347975 19.883687090615652
Cs 12.407675669034615 16.934222792063963 18.41022636684538
Cs 16.337893253107406 0.13899407037704709 -0.16649375803915142
Cs 17.48235074799939 14.914651962302917 20.250342275427837
Cs 0.8957916389471224 18.486657731821815 1.0179813259144812
Cs 13.027755377838508 12.512206206063356 1.4035190335718866
Cs 13.808259631659622 17.480265197293935 3.07254816273273
Cs 18.49281947625788 19.16034377143615 5.650775966694626
Cs 15.95511017333937 13.552861904405026 5.656398934352491
