22
Energy = -15.1635045 eV
Cs 12.082716557910883 14.655635506578527 0.532274412256059
Cs 14.390357435946397 17.946622917231554 3.824233470615795
Cs 18.029050658804454 14.563128126591264 1.9193230478712682
Cs 10.042138665486963 -0.00924896187998546 0.5431473213324028
Cs 11.122211490274964 17.274433983111017 14.953290209324473
Cs 15.85829827951436 14.133973698238318 16.5559064724415
Cs 3.9182323020343617 15.61513556701304 1.341364376846744
Cs 15.089983707137218 19.032779841351417 17.79357754785046
Cs 0.06602200113110415 0.04048492829506748 2.755700902153662
Cs 10.580614763423709 12.235177354847062 15.476104482542684
Cs 15.206533528237642 3.118224829131811 1.6225296141192882
Cs 4.869573231496181 0.8099285078307656 18.86060295010184
Cs 0.1376790763766374 3.503600970029865 18.18374377110415
Cs 17.103174793848723 9.63137284056014 14.281646874684702
Cs 1.490767407965536 12.363971221438314 17.105296758511773
Cs 14.394332689448829 13.96875907543512 11.684001597334303
Cs 0.40409773483074757 17.644618242676962 17.369886300532738
Cs 5.707107279209833 15.3381008962702 15.62493221944238
Cs 15.759258166752616 4.187150403309921 14.916582843639043
Cs 15.638071002996238 19.00347704824358 12.369823635321326
Cs 0.1354778215321924 15.19647563246651 12.755579477864469
Cs 0.939509973966348 1.236968338564172 13.433499377059468
