24
Energy = -16.05574626 eV
Cs 4.11115654130603 7.934598424158623 17.066187952581767
Cs 8.475053586069993 0.011521771900013989 0.7877106392098774
Cs 1.04876088683361 0.41557223648603986 15.622278390472118
Cs 18.928773788617267 0.13527800294764422 20.236699822271095
Cs 19.993885074768947 16.55459111749769 6.227559114026302
Cs 0.1351564885758836 16.161043136150074 16.68672120174781
Cs 4.3389875055133516 2.7917238762825405 2.0459996105635985
Cs 3.839667074368137 17.099266519857316 3.444738882135166
Cs 20.37935865137144 15.909704652502793 0.7857984622283003
Cs 16.147213688466312 18.425701464774317 2.647301502317956
Cs 15.079469620513539 2.5200801327072657 2.6409666335470092
Cs 5.680927877737746 2.9402208320438707 17.740714473856578
Cs 19.87865413429216 4.396913399944437 3.0388345298928883
Cs 19.32565173827433 18.802742643675845 11.547849089029034
Cs 3.2974199854593556 19.60739444841064 19.994544945261335
Cs 20.750270654445714 6.212190141057479 14.956181312493475
Cs 0.9423989803267143 4.2497601705244605 19.503915733787895
Cs 17.739332221291495 0.5141082468635748 6.762229375794134
Cs 0.3859660843212624 20.780170441921612 3.421541067937987
Cs 17.073673380378093 5.5695118497615 19.70372504046367
Cs 20.52929493213664 10.335574627701535 18.384890511865986
Cs 16.578335023540934 18.276474608959017 16.55899911173342
Cs 17.355290765541948 2.2558865664854397 15.357891918621812
Cs 13.631640864658193 0.6825678375792759 19.20602422268673
