25
Energy = -16.72895688 eV
Cs 1.0758470602096972 5.726668103213674 14.560041988902293
Cs 21.334191181808055 2.3231706405470116 10.60965449058789
Cs 2.0293351109480837 0.2701213049223005 14.941569469780958
Cs 18.881526422627182 2.316197679186029 15.748738704114688
Cs 19.711810564681745 19.29524406061737 12.367517851918695
Cs 1.7063097295683327 16.714621809045695 15.251593751340554
Cs 1.3904811704370978 3.4253274576251647 19.22283154015682
Cs 3.733986141024658 19.72522768008003 19.511413955238382
Cs 14.041310277375729 2.7352342126734808 18.309377384094713
Cs 15.604732166262204 19.81694525784574 16.252729078806478
Cs 20.237932061967438 19.69457591274242 18.93063321909535
Cs 18.362613186934855 15.19535438741446 15.913811852940906
Cs 18.29446254248709 2.405079066996542 21.41631465937795
Cs 10.392547227182968 20.240172581389402 18.342540085780502
Cs 1.2197315367932697 0.7826846526850785 2.0212738687800735
Cs 0.8259074768174708 17.13420720197511 1.790082339797976
Cs 13.720958565646814 15.487196301892421 18.613518095180645
Cs 0.3377795584245431 13.89118572601322 19.382885703199925
Cs 14.43210243521193 20.256523087199398 -0.027946760465264352
Cs 16.99130496279381 11.277991897556515 19.702010624537113
Cs 18.26852550852726 20.214057210937867 3.5602081390479645
Cs 0.5110198603778336 20.058810640772894 7.048902393553097
Cs 17.661973692755176 16.03235066833047 0.2666819703965856
Cs 19.414862915995776 15.51063214560045 5.865961627510242
Cs 20.11772553783476 11.822451881461504 2.1808368240444995
