20
Energy = -13.32658352 eV
Cs 1.5686783552586872 2.291449756571796 16.416605472237055
Cs 0.11847741655780165 6.78991228727154 -6.929412123004195E-4
Cs 14.967526040288968 3.529651772432286 17.007007139662182
Cs 4.495564985238108 2.989197171886399 1.9176675445476425
Cs 18.420487663772384 1.346062150089879 1.7334984710183141
Cs 3.5265300666926644 0.14481336159506678 12.22815669789849
Cs 6.81494950994181 0.6751467523155315 16.995667953046713
Cs 15.230343407236765 5.196344338841148 3.1113991369437803
Cs 17.005016004997938 0.14857261953623205 13.05247296936125
Cs 1.0105326223158084 4.812975130346611 5.298374167931328
Cs 18.3425433924944 12.10067518907446 0.12446072448042847
Cs 2.5599361008762824 18.608275638963313 6.137497685085464
Cs 15.766373057737287 17.153558832039884 17.940762779817153
Cs 2.892901704979575 16.714852016051516 1.2330651663922818
Cs 17.26637947247656 15.651108743035076 3.9365997749233443
Cs 1.1033358650230671 15.88878008913478 15.55045519071703
Cs 5.853683402651418 14.586080618951453 16.602701584851445
Cs 13.04265607547634 0.41072562669964124 2.567089597275076
Cs 15.40758819962849 13.751419358451951 14.303464789841046
Cs 16.586836005898803 1.1001070159472344 6.778770004571968
