26
Energy = -17.3400464 eV
Cs 21.50043707441075 15.116601746993618 0.9416469338369968
Cs 20.698744014487673 12.168635975414173 19.22847526263849
Cs 0.17743531743571814 17.375925304768018 18.303743912557913
Cs 1.8586492877820304 18.166760716124987 12.82087783857719
Cs 17.091861264171524 16.5484178361835 19.622281443340015
Cs 19.66085562037102 20.032862166550924 0.38974216327280997
Cs 2.9375902240123706 19.092797785138934 0.7991835113650645
Cs 21.522741195406763 18.438701705899078 5.3046467402997095
Cs 19.886737581738977 14.853898999219933 14.680046340898555
Cs 19.534398129686696 17.215437303381943 10.154310780673754
Cs 5.222055008244764 19.505092741070158 17.776624869809382
Cs 11.62131652038147 18.835062818293 18.03398447722084
Cs 15.382297938234778 17.64138529774816 14.562739467678924
Cs 8.557136978341976 20.568022081295865 -0.12701177620827503
Cs 22.038037485594927 -0.2765418959150019 9.601963303578378
Cs 2.152439090579302 0.8146275363124393 14.939870945729815
Cs 19.97217047155592 20.673600295599627 14.692191208037388
Cs 4.668388867064013 1.7298266476396282 0.39995079226836655
Cs 14.416005927215918 20.233992029062534 0.747990981796712
Cs 16.434503897787764 21.78262180017277 18.30234773606269
Cs 0.21208889622775265 1.3747253707132407 3.445589008184196
Cs 0.6575946261277887 0.10948005109143435 19.76469926662661
Cs 20.140508326702214 3.3348020836300685 16.971676763013633
Cs 17.885784615846852 -0.004870934146497916 5.069329908011643
Cs 0.39792267004834714 4.9357017240432555 -0.8085262214174225
Cs 18.17881840177773 2.538952244949263 22.311803443090607
