22
Energy = -14.57329983 eV
Cs 3.261606043674874 0.6938749009189324 17.031502417951895
Cs 21.880294782400718 0.8317344523807096 13.016727338725142
Cs 1.2146272846872053 5.2100413340152025 18.169919850053763
Cs 0.3876799166197779 1.09680524375706 0.15224155560767372
Cs 2.875130813900069 18.174289910380487 19.294912391120242
Cs 18.823969696726177 4.95262339470971 14.899382549170896
Cs 1.2546452901141847 18.730153223214998 2.862773491608749
Cs 18.471123358004093 4.789185632637167 20.371911931947295
Cs 16.84557879062849 21.603460772953415 13.137315372572266
Cs 19.690053131761008 0.3302923420154249 17.71888969779343
Cs 14.794309822001086 2.449574409311944 17.231000472174884
Cs 20.263653590372844 17.790908738747696 15.024835444822466
Cs 19.815281463489065 17.923476452197544 20.51861689730428
Cs 1.9535254308433339 14.02260106826472 0.6644300686733196
Cs 16.12822262513439 0.26324051527294595 0.054572570902629736
Cs 18.842824725411855 13.800157218868579 1.6113513019798473
Cs 15.036669018956061 18.999513448250937 17.220241811232377
Cs 18.117927599561487 19.198395474987798 3.7052238191000737
Cs 17.24029314398207 14.11960460443638 18.066005460527258
Cs 0.5516210366442211 13.67759886958096 17.49827181079078
Cs 14.673721911408078 16.984830559986086 0.14032316647268825
Cs 21.335149193406977 9.586357240271616 21.062208994511767
