24
Energy = -16.8131281 eV
Cs 2.790490131684967 12.86361575596349 18.267727978236074
Cs 1.501582094081681 18.437180605847402 19.673922521239547
Cs 1.0244431919661987 14.393036910576036 2.7912246826436258
Cs 2.016335865217393 2.1524407340569582 15.525341226122572
Cs 2.0024583403052523 16.292711792688767 14.515492146002803
Cs 1.8752607395614767 7.321339833620818 17.298670580274703
Cs -2.0281231088896035 5.063309353985608 13.779836228386676
Cs 0.6584531854074188 3.7125366922492335 0.5131172511197436
Cs -0.25510615505899237 19.435340935414803 10.720708108719858
Cs 0.10287642845687496 19.308976912596812 4.789313744645079
Cs 19.063009305591866 10.619705014137491 14.89198686475768
Cs 18.58510813579806 10.349481381265722 0.6347442536775868
Cs 16.290846581538467 16.026367779105644 3.154364055477761
Cs 13.979087244962049 11.544336318787597 15.615041687779216
Cs 17.928140307625664 -0.5215411359177957 15.770347223560966
Cs 17.292065194734757 15.136233246657966 12.620275871634526
Cs 17.556994529968254 15.113709596686935 18.263453937371263
Cs 13.393736317985441 12.359313272623753 0.3768070645120598
Cs 16.760862665307616 0.7588600045540237 0.865395550266588
Cs 16.24723029279808 6.485763732951539 18.554637349960394
Cs 12.66880308309786 17.833521596767795 -0.20148571116014927
Cs 8.969569962025245 14.495437200538417 17.602736774143096
Cs 13.861039706222234 2.281207106389291 16.531810059019598
Cs 13.123548498553506 17.02228800333318 14.99564788616515
