28
Energy = -19.34061019 eV
Cs 18.926990369870225 3.710467404457121 5.559865365742927
Cs 15.580579002480516 20.107002089331935 5.300685099497814
Cs 16.382530018251472 1.4107827674971427 0.2704311477125201
Cs -0.004472056573364176 20.10340092402307 2.9608639790909463
Cs 0.3737765387845669 4.638562016491574 0.2778729253653196
Cs 12.908872181958197 15.560244241247124 5.835018831629057
Cs 12.506871533698643 18.0210857866444 0.8785447082639496
Cs 13.788813837541483 20.336359935655967 16.21121225840243
Cs 18.00975680268938 3.613153253561649 16.141056689692853
Cs 1.2728905605835608 20.48669561223287 18.571955475143064
Cs 2.566062901360854 4.6487355532407975 15.85896278966324
Cs 17.677233922940232 15.589611869875133 3.331394032960849
Cs 17.3991404427469 16.990642423421363 19.064884230022308
Cs 13.913345594182461 12.74309681515936 0.8968886970923198
Cs 12.625349254647558 14.95586080316713 16.900396626984865
Cs 15.850461886985455 1.5245845682656824 11.243416540938187
Cs 2.0295347003526882 15.589797683317249 1.0204439446154652
Cs 0.2656714597923476 2.9763689791173102 11.33816459941583
Cs 6.823661681895089 2.0423449597760874 17.756497097498833
Cs 14.808269419549948 9.37457067347436 17.377030015535645
Cs 14.438054241402986 16.883361300545612 11.593264217871253
Cs 19.052986441605693 19.077184254394865 14.306062523669095
Cs 19.07597219825753 11.727154288280746 19.727325396015345
Cs 3.8602385880820584 20.22849508861334 14.195273743574699
Cs 6.3099642784828385 17.385401108975735 18.678380671551572
Cs 13.149778389580412 11.710850415867146 12.763802261085383
Cs 17.520697116602577 13.541075692030148 14.952330757527667
Cs 1.7768000793774585 15.211852717010466 16.500429845468194
