28
Energy = -19.27539502 eV
Cs 0.7944025942207976 19.356728632625984 14.343990511539362
Cs 4.380124715847118 17.0143209949904 18.512707066513116
Cs 22.16605429047362 14.748394177604906 17.10932900936692
Cs 17.933507600258796 22.02553936184176 13.318626301854009
Cs 18.14428998356457 16.712906750596904 14.39362399839418
Cs 21.751807958122093 2.2431025257421804 15.783797304232165
Cs 3.574919675287715 0.19617075138937382 18.34312608619279
Cs 0.13195348935944404 14.473813704304591 0.12723028603425124
Cs 7.409881645422086 20.57235255116593 22.041949513424417
Cs 5.16084217117897 16.05652268747042 1.4609048695703688
Cs 20.55728724663849 19.90588797588492 18.717299080266887
Cs 1.476402736780882 19.63082445712967 0.1265523396022471
Cs 13.660058798457573 18.941435108518174 13.129314579470392
Cs 21.59928014121514 2.5197712942049617 21.213777888019393
Cs 17.225087992429344 3.011199622015958 18.29036291525599
Cs 15.748248271456724 20.16817479586274 18.013513205651474
Cs 0.9186482437170944 16.83410175477376 4.888635578840799
Cs 4.409635249057972 20.551830500677426 4.571320610403849
Cs 17.732616922433767 15.384662773563775 20.024573274574223
Cs 3.979017723843863 2.116585116514224 1.1927647396669772
Cs 18.704410506952197 17.90225560465348 2.2380861478809124
Cs 17.212977722888695 0.1565080293996195 0.655583157842685
Cs 13.248668640493914 1.5844539269347335 15.140740671189175
Cs 13.133558286868716 15.555664757546836 17.354548348919526
Cs 21.738312246530842 0.11550809698271201 4.092809807956571
Cs 10.157471427320802 19.893129307581173 17.34646052361479
Cs 12.192448927231405 1.3053793723620009 20.65923031962894
Cs 13.375418765374727 18.17290037525952 22.155980350954763
