23
Energy = -15.47944633 eV
Cs 7.553711302356258 18.02322798655429 20.01807271637732
Cs 2.483024728616763 18.94775285581867 1.813846016122078
Cs 4.854768161615529 13.751528223605648 0.7881098034985182
Cs 2.0950024157509226 5.507245510717443 0.10237224581317239
Cs 1.4379465678852088 10.474264286229298 19.456509592094832
Cs 20.53171835545503 14.466558939722255 1.8169873740817533
Cs 2.2164801640515477 16.185958517637737 17.922091166722762
Cs 19.064168069951222 2.2193577492837018 1.2976692719002325
Cs 18.66681432733421 18.679343499747283 4.307903739934263
Cs 18.815546649423855 18.921016557864185 19.227790063918867
Cs 3.642872262287597 0.882336542209893 18.702370638244425
Cs 13.700042384369542 4.702976207939762 1.425451726125014
Cs 1.3059277631209065 20.24581999766812 14.257500608703783
Cs 20.106254134933792 3.2650719250767026 16.97017406951856
Cs 15.298276904131825 15.288816616008221 1.7987494337336352
Cs 17.483972130849686 7.310562061275351 19.706640009969437
Cs 19.9965448338142 15.674419850055529 13.605155155761299
Cs 17.77349211353734 13.712094647922845 18.175862767192875
Cs 14.24341618338574 20.40736956836381 1.9429526086484787
Cs 15.158314218375743 2.1910691235087967 18.17589287490142
Cs 16.872582291230035 20.023616317985674 14.251891312811193
Cs 13.476038147109652 17.76942708905754 18.298849355949113
Cs 14.897293287606264 15.182707518812949 13.857645576500738
