28
Energy = -19.28277084 eV
Cs 8.665339381727666 8.246987342232085 9.695618869433536
Cs 3.42367967070127 6.69645027561292 10.272136229831618
Cs 5.016868804573689 11.29511294496387 7.095721203464926
Cs 9.314217210010915 9.852836009807904 3.5235071377026523
Cs 12.76323740659214 11.001065803307792 7.745910180890085
Cs 6.310831949866198 6.03084292211726 5.652960134701297
Cs 13.397379597606646 13.660811914221359 2.7629470925654807
Cs 17.710501593939945 12.475030368023557 7.10807191644491
Cs 9.305013876566852 14.84033459999012 6.038976947316632
Cs 14.66697860279364 8.527130154246029 2.701756637516436
Cs 12.086967988763394 5.5326956718796625 6.580686202370009
Cs 16.140652562208388 7.3616477400576175 9.984980082446402
Cs 12.097233469598821 4.464529675351052 12.066440005222807
Cs 4.612215732062389 11.018836084021205 12.749881736395942
Cs 7.249187923668645 2.8998115788375416 9.97853648742606
Cs 16.30553484195004 12.353405908341054 12.323757570222345
Cs 16.279378884990457 7.357066825914979 15.269226198047784
Cs 12.034282824293207 9.719113443965918 13.478166932798029
Cs 14.313327860705753 11.566510792802692 18.649246880963982
Cs 12.349172352112038 15.229475065734182 14.875504225312048
Cs 8.537591281006847 11.440815646919011 17.106267405925546
Cs 11.561517040106178 6.955091781383336 18.422896559083824
Cs 9.084019987227288 13.215558439558825 11.02098168692164
Cs 13.643698437574411 16.02565525360888 9.596195384990999
Cs 7.517253380064157 6.579402635067627 14.49289322212575
Cs 6.583624024527642 15.758537697075102 14.828586808764417
Cs 4.461818722616444 15.753149803160968 9.604043483652209
Cs 8.956610592145113 18.53022962179757 10.762237054384231
