23
Energy = -15.54963984 eV
Cs 11.828817116539243 18.49050677873854 17.466051602996334
Cs 11.30617448415194 16.335847782692653 2.199873328301491
Cs 13.502539869798865 0.39003517565985024 2.184172397392496
Cs 12.855103970891475 13.11860940099216 18.764214235668568
Cs 16.176189579412917 1.3894890111259746 18.380938298827793
Cs 14.900565065150932 20.15759261337649 13.293252157721634
Cs 15.785130197018752 14.777842019168718 15.022378241857176
Cs 15.034371756180343 17.614956204007484 6.066776689560775
Cs 16.32165682684331 16.955405627967565 20.076439092387606
Cs 18.886914894988035 20.172735209865216 2.7095513933264974
Cs 14.921737466939584 12.763248815712542 3.259644532853759
Cs 19.409492107036538 18.72848148905407 15.418162077759234
Cs 17.97470458261483 16.052395534867465 10.415528526067357
Cs 18.621732470494017 3.5703921529245397 14.365480688501696
Cs 19.360912265566448 0.6539600644518723 9.931047042104838
Cs 19.39939380356104 14.912873671154927 3.997995310722933
Cs 1.1550302470198919 1.2766652120996245 18.774808162577965
Cs 2.452157656872194 17.347398903054856 11.55262338565726
Cs 18.36128037907887 12.193396847730552 19.306963136286043
Cs 0.6548135772338775 13.880047046779124 15.270787909369037
Cs 1.1693560765727034 16.44121790773858 19.936368199733835
Cs 2.8049203143961474 1.5323144684364072 13.593487870093174
Cs 4.859750539435489 18.099925197798818 16.581048435752702
