29
Energy = -19.72227413 eV
Cs 19.83496829208244 15.333843563307637 15.459639544029859
Cs 21.428539621644614 15.779662481172167 20.418843529452282
Cs 15.617826226246414 13.88299473456472 18.001493550751054
Cs 17.194995132253894 19.046308803233295 19.601618844564292
Cs 5.854241281411418 0.3405089016218484 1.192142989383309
Cs 0.12489656631625297 1.0785569545824867 15.06679997637289
Cs 14.034518312447277 15.319301070246446 0.5222770376189286
Cs 0.7820576416064716 15.602452513578891 3.1683404372700457
Cs 18.658022858649133 12.311993934425404 0.929076972747937
Cs 11.660056681355426 17.717953360781998 18.772553425910754
Cs 4.0702140987596795 18.137465047505497 21.67732102215495
Cs 5.8248586952840835 4.988815470403691 20.75820242488473
Cs 18.37477483452503 1.2063345536584078 1.3088902236385822
Cs 14.0113008897157 4.242915308311736 21.425317568558267
Cs 0.8148416842953908 20.772093075959177 3.1557219740905578
Cs 0.803368777142792 5.30124789511792 18.25782000716342
Cs 18.368800085337647 18.01372595400528 2.386708261992378
Cs 1.3199432866606249 3.5550186182118404 1.0307043697627098
Cs 14.687074118673888 9.645792125318048 21.0187934762057
Cs 19.54963698323022 6.881562255466766 0.004879302527964764
Cs 13.496681813170971 20.875041897907263 0.7903219863448602
Cs 13.261684395967883 0.27424804046768425 17.74895673844845
Cs 18.25614566795552 2.813304243719975 18.26240637654402
Cs -0.1506340325427796 21.5445700987387 20.234366887571802
Cs 4.476342941967998 0.6816566519472661 18.264883165771295
Cs 17.73596371382715 20.640421233281533 14.937208876711505
Cs 19.713910072465094 10.245326888186247 18.075635333010254
Cs 1.8578266453507457 18.38296276037261 16.546977454650598
Cs 21.68595240057647 18.92934220597446 11.896378022860102
