24
Energy = -16.42077269 eV
Cs 2.463155697678405 19.410149503231985 16.090748893542298
Cs 3.1200256264823802 2.05896364540466 20.17104236207081
Cs 1.8299054122146934 15.888721331418088 11.104023053018881
Cs 0.6703531816659319 17.84180207657797 0.2785904350243457
Cs -0.5807407777418888 6.374674987158294 -0.13083070014182913
Cs 0.6495715133780561 0.6431873432922947 11.229069804379375
Cs 1.180467479023744 4.386206362386711 15.628251326721157
Cs 0.14687925360557239 13.5813893519957 17.295327938190503
Cs -0.36610747581032443 16.936775861842914 6.324736004421477
Cs -0.1117929170270563 1.5394728768007153 3.8826181797691772
Cs -1.6555428208626706 12.147934450667611 12.520947585001048
Cs 18.229327986697708 13.696535832752444 1.2958083047067865
Cs 18.746657341864474 1.5520959238214125 19.134554262080556
Cs 17.19472423657313 2.306189440793692 14.104446841719394
Cs 16.551952434904408 18.86973198370757 2.847929596563795
Cs 17.708319687656466 7.8879232404843584 15.509590681083164
Cs 18.692795051715038 17.451041943571592 14.189804207059085
Cs 16.030189642524597 4.003786601786252 2.614368813180982
Cs 15.487198303988517 13.04210155496524 16.53452125394475
Cs 15.373018388742397 9.3066731520139 20.41730433562002
Cs 15.534537357883734 18.570139336862773 17.937502822958294
Cs 14.368803914937686 4.529491266792861 18.21378154034893
Cs 13.19070334390488 15.118997180597328 0.2462879716372357
Cs 12.428462918578578 0.4082805701810302 0.7812413427356746
