27
Energy = -18.82294915 eV
Cs 5.31747763598792 2.1314821319782813 2.9932875156603482
Cs 6.746394310358776 1.7987086436654318 18.809497287411695
Cs 15.572946141203472 0.2603153664052358 15.615262753556106
Cs 19.634662982628555 13.431392919696858 17.629989627381573
Cs 14.553340850430798 11.667190209529457 18.846529476385733
Cs 10.10197416269718 19.5892590137051 16.084557156246003
Cs 17.907206727072335 6.935743311155499 0.4628681058674264
Cs 2.4791134157754633 5.587812934250173 20.49753265817925
Cs 13.26944941768409 14.691189679098105 2.1979748538474104
Cs 0.26869466251717233 3.92298445628557 4.14830188427753
Cs 17.01592358896482 17.359310702865763 19.721397116873415
Cs 1.574223405468107 19.607098737461456 4.461827475129071
Cs 18.16395799344276 12.091345023358326 1.9531527501659047
Cs 4.818712533808401 16.87369177879948 17.554570265234755
Cs 17.78100645879077 17.137796836449137 3.907921303911226
Cs 3.2342807578985417 4.796850799760492 15.467246847302935
Cs 12.319584285948112 19.736990151966243 0.4604105174028817
Cs 14.143614831208582 15.940028083458618 15.720030990440087
Cs 1.8498312984752296 0.17522361412356172 19.883129421870777
Cs 0.1009552528971127 1.6954252392064746 12.211878649742909
Cs 4.7284564517456795 20.746112674349064 14.178178104021793
Cs 19.34977871001214 3.375173507826109 17.242422460066315
Cs 1.4534467582487227 15.720849465960896 0.902461668767735
Cs 9.98433258867631 15.044502839799616 18.94897637138118
Cs 6.999189161314782 18.16559489641026 1.535762273891917
Cs 20.515955287412478 18.527221544550994 15.711498407427987
Cs 17.648455629827268 1.2940012327713797 1.1566298524434213
