20
Energy = -13.41705818 eV
Cs 13.015388209056352 15.953362910550139 15.283035262362965
Cs 9.562991446033983 18.11592530687597 18.68493518906378
Cs 17.353073456329977 17.634327196111762 12.775565140327767
Cs 16.99546125619032 12.897204164949931 16.06602422238784
Cs 14.673153296946444 0.1526635150179341 16.84490008003784
Cs 14.419789211973708 15.443998269536232 0.007751505296959256
Cs 13.289460361932415 -0.10264313688276967 1.5344857211743248
Cs 1.1553007613228317 11.10833589511515 17.11194928346363
Cs 16.638597556284683 2.5850359565248127 12.662008726725432
Cs 19.260778327410335 13.658142475086985 1.13056037293588
Cs 18.51308978512777 6.501266756982432 16.33338923603315
Cs 17.72828447095818 2.469696757712962 -0.05639149455861434
Cs 1.4026409966451834 15.828671176292342 14.549402798962557
Cs 2.0357263020154046 16.973600219038 3.9699117382712346
Cs 0.12524365610026647 1.1756134948455024 15.5649461203899
Cs 3.4464243712342966 15.443297349346059 19.518842480072006
Cs 18.671612831231606 17.649238945982017 18.402076212951474
Cs 4.849405532418374 19.629279632221085 16.467483399940637
Cs 17.62040377372296 18.517368087824444 3.558907033708807
Cs 1.9115108617784575 0.25805762721662534 0.3874608231727657
