23
Energy = -15.13760424 eV
Cs -0.6625986813405703 6.972715609669843 0.419748992083148
Cs 19.936500523030446 16.607118051346262 20.636091782927725
Cs 2.954334955286647 2.956563620158448 16.056605273110996
Cs -0.022854871484954582 20.188660452732208 17.1362368938089
Cs 19.00199632123573 3.4994401182559614 17.0038059576962
Cs 5.40681961741956 -0.02484128634406395 19.664707849441605
Cs -0.34105506140359493 2.255579703382099 11.931709834576793
Cs 0.5430499029466537 7.634502381254194 16.503482929138343
Cs 17.82056163064104 21.1524458624034 8.05660349368817
Cs 17.665335009447578 11.372185172965413 0.705534812390807
Cs 17.54050908437789 15.682605495037176 7.899551145015141
Cs 19.82140604722172 20.206081495630492 3.483759349822287
Cs 1.7132431525191663 11.639885187838559 20.074422477793597
Cs 16.87654525001048 0.1262013377959084 -0.7860436367593743
Cs 20.918545260764006 14.247901172203116 3.877128597158506
Cs 0.9452748126535945 17.6843143573981 7.514959530618463
Cs 0.7773176733174387 1.8756961808069483 -0.13278284025443562
Cs 16.069814767756135 16.73348610672718 2.971429432215386
Cs 15.937351263483242 5.875371222564962 20.49498436079847
Cs 19.71647639647757 -2.933342652046693 12.237160666996612
Cs 3.7550882985901186 16.47095273176135 18.73751328478409
Cs 4.268767141554211 5.8917863241463335 20.18895160068869
Cs 3.056471159328342 18.200491159939965 2.2720228776340945
