28
Energy = -19.32947941 eV
Cs 2.819768604896488 15.4557663015228 14.118831180690092
Cs 1.8655722366792555 15.457822736232453 19.446678846141896
Cs 21.034011436380407 11.588257478163337 16.25222811379679
Cs 17.039843263306675 17.462553832454233 6.692997118408921
Cs 0.6733173068851982 15.604421944360986 3.8611513068426047
Cs 5.5967268225186375 18.624994026945068 17.523277649363912
Cs 18.902608100662945 12.928808581223539 0.1292682864659577
Cs 17.066890927682156 15.06476750618813 16.932244308813633
Cs 20.347134140874417 18.861654752227306 15.9940669038715
Cs 2.9170694285710823 20.521627823559317 12.909901418096748
Cs 18.936606248024074 15.599931885359188 11.727659221398271
Cs 3.720452878314344 19.591665774316454 1.1931236243906147
Cs 19.49505972133418 18.810702835516878 0.1296103700006865
Cs 18.23613173467951 12.537205012247748 5.601637456756682
Cs -1.6272642936153359 -0.12949230353523145 9.88768847813966
Cs 14.929961424640721 16.650363925008516 1.2317145908169338
Cs 15.976995306053453 -0.7980040762226344 13.356500188032065
Cs 0.41732374772108466 20.540814003357205 5.203039508190635
Cs 13.718034053046912 18.926659693543584 17.75445058941291
Cs 14.789286185879599 4.659208553631349 1.332704249658422
Cs 11.758520742993515 0.5431129828178418 0.2803628312296455
Cs -0.8163615723346469 2.936922469213815 1.5770540337384533
Cs 20.37290632525031 2.7910894661752605 14.353989826187444
Cs 16.127895944741034 0.151470507082039 3.4878115272620165
Cs 1.8677751652002375 1.0876967856139872 18.512110896986055
Cs 17.17137340045134 1.580932549432933 18.660704547484926
Cs -0.7727132852271577 6.288371689571789 18.413610822473434
Cs 18.791848600915877 8.017447860517622 2.1615697534057263
