25
Energy = -17.09113348 eV
Cs 10.67894570339483 17.26558408677428 18.8406698618782
Cs 15.154031889040409 14.416103136326699 19.843845086874307
Cs 12.740154623046372 4.14219323407869 14.288959162031288
Cs 12.366704198813546 2.1811238217924327 19.07599050236027
Cs 19.193717959758764 11.358865601586277 1.1460201634763778
Cs 18.67791246432419 12.513652813951408 16.331653741167653
Cs 14.681791523085003 15.971137466081855 14.687156047118
Cs 10.828318894030593 19.899802349704554 14.298134386967341
Cs 14.456991787168867 18.941539878811046 1.9219427693679465
Cs 18.433844980307843 15.827549614071918 3.714767501316132
Cs 16.22639175571556 19.921333227660774 17.386459666920388
Cs 17.54712553810728 0.1254018692644776 6.316720260480305
Cs 2.0849899423238365 9.67460810963874 18.570430875701728
Cs 19.94754096658244 16.814737089136102 19.474566908335472
Cs 17.567141680791412 2.3759827329699075 1.0230323154209044
Cs 15.97879532500983 0.47405273607359355 12.236800216061308
Cs 1.040005262328273 20.06409503709991 2.729629506089435
Cs 20.10738539578545 17.630233033711292 14.172957381295282
Cs 0.9211574594215611 1.1499235397611878 18.144704396310196
Cs 3.2458904028254048 14.71065147850117 16.766837831086967
Cs 3.0611192710854747 13.994066130105692 1.5795191282527687
Cs 17.42194487724643 4.507474833557171 16.243720204154698
Cs 5.184802777611347 18.406161943373036 20.349879763124914
Cs 0.3864503295862234 2.0124207909482714 13.005822514207066
Cs 5.026628110613266 19.82759232747464 14.964633307026475
