22
Energy = -14.81149953 eV
Cs 5.325337030245513 -0.022368302945478973 19.2258094805947
Cs 20.019662864120736 20.958825138975023 10.692584847590796
Cs 2.140819402879423 20.70496305191528 14.955497596953107
Cs 3.1874122768611723 16.041674739745694 17.596854301462216
Cs 2.9481259165493596 4.410386633648731 16.94546088457997
Cs 3.0504474338623475 10.165196536684524 17.740957473260416
Cs 2.6737762045690334 18.43033292345192 1.7781665432074147
Cs 19.25999231343267 2.1488003065764207 16.53192163651481
Cs 0.8170442686662261 2.167360143285112 0.21302684643564382
Cs 20.42369453265301 6.954214725602645 19.491473853164134
Cs 18.718497918021146 17.745738829226696 14.826600361279853
Cs -0.9371925471764164 -0.0014547638582042878 5.062309875176198
Cs -0.0012733437580796866 13.481008614778967 20.683615259243442
Cs 20.540281653717802 19.12112302248203 19.45994212555292
Cs 18.278212788293278 4.813950959575748 2.777610832674237
Cs 15.482339180068307 4.261439339062699 19.618351109612096
Cs 14.946819893942166 20.429830775325687 17.223744326177027
Cs 18.957488884974165 16.56732319375103 2.925543617527904
Cs 17.08642236095981 10.295773520964213 0.667917272912067
Cs 10.953165677683309 0.7933204244059474 20.135155760763446
Cs 16.29379779443693 15.76622872080911 19.748271169887982
Cs 16.670500589737532 -0.13895651845983167 1.0572010735555912
