24
Energy = -16.60173291 eV
Cs 17.988508714958304 2.865677218972875 12.200878465295865
Cs 19.373527799582668 4.652437468116534 17.601003114309567
Cs 2.647011329597262 0.6230609618208764 13.89079570584382
Cs 2.029568439335317 0.5101849721745589 -0.04823133826497805
Cs 14.44927450079318 2.1987720493278724 16.25051274618013
Cs 16.903879167680383 1.2945015431668156 1.281460975444978
Cs 19.043379526985696 18.72501222310792 9.546782479797733
Cs 13.804447141964479 0.07285030994335995 10.40957046334174
Cs 18.863486573665043 19.52672723145368 16.24345878569162
Cs 3.67412136742908 16.62207251090428 17.117159837328938
Cs 0.13809817843590796 18.901986558124676 4.544746229783678
Cs 18.200302849107846 16.345163437242913 -0.2290108424696767
Cs 12.274282895187065 19.27520023632741 19.777607865917957
Cs 14.681202477120674 17.10231173968323 14.910210610604732
Cs 19.878527846779534 15.232171965112876 13.242098481762016
Cs 14.614568326115238 18.121477255665873 5.259836486135388
Cs 1.061465126751869 12.125234668488885 17.35291132917756
Cs 2.171062412667118 14.711172139084765 2.144359732297588
Cs 14.949002251224881 14.983219667621912 10.054529894495623
Cs 9.986391559626998 15.8001133010506 16.65962029663867
Cs 17.909673345937463 11.223098746834541 1.1772127587163135
Cs 18.0565887416053 13.982591887804125 5.787202696631402
Cs 13.621256109711863 14.441501118299948 0.5305985857295589
Cs 16.046408522023846 12.31742336434516 16.2433081714859
