25
Energy = -17.44626085 eV
Cs 18.58952707820776 15.596285422474576 12.594557449972964
Cs 19.211299122753413 9.60812736991903 15.500624624782617
Cs 13.388848038304344 18.609984925750705 15.238040703374601
Cs 19.363793877585355 4.69200761197646 12.94315700885986
Cs 1.014191050231724 -0.005643959571775959 10.22924914170171
Cs 3.7193660232352026 17.086398965703314 13.858083963814773
Cs 10.371030345898381 16.344366019753693 18.862512613371404
Cs 0.7998647288683143 14.535512307541678 17.430330818921757
Cs 18.217180904886366 11.093857540530612 0.7492842619894153
Cs 13.1397618276755 12.259864043388864 0.9524189390589852
Cs 18.988943261734565 19.59232818711402 15.973058535270633
Cs 14.230156799153523 16.088724347695855 9.700257280920695
Cs 16.370591851464997 13.478240145841266 5.106541759437613
Cs 16.21480383945985 16.585083912687868 -0.009337770079570946
Cs 15.998997747072755 1.0043391235165327 11.498038755344792
Cs 0.7507022072960362 16.103086357582264 2.5108634774051084
Cs 3.815044093643988 2.2401630636738323 14.375816484868121
Cs 12.50077888047225 16.743405863493052 4.120994091743155
Cs 3.4741533675885203 19.316944853496054 18.979098742888844
Cs 15.053428582532453 13.55186908500647 15.95991433889606
Cs 17.38494778095248 18.858054400952728 6.097558805872112
Cs 15.671318652230555 3.494161179511103 16.991154969096733
Cs 0.8669395144724376 4.625039617706857 18.104705557899337
Cs 13.057950701433912 0.7159052426884386 0.5663727801487211
Cs 18.58209521388153 1.1693080407129537 1.3287378687260865
