23
Energy = -15.40487261 eV
Cs 6.637349210497617 16.877944236625318 1.7276607378952396
Cs 3.8658884719363713 15.9820704405048 18.16737248125416
Cs 3.3855202643665794 0.24584684376159188 20.004538303649117
Cs 2.903216723367458 20.346618396198906 4.528173926611162
Cs 2.9440353941166375 20.007905554116526 14.808114653120638
Cs 0.5205378894019826 16.725559061109262 1.686372875712165
Cs 20.36145190493528 3.131746631944434 17.426181052803116
Cs 20.015122542231197 13.615521477764423 17.933008761286043
Cs 19.49381668685081 1.3990605862292742 1.937182885414565
Cs 19.331989436416524 1.0119383859222766 12.602593941466754
Cs 19.12589490259621 19.028550701463292 18.086165448010156
Cs 17.6497743283909 11.153704294434549 13.785175492886584
Cs 16.23497807585725 5.318250476121241 14.935841849547659
Cs 17.102087075532143 13.384131557701467 1.5540959542157609
Cs 15.314026039842817 2.4660244707206576 19.61354065350399
Cs 19.744454595251096 16.39180618599539 13.378880253582281
Cs 15.584566650058665 10.00160538070911 18.57229496632229
Cs 15.680908923242955 18.431549409826356 1.5543822807837735
Cs 14.951904717989532 20.391198767264353 15.078155520683065
Cs 11.917413768150444 14.418316806214067 0.5315555667096387
Cs 10.917893712000131 2.8570580495019406 16.377137996891477
Cs 15.194269142385712 15.433941775481216 17.13654637312827
Cs 11.168655033896409 19.205523213001207 19.223101202688433
