23
Energy = -15.19019209 eV
Cs 14.81811842105389 18.17953925507187 18.42489898936085
Cs 1.0665574247157847 11.093243974647367 15.20638911939222
Cs 20.99509704204536 12.550236782092712 20.155205426371023
Cs 19.01471967212035 15.604616813701927 16.551289036907217
Cs 19.586855160141464 20.67436585163915 16.66871464400562
Cs 19.10259557801305 4.405242391080575 15.34846191516399
Cs 2.5190041335525493 16.565799282540283 14.80229932956534
Cs 2.1350812263433716 4.1964129595525 2.7777924895427204
Cs 2.1376897064190024 17.371503179126158 20.00726578753812
Cs 18.76796894708122 18.83804490262997 0.3851054448948434
Cs 0.7921280437889117 2.9427624031725412 8.670960541005734
Cs 2.6720126773945823 1.3495173196963264 19.339869158467394
Cs 0.03119384302667774 15.084533673857688 3.218780845047875
Cs 10.530969480028133 21.24538345066686 19.354079769696792
Cs 14.67207338513182 0.557286393393832 1.297076936699931
Cs 2.6358963861836138 0.5261919841726175 13.880202339472723
Cs 1.613819989161455 20.427261946482783 3.190222214986099
Cs 2.4198987942497783 5.761350612197984 13.718110666917923
Cs 18.751200112509057 2.3247666202885107 4.400123789129837
Cs 21.102404313624536 8.949521502366384 2.5379808650107543
Cs 14.823830859191942 2.026648333644083 17.21792892470561
Cs 1.4559297961447195 6.8117704430494355 18.968191110721893
Cs 18.983848609639526 3.0780714026782467 20.682530406677927
