21
Energy = -13.95373526 eV
Cs 5.08532061776749 18.668678918471848 17.48895166857616
Cs 19.426936601872214 17.478894174756988 10.075417842304098
Cs -0.04101746058127138 17.994998469219794 15.25886647366062
Cs 2.017306733930081 0.5188118330358524 11.748517880054141
Cs 18.13418075067561 11.34252064056482 18.413006383867867
Cs 1.810779464333809 14.362721074202762 18.550394545807798
Cs 19.17998661075322 13.340769799495485 13.723920978928902
Cs 17.873424349765184 1.335526210909169 12.790518111086012
Cs 0.7872865008387365 1.4656911077650137 17.50072203728161
Cs 15.525293236762861 17.273428535095004 14.20541392221108
Cs 0.8751607639280762 0.004557694309843836 6.386630392926414
Cs 18.280686134898648 16.983107976381113 -1.0372226255916892
Cs 13.871041708744277 14.759786958583385 18.526039392914026
Cs 18.64208621028955 5.855761151834617 17.110130887118995
Cs 16.04867978082277 0.5177638520808825 17.613223574604525
Cs 10.813628583314983 18.930430751267945 17.35358651897276
Cs -2.111606175822019 1.3061259588226313 1.2264621739370307
Cs 1.9477531610385508 18.916299659973895 1.147856610687825
Cs 13.698348313324878 19.31291093561136 1.0278483746105966
Cs 17.100160972022607 18.309032939457886 4.794114314850114
Cs 14.627668862204716 -1.2396891739371998 9.379117940872066
