24
Energy = -16.29680095 eV
Cs 16.59305106604786 7.347455628528597 20.955540053523357
Cs 21.057606422946286 4.653960782308466 1.3914280784975468
Cs 16.47856888637385 3.9628151846857302 16.207404104931395
Cs 21.53788948033112 4.508900709906881 18.186303780923023
Cs 16.340795730302492 2.3004244705049315 21.11698135269784
Cs 20.710865126228704 2.1179189478677167 13.677003852945656
Cs 14.172432160528848 19.942918865909085 17.82643393606064
Cs 19.465312049499282 20.975625875658807 2.4344364083956314
Cs 16.585338057914754 20.805790793420048 13.374242798153062
Cs 19.49116879728401 21.104809590532458 18.380303723095697
Cs 14.29291647732313 19.589323050270504 1.0846027249236059
Cs 2.8660058043415 0.12509931314103528 16.601727560956526
Cs 17.430909939328103 16.319293245851227 3.3821622108831244
Cs 21.38912360897656 18.3923059948891 14.293923385497424
Cs 14.514049822425351 14.773887244205492 20.383794554190825
Cs 19.331602938098847 16.343971450031077 19.889667340599786
Cs 0.853109274260136 16.61342781996055 2.0136984971092815
Cs 2.7267254891060158 17.149617646365925 18.784550554244262
Cs 2.125141805379606 21.693742485486936 21.69884650882599
Cs 16.770903244800422 15.924889032983685 15.367941162775312
Cs 18.532298418825803 11.578915897129992 1.4700764989830672
Cs 0.0015436114423979148 13.364814742406868 15.905625020373524
Cs 1.2204262068080909 11.836410553724 20.683791413106135
Cs 17.43730516714618 11.095241507987033 17.621721757207727
