25
Energy = -16.85775269 eV
Cs 3.661919886499666 15.416526754489343 17.5018283785219
Cs 6.278054718896456 20.36068571211116 17.998984536945308
Cs 6.011844815212845 2.2182317240066416 1.561007278203491
Cs 0.6642599058698143 10.98593611368945 16.98671375917716
Cs 2.990552547068168 18.551287658880174 1.017795527070803
Cs 20.489330072114274 15.562597687233508 13.868747294139364
Cs 20.609737005830503 14.111382120493433 0.38384035904693475
Cs 2.4712038216596808 20.082561650295105 14.38632678583208
Cs 2.0703098260694617 2.8581125751108667 18.922887172723833
Cs 19.969170996871426 18.903252082167235 18.51543759904202
Cs 19.31737905268757 19.983094967055607 10.731213390186378
Cs 0.9277234416256718 1.8237954038329156 3.4003516058042065
Cs 19.162766409139415 2.481932646623476 15.305186184573534
Cs 15.947029488625466 18.53177439089968 15.023769513622582
Cs 18.519779542185166 18.52466258269696 3.1027529195075805
Cs 16.821006295228102 14.080221032833332 17.594455653034775
Cs 14.87789240548511 1.952624772172303 12.427516973557175
Cs 15.258351211719356 14.206587478840769 1.5398259151229166
Cs 17.911995011021016 9.020184304752027 20.46138751517338
Cs 17.880051007947863 2.6042715624281247 0.11225565924066691
Cs 14.068617553223351 3.3998541052029574 17.653211036555415
Cs 14.602886713560988 19.075425987167943 20.206272925989616
Cs 10.993572394709116 19.979467285432506 15.914382575834267
Cs 11.326787218691594 15.12923645766375 18.14663563726897
Cs 13.045725688859996 10.172769502947983 19.293402540703422
