29
Energy = -19.80330758 eV
Cs 8.972594145931732 20.552065726797228 1.759561448015735
Cs 3.965096075795253 17.851360978173126 0.9338850129168007
Cs 5.2423720612883935 22.454368613756984 21.59629090523436
Cs 5.052079642344092 17.58660540310307 18.771985216929973
Cs 2.300219901900941 22.317680283264455 3.273871975936094
Cs 0.27150518083819297 14.582047898798399 22.070812575479735
Cs 22.36610847477639 0.8362162213212879 21.930606188831355
Cs 3.14101953138052 22.609652331544957 17.009524582792945
Cs 1.1444242056542857 14.120448153693724 16.995133760473493
Cs 21.363994083092347 18.947330180199717 1.887776855041803
Cs -0.0466588973302526 19.16677733954001 19.578142971039597
Cs 19.584966246497384 12.1057018999368 19.080728745411076
Cs 0.8139258648961373 18.540208151933058 14.42696930389043
Cs 19.47967919818247 0.8039353943808741 3.5239053057340004
Cs -0.015613957719143283 0.5448807571685481 12.818559489398965
Cs 17.832470689937452 16.18759207384331 22.05638975008305
Cs 14.420262727499319 2.598801469724882 3.281041376184119
Cs 17.054142688797377 2.8658906137605022 21.68639109030987
Cs 20.425821305065107 2.0024220303421765 17.304524947023324
Cs 15.52532513374466 20.561294682258215 1.7764054295138996
Cs 17.693152578669988 20.840401611781846 19.883020313137195
Cs 18.250009826947437 21.228724771521062 14.324699082945376
Cs 19.042432646281732 16.62519850523676 16.63323496918114
Cs 14.426672782598413 14.321774430763467 18.522163564493415
Cs 11.835352662176192 1.0916094564511611 21.79044777993369
Cs 14.295386519983715 1.1834302338072058 17.28968248231727
Cs 12.139405567601743 18.495922626895222 21.07952651087577
Cs 13.720968129551162 18.913204744674577 16.193128758412843
Cs 8.871012015942295 21.65623821061521 17.834872001540127
