29
Energy = -20.43232595 eV
Cs 19.749672572928475 16.053271081299574 12.07576252003784
Cs 20.158506351780172 20.28632517945835 17.201727686209704
Cs 3.7163457133890625 18.729220224933425 13.862109246510105
Cs 15.395657896864087 18.87266652497859 13.859837901610534
Cs 18.95349025022775 9.892885112616183 13.278637246686513
Cs 16.172321461795942 16.81856802528316 4.231186698582109
Cs 14.969930910352026 13.489623614294516 13.340294363465091
Cs 18.453861800707056 14.880636205437211 17.103572848253172
Cs 2.1781451678609405 12.725715278033187 0.2527922456101545
Cs 4.607341237103695 17.014936425748143 18.8313479575911
Cs 20.145880472694348 9.250846422362313 18.217155726319188
Cs 1.2857497866943999 5.017290904794502 14.900338908865233
Cs 5.626860352572851 2.136778217332727 16.850221101327506
Cs 15.252824271465533 18.86021548708978 19.227311065449978
Cs 11.279666690335292 1.1637048847837521 16.05332067502813
Cs 20.010226866538645 4.496096254326879 20.02379398509651
Cs 14.63150822421468 10.358203122684765 17.570931771334386
Cs 17.732876316366504 1.1527895063038525 2.5754718841876767
Cs 3.2056642049220248 0.9019057651401188 1.0079959669313143
Cs 17.186955072297515 12.566326291643858 1.1536897603311187
Cs 14.134390604858918 3.861787264077565 19.88574362576747
Cs 12.188143741213633 15.16008925978079 0.7433463910158435
Cs 11.142776058862376 16.05831832041926 16.184541725999054
Cs 20.290896684263533 17.222814749000456 1.1478328927434391
Cs 12.476425523586942 0.005263891826329923 3.061808146131643
Cs 2.6767732685863077 13.345348380803754 15.27367919652187
Cs 19.622778236509042 0.9178825786109812 12.072108993259222
Cs 16.437255919948754 4.380651444545671 15.158209200554168
Cs 8.709956132269504 19.894662237153803 20.41832279602123
