20
Energy = -13.77749282 eV
Cs 15.757956391009783 17.100088224832692 12.96111242093452
Cs 2.250321542837408 -0.11837271245282044 13.879416724441713
Cs 16.418663274021313 3.2983406228879435 15.161705676930646
Cs 0.6683714396262228 13.35289573100418 15.222617844351664
Cs 12.27972456802963 18.643993816564056 17.23007743885311
Cs 2.7980181847190355 5.096546488034686 14.371763605108818
Cs 17.728524774472962 17.640074097839022 18.005200649594254
Cs 14.521268669820492 13.534865960180783 17.10510617144946
Cs 6.917422306162041 1.610526527318791 16.55922453617639
Cs 18.158817778382367 7.862086728897115 -0.5403429998915329
Cs 1.9958982415529254 2.8133266148672793 0.025162376690151127
Cs 4.262588371070932 16.016129071729683 18.160124037516525
Cs 15.234903086296676 3.1944306547672237 1.7534963205693304
Cs 0.007270337193320034 12.9641486117251 1.855826525541684
Cs 5.4711274076402905 1.0704334987919812 3.3331026476542895
Cs 14.340248699643453 16.514434067356042 3.126661757419256
Cs 0.5524769538892266 17.898616876353604 4.277480091037746
Cs 0.6681370282786959 4.524056369184939 4.656564802026541
Cs 4.541129715432286 14.568151601358586 4.47501749864869
Cs 15.764096194134526 1.4514253526983347 7.416880078886113
