26
Energy = -18.83831523 eV
Cs 7.28252388539406 3.289480093169736 11.821316229326538
Cs 5.503023783494432 0.2804684071615377 7.42143421886139
Cs 10.03941688871807 2.8926756297571594 6.743413471204822
Cs 9.54767800817171 18.54887754413589 2.8719995335242303
Cs 5.7499774833002935 5.889594733175242 6.596860701870578
Cs 1.8891483682795533 3.4927002576159247 10.085035113159368
Cs 9.877146535595841 1.648314933240689 -2.1930929693974623
Cs 4.695098594558188 2.613637429373324 2.729610004258322
Cs 0.41274238127531293 17.635621449964212 8.942239663372218
Cs 9.242397227852585 5.357179405938538 2.026923476240546
Cs 0.7166682857035755 7.430683036221147 6.049074624902679
Cs 2.6048559846086086 16.911305863003683 3.8463503335805775
Cs 19.14347034602128 2.33938194661094 5.246679605396206
Cs 5.514290663942151 18.02600099057791 18.589075177872047
Cs 3.180538724781598 7.701145443853708 1.3892613766281807
Cs 5.635005003329435 4.623369755997656 17.016428763502727
Cs 16.531437382593328 17.078795157907592 3.5808428204718425
Cs 0.4065346154720985 16.248547694914624 17.8873007674269
Cs -0.021327159197397333 1.7939635582216293 0.1474614447442016
Cs 17.045918655979072 6.740317591409019 1.7719524028182696
Cs 0.5531108585370864 5.754210492161933 16.227913947935917
Cs 3.170439293862428 0.5357078078196118 14.336572107907646
Cs 13.934362184495207 2.527825269250808 3.1698516651340247
Cs 14.300962078441952 18.247295247586234 18.306551044320774
Cs 17.348657915814385 1.0836691516171864 14.059269053084039
Cs 14.305510232288567 4.394389554803876 17.229988670960207
