29
Energy = -19.69850695 eV
Cs 21.768886449967855 18.328383600925733 14.94338843546018
Cs 22.205473167202904 21.275696421251215 20.4390453731372
Cs 0.2588953494377257 5.529317509468544 3.3764616438440913
Cs 0.3065837844590854 15.655073660712135 19.595263816092757
Cs 0.06346397245723623 12.882774867257513 2.0316492920459375
Cs 21.539756066956674 20.467323554620574 9.843532460442376
Cs 3.209468226753445 1.4802790548643479 1.4979253987488304
Cs 1.0899389344249557 0.5384506837637995 15.746895586488275
Cs 2.9823214946777363 5.514693874550354 16.4215340088832
Cs 16.077794655654113 -0.5329783997631251 9.630245800159907
Cs 0.0016668454649850324 16.557307686974017 5.798554025028555
Cs 18.97778242734247 0.6700678450754826 13.625375701587382
Cs 2.9537458354548782 18.58280627313376 0.6826330475332679
Cs 17.92043205534201 1.6196113348741785 18.87303490295091
Cs 3.8967012730301853 18.85139368406913 17.654528557818253
Cs 20.204468916548038 17.78780203868952 1.15963821980948
Cs 20.586715875053656 5.2596006052595 15.739241214557845
Cs 20.054998678607156 2.4314445290436204 7.403367099214176
Cs 18.17189789162959 20.215278613393192 5.279966836446262
Cs 4.717795587926784 1.1065925391965246 19.363697149381277
Cs 16.305746815282646 18.70744555540126 13.617100998688588
Cs 0.7146053378494863 21.54749863294084 4.912677753783961
Cs 4.17259381654984 6.181282542493497 21.945430730536543
Cs -0.15547084722765528 3.924758074271643 20.462830264968503
Cs 13.893749697217329 21.27386091869965 17.589520569530297
Cs 15.925970524800677 20.915408198472836 0.07279558644667215
Cs 0.6628500344651534 3.2559939896875747 11.373072958176847
Cs 19.824569261374894 1.473257801839577 1.8867955343520775
Cs 18.06912736463816 18.197446522787732 18.701685089395923
