28
Energy = -19.94481303 eV
Cs 14.594161677642047 -0.13694719754925297 10.748847307262785
Cs 13.466001903334252 1.549792021663336 16.513664157144806
Cs 16.123601121803937 6.1564758565700135 16.00741676048794
Cs 15.757342720570204 15.123513070543167 11.247744438805322
Cs 15.383877101904554 4.990120591123814 0.6067413252874728
Cs 19.076126784236024 3.1834208122789125 12.42777693435099
Cs 19.611522991117415 19.236261173309362 9.039189489349518
Cs 0.5059690836815289 3.9633885458431357 17.29512062193919
Cs 17.92812324803662 19.092499017209857 14.734264590903077
Cs 12.941262203777166 18.96879846420693 1.0025755026839573
Cs 0.235728004049961 3.59121543914901 2.0298551134136416
Cs 13.210381239453305 16.762193802769584 16.38374350435537
Cs 16.65454169839517 1.3847836497477926 4.9648060965085135
Cs 17.558747015183553 0.49159480754003815 19.710001949041764
Cs 0.5017860928090759 14.604827072660116 11.423761747530941
Cs 18.669610140606213 14.481115926541467 16.546552708107654
Cs 17.30244300322983 16.124843281592103 0.813996089518243
Cs 14.72816734079558 11.25454642929101 15.613864874712863
Cs 1.7870831884534109 18.82041645878968 19.056190388051416
Cs -0.12474791671325344 9.617591810619349 15.237045416525495
Cs 13.197415144328415 13.207217616888045 -0.14474135943396768
Cs 14.693890880282398 17.16690902018106 6.025738541787205
Cs 2.420097859385881 19.341399688664556 13.821932282987452
Cs 0.2859662971592627 18.607151643533864 3.7869665696705037
Cs 3.4207768451661167 14.478974525840744 16.13909291631492
Cs 1.265661054327779 13.454783718000758 0.4989181855702125
Cs 17.688740851568 9.880011154102162 20.377363960179192
Cs 18.75070284423166 13.880247940508118 5.670265832079485
