20
Energy = -13.87330523 eV
Cs 7.239796791843435 4.582954180228597 1.0776580669478923
Cs 7.2204035347220445 18.488838088409704 3.090824993047561
Cs 16.233773851433156 18.222904233582234 13.275275153455105
Cs 14.6192875670733 17.669345211429768 -0.27347415727187646
Cs 2.0177758651934807 15.725435007259996 15.367713692430888
Cs 17.165573116784536 4.641208182310683 3.2306479256798406
Cs 3.206723880448064 3.301760552870903 4.266250219587602
Cs 18.393022290963813 2.0761561248339717 8.46343247740941
Cs 1.7481214393378877 2.271365755482744 13.438535783384717
Cs 16.20209971313703 -0.5175400307939141 4.679277601852706
Cs 16.22959015276201 3.5611066160501683 16.816056363853306
Cs 5.49372065600369 0.5324284708261843 16.896386571729597
Cs 2.1302969862080627 9.26662660149129 2.0054567102973735
Cs 16.30921497960847 13.511407245235695 15.840891339625943
Cs 2.519402914435887 5.0876890041601035 17.825369761809572
Cs 4.541051807442942 14.235954694288212 0.989505144210589
Cs 12.216141396816159 2.6488105220591467 2.6187031295128893
Cs 0.9351305051041539 0.25601806424801843 0.5587601762655741
Cs 2.6333712597491843 16.864059247674447 5.308213649231731
Cs 18.089786844412426 13.952501865304209 2.138289117365145
