27
Energy = -18.69400723 eV
Cs 2.879171552768042 16.21606765454678 1.312146302022068
Cs 0.08420122347055374 11.86618139804753 0.698936005062421
Cs 19.49882642039889 15.799246167773749 4.4933857569211995
Cs 14.337693690581697 16.58202451992434 4.881436623876505
Cs 2.873650877652003 14.08224016609055 16.860978352017725
Cs 0.4077172404681838 20.813474583446578 2.6416443437431747
Cs 16.034858981206366 13.681651235706864 0.2972059707382182
Cs 17.229128110365117 0.012982483946489851 6.321001913034467
Cs 2.5027885973899346 19.8707342557603 18.42733595799224
Cs 19.74453988711762 16.33519442646364 19.07817918555489
Cs 19.4574015867409 11.216782242399086 16.837851767846722
Cs 1.03994695218465 3.821000187124617 19.846358133977812
Cs 12.641355272233241 0.41709927155693405 3.5653517970502575
Cs 17.320681726031637 3.4344276848630857 1.9627345575943904
Cs 16.84062851268899 19.233606942957994 0.9244093189178777
Cs 19.454410457440165 18.55065567390299 14.61271608990072
Cs 20.270598715362944 14.195291350380574 12.367982036909899
Cs 15.547444696757351 14.980704794234272 15.914125889856505
Cs 18.13788019215361 1.3931522746502478 17.778089320616417
Cs 3.4354543357349523 17.743677405717907 13.303514097301152
Cs 12.381572982391859 17.626367684423347 19.983173344179548
Cs 13.161719175858346 1.9672491929512579 19.848424982509076
Cs 1.2852679933779292 1.8442182020065039 14.100797181299788
Cs 16.04179587310931 17.35367448137082 10.502978592184324
Cs 0.2660238896609891 19.4608114891027 9.454380075792725
Cs 14.062588684365801 19.998533536259526 15.383218707921039
Cs 17.35879028583996 1.571554368224893 11.831261687066757
