23
Energy = -15.46916692 eV
Cs 4.21384590431574 12.88745898574424 1.3749791442099162
Cs 6.893468921565866 17.3367551787784 0.4940882932046037
Cs 3.0623827585906187 1.0025947790242213 -0.2567452582784604
Cs 6.014927146497982 -0.25377963081888716 16.05780869288307
Cs 19.52103225556325 12.237012910492641 0.8501856892316598
Cs 1.7993598567653346 16.19642928215931 18.25702358669675
Cs -1.6479179729959799 0.11954291526881017 18.517280695013326
Cs 1.4188898331066437 17.465211619371093 2.7853958007409405
Cs 1.280962111835121 3.4567743390183576 15.573258399221432
Cs -0.267818280465718 12.373150187253561 15.207250677012496
Cs 0.9229549883572118 18.75819632147845 14.006095654192773
Cs 16.364207041898624 16.58952480070452 15.840298026869444
Cs 16.829196241339766 16.84655125754905 1.1403078246087506
Cs 16.95241269149826 1.591141077486128 13.73373606210945
Cs 15.579802971611091 10.99880155639186 17.567074928760736
Cs 17.865527000713676 7.275784262389338 13.960728911685614
Cs 17.477966233431736 5.178054772465991 -1.5057372194681884
Cs 14.046883229391232 12.616114751975246 1.905093981116218
Cs 13.748424719466737 0.7597300920854686 19.52585694224789
Cs 11.728099577134552 20.030340281006435 14.8174838009801
Cs 11.864776055231838 17.49670051380294 2.804026044317527
Cs 13.271505544790699 4.723129441921353 15.581627109284582
Cs 11.85397256428443 15.694344812924497 18.282576913643798
