27
Energy = -19.13731033 eV
Cs 9.257415722538173 18.392390241436512 13.969068428784158
Cs 13.8554661677054 16.574699334797852 10.421931316036957
Cs 13.035206606877962 15.158608021160942 16.181952244244727
Cs 9.756888946693557 16.175187718066226 20.085437219274034
Cs 10.677524474714522 0.8889798530775253 17.738150499018122
Cs 14.462370365055202 -0.7704406135494516 14.190204458720663
Cs 18.01087322963475 15.418871982975858 14.076614032335069
Cs 16.96692657789992 17.992097519542433 18.536585376995667
Cs 14.35832905826994 14.729838887532436 1.2991498906628456
Cs 19.1636277591265 18.77520114600193 9.913299653937113
Cs 13.190310020701668 -0.9185245596175684 1.1888280899521109
Cs 17.096967531042687 12.16070092204614 18.509425996877415
Cs 15.79933636331695 2.6100638656965813 18.50081079925184
Cs 19.476561812314944 0.6308337305179211 14.833720608062455
Cs 2.1162307641634572 17.737186367869477 13.705989467773394
Cs 1.0302951548601893 13.845886004263471 17.727068956035417
Cs 16.278261198432002 17.6119190822541 5.482277125890282
Cs 19.679220026424016 15.457775738992309 1.6538524768109568
Cs -2.3805712044772456E-4 3.7658657957928745 18.78668547410813
Cs 1.271845382705575 19.162337463321315 19.15501786170383
Cs 18.51568474050199 0.2770186854033395 1.8068863760851144
Cs 5.764775117719397 15.922473524300704 16.961314494266297
Cs 5.202253823791036 0.6624827163120536 16.826440220274815
Cs 4.298184330070999 16.05732515890324 1.1715408457253609
Cs 1.2782493708176377 18.9422845726315 5.091247373034212
Cs 2.8557778120173607 1.947361682914946 1.8208792098861353
Cs 7.301491074417624 20.466748520208697 0.7573654890075067
