29
Energy = -19.50115217 eV
Cs 0.9365594933030637 5.0544294402949195 -0.3923705402491251
Cs 9.322810859322473 -0.9261485750557306 21.54951967906008
Cs 1.5890955228063846 2.3831876272214285 4.517329853622167
Cs 3.851780483511807 0.2776457542589173 0.412562272385111
Cs 9.197052016416254 18.87254281397796 16.560330994648275
Cs 5.188856874858227 21.730245537987308 17.82604524004843
Cs 19.68069019324895 1.8638900716987827 1.4692998726831388
Cs 18.08764376474145 3.605330718433243 19.179982021977533
Cs 0.4011552772781498 1.4623361015032745 18.38277729765961
Cs 19.959880742491432 2.0022414420632004 7.461502167920443
Cs 4.8015249383487655 16.384126585338063 19.159744833039184
Cs 18.095928167572193 0.15394805296339456 15.150221045664253
Cs 0.5430913332561489 19.4566074990441 15.684736693551432
Cs 18.623213293946044 20.509315672033587 19.988882983898055
Cs 17.12372638557121 20.93264979554509 10.109673453381358
Cs 12.798052427899506 0.7834351975442342 17.448863433865522
Cs -0.24336742298396724 15.304129934348731 3.4892553493310015
Cs 15.700207755347202 -0.39999272507432754 5.047633093409848
Cs 14.478641225599182 1.0668296705723335 -0.00158956747523765
Cs 0.9087645695429574 18.653486754992898 21.431447983095257
Cs 18.10337180431786 17.31657281044265 14.384389601443203
Cs 20.51416229162463 19.95856830246552 3.7213380372137133
Cs 1.0766286069608544 13.036887921265121 21.456747582795746
Cs 21.62268195673625 14.826351709814213 17.138424864214183
Cs 13.332052465033687 19.57061789352792 13.334663069289347
Cs 18.6145386301918 15.568306069044523 21.463103298635236
Cs 14.246789460384418 18.37758859374845 1.2148658288980867
Cs 14.125915554025351 18.201479248443857 18.502472702603818
Cs 9.590402349128944 16.245241102038396 21.30867198424009
