29
Energy = -19.91961621 eV
Cs 6.026636533405003 17.35982663550495 16.088378558260594
Cs 5.67750459159354 14.470713909050293 20.898373114734575
Cs 6.997298816386898 19.759859039045004 -0.016404744956175128
Cs 0.13492810137357078 11.581513715586965 19.472807123269654
Cs 2.6265153293511685 2.1247263248832424 1.5654613853813415
Cs 3.115795527949333 0.42422896570752255 17.396652564767066
Cs 0.8933831534101999 18.55229407171043 13.431335420334335
Cs 1.862850372991111 2.4853694403644275 12.242221756435796
Cs -0.009555780181624075 4.740589446036964 18.407727371497423
Cs 1.3446573989674286 12.78912077158868 3.3975054533771245
Cs 2.3845477648488806 18.041260809737334 2.3878191994482365
Cs 1.4536151458444864 7.625072573116958 1.946433335811848
Cs 19.35196622691344 -0.5224710237677631 20.153912959596493
Cs 18.553678630419085 8.667088418764651 15.811118798348897
Cs 18.54127453278934 3.9315720613319707 1.9944293860897482
Cs 18.957809104886632 -0.3689956428369833 5.004655113668456
Cs 1.0372163516753494 16.55737114507752 18.37892052590896
Cs 19.360554197955956 13.945402400509726 14.355776036662206
Cs 18.312336033617893 16.054529640128017 2.6045148176238837
Cs 17.239492522508012 19.21991533079195 10.295751484041167
Cs 18.569294887255097 1.858623983485006 14.740424119010179
Cs 13.708015146538626 1.694188308864235 3.006511448003921
Cs 15.130484006065286 2.374123933112672 18.834563360235514
Cs 16.32871669660912 14.191121919482779 18.9340973668139
Cs 14.131004750020617 18.145260019825333 5.878734709198584
Cs 14.149734707013536 18.55082509168736 0.22694182069401958
Cs 16.310806014922594 18.42066647891051 15.78807057293579
Cs 10.36783320380493 15.687748565679229 2.635224372416609
Cs 10.541970181884642 15.796607104766046 18.29619600853472
