21
Energy = -14.1528259 eV
Cs 5.493842344656347 18.10937275847442 17.192780792358715
Cs 3.913752009763786 13.936018340058189 0.6925293765910842
Cs 2.641266775869963 13.513344808703641 15.987590916468791
Cs 0.8733144308959225 18.200272706163613 14.007938756450907
Cs 0.3978408420167485 17.55256367856461 19.2745090792359
Cs 0.7844675708657723 2.1161392881807375 17.77698549403539
Cs 18.75667699028125 12.782593741694582 19.332289592163146
Cs 18.19444870624275 2.258551280895575 13.508308602126673
Cs 17.926936588760316 13.917939705324512 13.922943656558324
Cs 18.33575197259982 1.400481081215765 2.0529220628896803
Cs 16.07053446007302 17.818204903225414 17.11973003854109
Cs 18.30199006493359 16.475392735969496 3.534479801927273
Cs 15.53424187186463 2.8957549651005623 18.098497850295498
Cs 14.006882095269804 12.093881998944209 16.82288219990692
Cs 12.511518501335132 16.0565232495521 13.768691673250455
Cs 13.302041604595987 1.0312069335249445 13.267812304230127
Cs 14.270044119977442 13.94156218367613 1.47147412198092
Cs 16.685827512177084 18.075203898296184 10.721252684038046
Cs 10.770708362370977 0.04882246421321889 17.468270508127908
Cs 13.787438730763867 19.125265850398876 1.5086970084871028
Cs 9.900537962493917 15.124074308256796 18.828985221397932
