39
Energy = -27.47275876 eV
Cs 21.963803157872864 5.030023480482027 15.05162842449488
Cs 7.318899270952543 2.0412867859715833 18.85447534930673
Cs 3.242242710601695 1.7505273872106901 15.201590595078585
Cs 2.555076268268791 4.628433753931089 19.657482190613315
Cs 5.996129933390802 19.821184183801826 16.582165558759737
Cs 19.396435059159 0.6965963266334789 13.025009557556757
Cs 20.183838614932636 7.05015713515797 19.802249331007566
Cs 16.799896431624397 4.2133187095458275 15.994697128251117
Cs 7.601130764082314 20.625133126589883 21.842398308518
Cs 4.665819067921007 1.7745136965727812 1.0760584004743905
Cs 21.014621506763778 1.6095891737367232 18.857538832305977
Cs 2.58999586368502 21.823254783020133 20.07934012106204
Cs 0.1619813773861736 20.470614266579858 15.342914039825732
Cs 22.653691816517068 15.323811484010301 15.327262685585273
Cs 14.123004332310042 22.48644734147523 14.125784600949281
Cs 21.67547924251583 3.3696196284667517 1.093944597144497
Cs 3.1104302507709485 16.653152213010745 19.79996523632364
Cs 18.041530986300184 18.305617524639455 13.984180198490915
Cs 15.997383332469354 4.074919228395984 21.00984138266071
Cs 1.745291098831493 0.5297055782468724 5.032683312873288
Cs 20.637617210508964 17.869157521617375 19.406480497253526
Cs 17.094877012030356 21.691987589457433 18.15617880575133
Cs 22.395466897133268 12.335808088034579 19.67245665393788
Cs 3.668281273753381 19.00364531265391 2.1614329521444375
Cs 19.2709255428178 -0.1382508634792168 5.417206033992591
Cs 16.81196131974352 22.75636603313697 0.8343995284391015
Cs 21.545595335561153 20.741414805278588 0.9416733407406728
Cs 12.343469320422765 22.361860599956472 20.05020257450273
Cs 22.50788890690838 15.463723505490977 1.3458281009927633
Cs 17.627100944283395 13.969681265146596 17.238838671781735
Cs 22.637891318703865 18.444887906589774 5.9507390417605
Cs 16.00253479669408 17.615582618119507 21.489100787081128
Cs 13.430393306578717 17.7559260728261 16.929440486729476
Cs 18.182226603019412 12.737258407161614 22.639915319486263
Cs 17.87014629713602 17.62909955066372 3.642588469546199
Cs 12.789635772409843 19.85080492024712 2.3040826691591563
Cs 13.43265982553933 12.61555345751812 20.074400527161114
Cs 10.436268702720696 16.64660220897706 21.264927601468894
Cs 13.676742009063265 14.49994175063069 2.27834036665846
