31
Energy = -22.55478637 eV
Cs 13.519261817944429 4.242834363357675 5.044566357439285
Cs 3.9587119502225523 18.958986619078505 3.0108433389413296
Cs 9.142043530699743 6.408496925513611 12.84769088486111
Cs 13.792856072143097 18.56083010042512 5.867532170855331
Cs 15.99668636146875 9.012446896827099 5.321013841723447
Cs 18.953900375462883 9.962160495458074 1.2298820963153234
Cs 5.472863839079293 12.542388578902791 3.4272615472663195
Cs 9.41011216589539 6.945798198263836 7.482911799622088
Cs 8.743903676872538 1.5101281834252087 7.896760937351651
Cs 6.693378231370165 3.9459247461029685 -1.2363456300323918
Cs 5.3395049404334225 4.091659948900443 4.6385978014277
Cs 5.596699946779979 10.913457238663899 8.346422551064633
Cs 3.689184853673922 -0.02288933870813483 8.340908354130304
Cs 6.402528406471664 15.820597381695137 10.885796203164576
Cs 1.1014614978894208 14.75274691627771 1.1024671891528557
Cs 4.127399959152122 8.923986862217376 19.42193323651219
Cs 1.0655913241315969 4.762117855834814 1.6416805509066656
Cs 13.023083359483213 2.837378686383565 10.417614350307243
Cs 11.467379194735393 17.178686753504866 10.488584915034384
Cs 0.5714369288490514 13.24305343165135 6.155699589144968
Cs 13.92673048306186 8.050994117250836 9.962264676449784
Cs 9.536919844173141 1.3631334862181796 2.713986413112385
Cs 4.909765420485838 5.154820396969937 9.967439887295743
Cs 10.934439255625875 11.948896632962358 5.191229615539108
Cs 8.219686388868753 16.42098251871093 5.737130631417148
Cs 15.016411000893957 13.592165200246086 8.222457610105337
Cs 7.766451554159025 1.2421701938150382 13.08833224310577
Cs 2.183595729327485 8.18950885352476 5.468283531381397
Cs 10.109092377358609 11.761648522005821 10.643571617073375
Cs -0.7849837248105472 2.2902012716892273 6.023777489109497
Cs 8.49263509438805 7.752547461954253 2.46541334134539
