35
Energy = -24.14340064 eV
Cs 19.945454447222772 1.8277152618429096 19.522739734878108
Cs 22.485971492456336 21.842087624360037 3.9859528589992923
Cs 23.019817968768717 15.825949674271923 4.445377297859265
Cs 0.7732334005375856 1.4959003313396384 11.25156492454293
Cs 1.6374100335414443 14.592896171264714 -0.23938294314412015
Cs 18.585676801093527 22.509226791159058 -0.24873172343060748
Cs 19.569434322669 1.9903276893184045 13.981604349338117
Cs 20.068528479254628 8.053005209390752 21.30794913579903
Cs 19.228658013415515 3.0153826288985797 4.240261771076719
Cs 6.569252935075982 21.230202663575263 19.89558997137856
Cs 17.529548439569908 3.866039623259874 23.515384833704605
Cs 2.9687864375112363 18.745642107254913 3.469134371444706
Cs 3.4852026939654355 3.096581378046052 0.9843923206207232
Cs 0.21545832058328487 2.807583643654099 5.4911219092234855
Cs 20.873656148374465 12.754767527087484 0.44136604801920426
Cs 18.529349696072973 17.992648568593417 2.9366262275817925
Cs 22.463294637399393 18.67857278950536 -0.42707127756504454
Cs 0.2641637722311145 5.236597315294497 20.889321063998253
Cs 22.093015107391786 -2.655465316333034 13.255865517365612
Cs 16.989180984440043 22.55116081261697 4.9304782483437615
Cs 23.027664906178348 22.071855237396136 19.053409129042336
Cs 2.219355136574 18.097767432640197 19.60708627924926
Cs 22.601134339018312 1.6227627048774755 0.019495924104721132
Cs 4.116531497538478 -0.3366014538026216 4.998108641699667
Cs 2.231490197749071 22.00365649723993 -0.42019200012429103
Cs 1.1213674885837237 21.22952506721615 8.584930801496292
Cs 7.082130407936567 22.208425167840144 1.0478219892425051
Cs 16.997428951203805 5.4584596003910955 17.890381018482135
Cs 22.46351604819242 6.677624581354525 1.7084268631601458
Cs 2.9447477816833922 22.202121818313184 15.63183409573962
Cs 20.51315341045874 18.9277025736066 8.054803835168073
Cs 5.971043886141186 17.388341158888355 23.285377314045938
Cs 0.04493524543519578 2.581299918360284 16.331635406053852
Cs 3.531991422355231 1.2841966897525072 20.04562503134609
Cs 20.38065348832546 0.09832474169943863 8.71550536483371
