32
Energy = -22.76507793 eV
Cs 16.76553218743904 5.8728709843187845 15.239064927665043
Cs 15.108557225890758 2.4625282312011496 19.643968196117576
Cs 20.672308261793063 4.293900761753674 19.53030427649122
Cs 13.412455361905353 0.7775286254852876 3.757794802846233
Cs 18.639208351123717 1.290219504950709 3.2500676252464813
Cs 13.697490022483716 1.795459990532633 14.318998725529195
Cs 10.433585572542214 19.93660584405537 20.292817829492744
Cs 2.9588985190243084 1.4491407950403596 2.078992005797719
Cs 1.0285124675717088 4.339558796426003 14.065217437220255
Cs 18.22152816483685 1.9522791442367529 10.602927757974742
Cs 13.947250692374721 17.87056765797087 16.65285669969265
Cs 18.629302293333115 0.408469129333122 16.027090414866034
Cs 1.1452068883267819 18.363411374146914 5.619871088900447
Cs 16.415513744596268 17.605591347038583 6.002905783864133
Cs 15.893458853166132 17.850867064705476 0.5649498321828088
Cs 11.061653665405947 16.80700569604642 3.7555389317345935
Cs 0.1415201748279021 18.73830090639747 20.166836189669375
Cs 11.994837692552931 14.33583380826811 19.93525655656353
Cs 3.6390152837605165 1.069177917062 17.323578643661637
Cs 14.968013783027555 13.063718042929283 3.376229432327828
Cs 15.7629871978653 18.221744776505872 11.643850627196
Cs 5.0947122546899335 17.469047400920328 1.0595099382218993
Cs 20.187286906710863 14.368657311010685 2.4776151518906118
Cs 19.271488455216385 15.9127784242231 15.74686550094173
Cs 15.24829215147791 12.854784584528108 14.186887149193735
Cs 1.064113102107579 19.156190026235553 12.232598195785599
Cs 16.99440502843829 12.23956867256648 19.179780026678326
Cs 4.282937093250718 17.081560012955396 16.42601848832914
Cs 19.28763775799913 14.61233812735868 9.885257902288116
Cs 1.6776688862318305 12.659007317794833 18.63276746501299
Cs 19.835387253789783 10.02463718350257 14.450323677689846
Cs 2.606584750409015 13.56956861263634 13.15295891952621
