35
Energy = -23.67806627 eV
Cs 24.164392576880825 3.9955384928096045 23.741286260401594
Cs 16.709896751022217 21.40378783776156 1.1915359761234352
Cs 23.97658954224829 0.11589390750561591 8.416346251025526
Cs 15.667288486592494 1.3568563282629447 1.8254995449685212
Cs 24.632310118815695 0.22665737752052004 2.6608284157078907
Cs 20.78540406616157 20.72436925827875 9.346404543991886
Cs 2.719864672468026 24.31161468405919 15.809780514566595
Cs 4.108643311775282 24.365321027617917 0.19821348828410754
Cs 18.207462697041738 20.097324121162366 14.439405763850912
Cs 24.845997601946863 23.134396858442607 22.71243050464431
Cs -0.026836527778444825 2.7925988030186386 13.449280942446277
Cs 21.845022871549443 20.659474029686606 1.75197565420764
Cs -0.21327900263477037 20.586677429529345 6.227424894574129
Cs 20.526561393391436 12.52194231270643 21.165682166321858
Cs 18.686037474833658 24.09014019655727 17.731439556597685
Cs 3.7949589766414897 17.744831252862813 22.054864382917586
Cs 3.6513443082533565 0.36693156705803304 10.578035976141106
Cs 19.86407705046773 24.337248130444923 4.759315048556859
Cs 23.215117270407152 1.9613088337423792 18.67148175371488
Cs 1.7282890966637563 19.806524277349453 1.3396607297596195
Cs 19.749312921375534 21.305759137303543 21.783308263769154
Cs 19.23323868946806 17.197245562196436 18.568607806498623
Cs 23.794609119912458 17.767534244919524 21.276735662790408
Cs 20.362093814516538 0.5644138969624366 24.312934213051275
Cs 0.6326987217502352 21.19795074403689 11.885583203388755
Cs 22.749448475911976 17.8978225010911 14.602876584534743
Cs 21.600194179411226 7.322093953237366 20.19436864198586
Cs 23.516544566552675 21.841425247630923 17.744192827614214
Cs 2.4902279937739564 18.689495539951096 16.946864305635955
Cs 15.686389225255159 -0.16506468648235414 22.01728109823799
Cs 21.68457997651341 24.1213585106574 13.330674192357105
Cs 4.253924433020252 22.40021032289886 20.249393040956818
Cs 19.067057989814355 16.86078564733394 24.178024188478588
Cs 2.949854364563314 2.230372371663583 20.681938098217294
Cs 3.6616157031828642 24.020902515254967 5.460240435039885
