30
Energy = -20.8818852 eV
Cs 12.521974011547455 16.60342384637414 16.07411558574021
Cs 15.797226270675424 13.206457436416718 12.807868423632305
Cs 16.26103887682204 18.209210245384888 12.272750293190672
Cs 13.98279979589133 11.729131131236924 17.513379310486414
Cs 14.024090886981064 15.254520336978509 -0.021078550242928606
Cs 15.253149498375121 21.23141239526818 16.48151240823789
Cs 19.059792836564736 3.9352572741591767 16.727513826605733
Cs 15.914578325275965 2.0260802261975774 21.11279775685314
Cs 17.568044032378733 15.647723287648438 17.571697362469713
Cs 20.676871767457467 15.227787061067486 13.48730545075423
Cs 19.02189243369122 9.986336415556629 16.0153424731997
Cs 20.15289005056459 20.815927807968777 14.835146665454396
Cs 12.224051579170071 19.76117295075865 20.569716526759443
Cs 17.453650726212757 11.10395761514378 21.215257174646343
Cs 18.783168945159215 6.2555084783104675 21.506880115089576
Cs 15.670797148168315 19.60793990088154 3.1058531251235197
Cs 1.355246958576646 6.932302030746489 18.374862690356185
Cs 0.26858720241232104 13.066178583839777 19.068430186445454
Cs 18.635456995146864 19.456600158235208 20.5548237982671
Cs 0.13348272610653436 1.3822869551780372 20.5452405362111
Cs 2.9918080557451745 1.6431491880486593 16.220832080575363
Cs 1.7608750065994516 17.97946977820412 17.276803547216968
Cs 19.056864317308733 15.25196341359445 1.7855517706269743
Cs 19.194940785064592 2.302284662015096 3.5187637585017058
Cs 1.5997984465430357 5.448577850361897 1.9041944687189227
Cs 1.8624969107866134 17.666269055437514 0.589963466273552
Cs 20.814639780112905 19.48228432562188 4.622040628116271
Cs 5.314982001462574 3.6702096470664793 20.523752720713155
Cs 5.835790032102743 20.40771615323848 20.006564213592437
Cs 3.3546154127824903 0.5355293214761524 2.901312662697807
