30
Energy = -20.88626487 eV
Cs 15.616374698421444 14.826168617562445 8.041063830258746
Cs 17.014414717713446 20.4739405490373 9.838141570474962
Cs 20.62464415354542 17.042482020755802 7.989020172823349
Cs 12.724605637826675 17.6906645363428 11.631034460064093
Cs 14.066484936857433 12.731155702295487 12.915353379695619
Cs -0.27833384324814703 19.751395275383747 12.53665832570914
Cs 19.428832481859875 12.607365084742185 11.18838053664432
Cs 13.016709533361151 0.41791040062561713 13.047614192384332
Cs 17.542158821592096 -0.32707822316729673 15.665336356668075
Cs 17.73059072418815 16.735753353320177 13.853464305629522
Cs 13.658998334665393 17.998797676461695 17.155024441507173
Cs 9.265270265919632 14.995513036935083 14.734610516388168
Cs 0.5477726456158122 14.267973245464747 15.390002012208516
Cs 4.479408720666974 17.992154826264883 14.582521436781105
Cs 18.143400685545597 11.503246283363822 16.47716930092665
Cs 9.126520412748741 20.485753033482112 16.339222539534376
Cs 13.181256464061764 12.71797881434643 18.26239423247537
Cs 13.167453195636991 1.3865459418641752 18.14932980125613
Cs 21.961912376120942 19.29337507068009 17.872830558046125
Cs 21.995602160269627 12.73074772120687 20.783998850614896
Cs 18.007228666250807 15.924742755660088 19.627612826975845
Cs 17.036827964225775 11.089376009968449 21.85378113028023
Cs 9.153194241236747 15.782387370723646 19.956820635875598
Cs 16.763272304917233 20.896574230597096 21.07353257586851
Cs 3.730990189319175 16.197964908827053 19.80868439146964
Cs 11.489024921668145 20.211381091632454 21.741717465748085
Cs 13.97434923513189 15.526097885903736 0.9852786406595408
Cs 18.840141604609418 14.096904097015603 3.594603071029299
Cs 21.45439059943832 18.111796402502545 0.9904148863255909
Cs 16.763975462465655 19.221895813831004 4.141855868310497
