35
Energy = -25.24921037 eV
Cs 14.982015354291216 4.802484558506771 1.4014246768051883
Cs 20.178877756967122 5.113957624271888 0.24597371543738422
Cs 15.742500877481271 4.403639834432429 17.178054292052874
Cs 10.264636028644766 2.210228090230286 19.37857732793508
Cs 12.880559175354596 0.7799607646413527 4.043329787215118
Cs 20.577675541657413 5.224613080992487 15.355012571975116
Cs 18.33764998213932 0.6452731969519125 3.623122154276686
Cs 4.029924898005807 3.8020714038331147 18.6051450167058
Cs 12.63711800418506 0.9035308854783543 14.479417056846756
Cs 2.3455446941534928 0.13830582884228637 1.8267009064681483
Cs 14.711183066668816 20.406233246401296 20.14114584241056
Cs 17.597187836592624 1.2851541967028326 12.885956070693663
Cs 9.49341155832326 18.20460811526677 1.1604751539508593
Cs 15.002482040009745 16.892859579948528 4.5670017925308795
Cs 20.01430155125246 0.5317055394234609 18.109426596838947
Cs 2.4367225690306578 0.9802349724222637 13.756271569166852
Cs 10.283200593935058 17.69201096374264 16.65862441576303
Cs 5.081270149789475 19.417656525173303 18.23928415674891
Cs 13.417400751772487 14.850633580393053 20.427534724307016
Cs 4.264684136389352 15.88947449881247 1.2968762871699868
Cs 18.971421780408875 16.801492452341204 0.39662731969744236
Cs 0.12341183802197114 16.12242304133782 5.0832691862926005
Cs 12.893780186279102 13.307523797421545 14.983111687046057
Cs 14.470935346077136 17.444281562505463 11.16406220616906
Cs 5.262982980422961 17.320684000968498 13.426151648015185
Cs 20.335112791212943 17.711989153391436 11.579563542754068
Cs 0.7910359575405526 15.76012366736513 16.701668267732284
Cs 16.301047016970784 17.43851879926285 16.026476815669934
Cs 17.063129657067087 12.254579568203193 2.853435791461565
Cs 1.03782612846397 11.848368072867736 0.5273174184244208
Cs 5.653780810175573 13.627124213987242 17.330304274559474
Cs 17.738664789632853 13.011811750956669 12.905687168646082
Cs 17.21358172190621 11.71371541783356 18.2212047615612
Cs 2.221675602567168 13.151656678562409 12.129609405488077
Cs 1.197150917586871 10.148124160911092 16.416648230585864
