32
Energy = -23.314531 eV
Cs 5.656330085783663 14.929744862597422 19.05206059634323
Cs 9.601565397018462 18.588494776632977 1.1303689122175031
Cs 10.957551404792552 3.953332064034466 0.2581054667145171
Cs 5.752557247056194 16.796854425934242 4.390718497757278
Cs 6.9144622061099845 0.008188647863573595 16.9212178023914
Cs 1.3968029079765782 13.638505634599916 3.888155847110682
Cs 8.702980565060747 1.5441436252505638 5.420233508212578
Cs 2.634098762873471 17.42333635883997 14.905919189167067
Cs 0.14858123083769342 14.284766463992428 18.685307890291167
Cs 2.6956045484380273 18.832657544249955 0.393403488470466
Cs 7.886985899671554 6.656076745950622 4.6294910977809165
Cs 5.5921802773507485 3.1572018410530527 1.0553088231254086
Cs 2.8715351085899172 1.4858398527930612 5.519057524033153
Cs 7.750001868072981 7.497841932534731 -1.2601409245815345
Cs 5.178505131228576 4.9971555057836134 9.022612253634243
Cs 0.8076380624622354 17.072608123264473 7.763665351639227
Cs -0.4441277111015242 2.9656118007607177 1.1392552028279141
Cs 1.8623176049751606 0.9978758551839881 11.035630195953333
Cs 18.129671467516285 17.33923768091072 2.678223514399863
Cs 18.407542803287356 19.516779438378283 17.05844630861538
Cs 2.1621341495846687 6.494241812421844 3.9053185712168212
Cs 2.50293726466389 2.902212732876827 16.179875596530973
Cs 3.8148309943413006 9.914959038366458 7.2755574813872945
Cs 5.202138984143079 10.673933268509716 2.077144834965745
Cs 2.462417613054077 7.534627682090142 18.553635318756946
Cs 17.319242889660494 1.36451197628835 6.007362974731689
Cs -0.11066958794572554 5.435319416128894 8.714142777987437
Cs 14.655519016122907 0.5225155745775084 0.7704271031884311
Cs 18.514561102430886 9.775193043520293 6.405821177067134
Cs 15.968795805900324 5.416047260110874 18.522056313754103
Cs 15.539808706786863 5.860955946012908 3.9018360621528045
Cs 18.658421150934554 9.64590490416761 1.1241792521318075
