33
Energy = -24.25777934 eV
Cs 2.523682574677465 15.05375011619083 15.069780914045712
Cs 7.263982562833842 9.053261744489717 18.193021818970365
Cs 17.67370888083912 6.918123022543683 19.717670644290354
Cs 5.178094408400082 13.937970421230048 19.85027461536768
Cs 1.5277194055677532 3.5238907737673517 3.0079930566378725
Cs 4.407719807483237 4.273490356674845 17.815486998443493
Cs 11.401423008529836 2.2500353862027964 5.039287341822497
Cs 18.75372740705028 8.535082117636781 4.548880673427667
Cs 1.9857231956288028 9.008066983968867 15.957234570955217
Cs 8.271320788626799 2.00115401000571 11.040481061017648
Cs 5.1335998956964595 2.759326539397679 7.028383171232299
Cs 7.218866532530239 5.5569371936006915 2.6888432851062247
Cs 0.2577841827342674 0.10308288919085751 7.786698078984118
Cs 2.989145011305655 8.661627471992476 1.257154735100684
Cs 10.183234476935597 4.504072569818352 18.338712084500344
Cs 14.430750649057028 2.126988531814264 0.47934991040205144
Cs 9.293014135534568 6.628508172883199 7.411232402018156
Cs 8.166852012877039 18.32715549400221 6.520058133126968
Cs 7.6493377174647526 10.91749396165831 3.503555013651439
Cs 2.269953925952656 1.6162642369962843 13.412861916757114
Cs 16.682120725028447 3.660517994428166 5.169904458140866
Cs 19.202787670616043 2.1800467274379125 18.0800282613738
Cs 5.286109102887124 6.294278119515967 12.178990163840858
Cs 3.133349700519593 18.88839085954254 18.778508021131422
Cs 18.462516125966694 18.95253805001487 2.7231115034532185
Cs 2.0122760763743046 13.047833524483117 4.631787751324529
Cs 7.658030643178503 0.48542076188431155 1.5061316566501266
Cs 4.01248202764322 8.259460246496491 6.654890313973959
Cs 4.451711824314874 17.950670609352187 10.345963530513128
Cs 0.6345478502309121 5.150899175829314 9.167359277324127
Cs 3.526797660907453 18.079990971906653 4.110018774166243
Cs -0.010346592800475576 12.802745882385501 -0.3811936711216307
Cs 12.779182076342098 7.1740501415398015 2.660543616016572
