36
Energy = -24.86785884 eV
Cs 18.984853659108193 4.695970391735775 19.99531557274935
Cs 13.669533682258765 22.962169651602256 14.283083672890127
Cs 5.330463513733399 15.001071278468412 21.40245958868088
Cs 20.589705968044203 19.95912103286621 9.119856924209953
Cs 17.19965040701638 0.5052471545544345 10.22494252539988
Cs 15.249052767515423 21.335545071678688 18.936932984060096
Cs 0.5343302831503273 20.661166073963855 21.362057182290908
Cs 0.5062242638480962 15.430934038075252 19.676668517199904
Cs 1.6713442982509774 15.964663757459213 1.8994820458267014
Cs 21.158515682829744 19.35362593726313 2.3123012081505423
Cs 16.46567681853936 17.917798810064053 0.5684697514045796
Cs 2.004303582052443 6.038546593038129 18.915811050936068
Cs 21.57594484983115 5.324542319180597 15.478791847089992
Cs 5.908809654058244 19.630843241516793 0.1419713344448492
Cs 2.7738847090966052 3.374574509189402 4.133174368654138
Cs 16.935413571651907 3.6668739790013976 14.652647103847901
Cs -0.3046206529065763 19.020585611141886 15.259052317598254
Cs 1.7953154024402196 0.004408063782902551 8.420119734268226
Cs 4.372709424838546 1.5329457082009277 22.206179374461975
Cs 20.009548849282908 13.918646137276717 0.4183874430773422
Cs 21.23046560938703 9.235763791423405 20.698377090102472
Cs 2.598147680764379 21.460336200980908 3.468751378047384
Cs 1.525993701729395 17.83721613403867 7.525243917547409
Cs 3.4593160258620514 21.439335171388468 13.051840301938137
Cs 19.97186527437422 15.747894984250596 5.513452762325281
Cs 4.204270863777597 19.490805231779067 18.119585224651573
Cs 19.92539159509801 0.17295964653283524 17.503857508152155
Cs 1.7182142617648921 1.1155777521106232 17.395181346280353
Cs 2.9978490496988326 6.968262114966146 0.5536641900794722
Cs 18.25843927686636 -0.24073279489177665 -0.3234413052102873
Cs 17.08545623363982 20.482255081757337 5.08916045298485
Cs 21.78409402164118 0.7597146882278826 12.670740977914917
Cs -0.5177767722151649 2.580854420007353 -0.4395603498636899
Cs 19.454322506597915 18.232414527408565 19.57280963038198
Cs 21.138860193316688 0.93876304678533 5.081012376857501
Cs 17.891739505187463 19.836406262126594 14.268929712701249
