39
Energy = -27.28386256 eV
Cs 3.8841526210695414 5.58279211866823 7.608994514910811E-4
Cs 4.792445928535152 0.001407899101558982 0.1538631953501662
Cs 3.240545266705073 2.3559380431924475 19.235066734153065
Cs 23.28729810630555 4.42020308148012 15.979950392641078
Cs 9.111975581982591 21.462536732341146 3.115477871870577
Cs 4.000600147803341 20.278859843433587 19.108428299389605
Cs 7.540208519719134 3.2162986170534316 3.225233847591577
Cs 2.1919076558356587 22.97901059774813 14.682033147015876
Cs 5.566262464393365 18.205319547544093 0.2503850755360877
Cs 6.0846202935883085 17.65273631425833 5.337592855175338
Cs 0.02402954229246723 2.2272898589380445 10.503952081857111
Cs 1.7963075046064336 15.384957932156778 20.911394893020322
Cs 2.5020957687017638 4.285822502601699 5.063039830829917
Cs 3.2357438565797265 13.898902091797714 2.474455367749317
Cs 0.11984814811974055 17.838159239626403 16.36772788085396
Cs 22.333958195275482 22.499645591906916 18.76775557971309
Cs 21.95004731467096 20.662176145611923 11.814966881058409
Cs 4.285022152193358 22.63080339156771 5.457706811104061
Cs 19.514864682057965 1.2789896528499796 14.53740995522353
Cs 0.2620269315509551 20.018807311387597 0.13691097046724116
Cs 18.46490521233578 19.769226104881245 16.246145459382173
Cs 21.538426170597553 14.94079127436949 1.9334971565299932
Cs 23.10304153882623 2.2324512333064908 0.3857922656459064
Cs 22.48050726898127 0.01989293249660919 5.320202937547563
Cs 0.9026995521685716 18.330060252716887 5.098473148648333
Cs 19.524732033882707 3.6403838883535977 19.63196936389904
Cs -0.016030596166054414 8.313853188081417 2.4843502333421603
Cs 20.039154330359626 17.287474167642067 20.65653977204792
Cs 18.828677333230903 22.249431597662788 22.7461686673484
Cs 19.106181008869598 19.479633416536448 4.01953143390385
Cs 20.79312372688776 5.1911476138618085 6.084253820927585
Cs 18.97493105124458 5.480536014302441 1.0716365558747183
Cs 15.580925722340137 0.3853105648898594 18.205047666446426
Cs 16.39076167093998 16.134826564918242 1.0500691946567229
Cs 17.54625119931394 1.4296293793385109 4.166154643941348
Cs 14.924565485490918 2.4600593275831235 22.90660842847469
Cs 14.927514963310777 19.25052967500974 20.538611221308912
Cs 14.283507786464591 21.046940289202883 2.179555230126573
Cs 10.639236862463049 22.632610883801014 21.71323759735129
