37
Energy = -26.09135875 eV
Cs 14.532661596484266 21.138811655716463 2.7004164335913274
Cs 21.541667950078025 15.324201142214383 3.7948997841585665
Cs 19.826938599621485 18.18270548654093 17.489721931593316
Cs 16.296916739755304 20.219125300078538 14.469383855165354
Cs 5.171392136069892 16.656023636755904 15.317131268902463
Cs 16.41009888294035 16.777716862796865 4.762133081232512
Cs 1.6419349691752538 2.8602269735806627 15.301876616358225
Cs 19.771459739599074 0.6844206529081386 17.346805385463206
Cs 13.147132795457651 2.448788936581947 22.353316948026603
Cs 18.83906603329409 17.8818743526898 0.12608122378059108
Cs 21.813629119661382 21.678582294920858 21.563916639985823
Cs 16.421480466777094 4.472843667106419 18.94995409087157
Cs 16.734763883237807 14.434979724756689 18.97537323244921
Cs 7.736318597307139 16.78519265255584 20.140945608272304
Cs 1.618659721877021 19.64268223028818 3.2431661033389156
Cs 21.8262004726366 4.607945653978612 20.192962292996764
Cs 12.677671030438164 17.791602252538354 17.724181090310264
Cs 20.473769715586513 0.5501098278482109 12.326376532738868
Cs 21.82894046357205 13.987494397455903 21.00391274910462
Cs 20.039263153258368 5.680611013274157 15.184809045440986
Cs 17.488902140509325 12.770015860819397 1.3414748650783554
Cs 2.334319778772188 18.30434455605527 19.68366367985876
Cs 1.3710655758774357 20.48096617096326 15.170263737054352
Cs 3.9201481554386532 13.02348838650103 18.98128325353261
Cs 18.2919723829284 2.3057744984575415 0.9303845656813505
Cs 5.566581906153712 20.99558662020284 0.28749969462791425
Cs 16.025407670970736 21.152635521198796 20.2346374635131
Cs 0.26836116479411287 14.775482351786518 15.599626191254764
Cs 3.3771940002873406 1.585032189196148 19.908829149336672
Cs 1.0816578869286704 2.0211921161884483 2.15535868387398
Cs 12.45052445083789 0.4275236153071968 17.082875747291368
Cs 10.570787575908493 20.871825744674545 21.579708772674213
Cs 6.860993776096468 21.258943890866618 17.51581895375422
Cs 19.608578741957018 21.173709755896688 4.218134529149909
Cs 15.876928343692027 2.7164251760504174 13.83771647750215
Cs 13.540176108435912 16.299775981319492 0.11551593470611446
Cs 3.6611458964022 15.448836415120082 1.0535031082280388
