39
Energy = -27.63511914 eV
Cs 7.499964443933469 3.432264851964459 0.8003514751975247
Cs 4.333456351346223 2.0211780031634445 4.856602187302228
Cs 7.244073197052013 21.09432569682044 2.8717725562583123
Cs 2.023841178141136 5.437127977772214 1.4932795115197663
Cs 9.168726082236367 17.110433000280274 22.567339145958762
Cs 19.92579335642302 7.46914314070433 2.430385012618006
Cs 21.977977152297473 2.595408762695871 5.006416949717952
Cs 6.890506550569125 21.95892696097532 20.592722087467056
Cs 1.489786915216925 20.223212879398698 4.737770184308733
Cs 3.836831264316224 17.370686409070213 0.6839834484334866
Cs 3.6395131728688184 3.6569894135518806 19.64504973703458
Cs 1.5999244544392 -0.25896044132752133 0.05001134631546752
Cs 21.966628222049316 7.180886280637174 20.05686119689251
Cs 5.678921346821328 12.881044779301407 21.294691799908474
Cs 20.06443305382319 21.5764354505059 8.105667299237153
Cs 5.9397288857950805 17.208410205651965 18.03013450117336
Cs 0.4049846994176982 17.205169948936533 19.50664398611074
Cs 16.804932692563124 3.0920937692309303 4.87223353967747
Cs 17.476189281151942 9.912889965757696 21.409869174359905
Cs 18.851919715017125 21.14379687443754 2.9881790355488222
Cs 2.5440634385460057 12.733475201535555 17.216659886981038
Cs 19.554883920621382 2.841429134392842 0.12592838532416756
Cs 14.507034288651457 5.836409936157384 0.9552126953718446
Cs 1.8932278715060296 17.207215635084555 14.255583025596131
Cs 21.410913552252484 16.822902209652334 1.7874268829497684
Cs 2.478102723161362 21.58033322935014 17.389967889703318
Cs 19.215080547668578 20.56846498305993 20.66213175153618
Cs 21.29043318691798 2.1784551389754125 17.887880256823134
Cs 16.79494164583749 5.149069745313435 19.104674564667746
Cs -0.006435118169366443 12.173085950548025 21.845353516704918
Cs 14.104426422019245 0.42148146124549585 0.4035018644678658
Cs 20.32356530287155 14.385322748728305 16.017539836151272
Cs 20.328372436756776 20.048834203074442 15.32194422522312
Cs 14.644114415158318 18.051287419614773 0.12071076664197909
Cs 15.978929323425518 0.2672225032116699 17.508897714046228
Cs 11.388242699478095 3.241848130339625 19.657593662626454
Cs 18.314353936844142 15.050852586667803 20.748832253571084
Cs 15.87175388234691 17.74584412795647 17.08701516259104
Cs 11.644435742427877 20.483573959363227 19.001753717782545
