37
Energy = -26.13452288 eV
Cs 0.08340368973441789 16.617876499723053 6.705779002772336
Cs 3.1631931344834188 20.478753141528305 8.346631825790068
Cs 19.81308951754598 20.98408460829197 7.577174416643461
Cs 0.1716813165308502 14.842063247825983 1.4415777491038642
Cs 4.241035418589965 18.044539652204804 3.463815523681016
Cs 18.25426698595563 16.91903834429898 3.70593031216682
Cs 0.8064737193563621 2.5197182962917717 7.508690291979367
Cs 18.0724186225299 12.601562548666067 -0.270477209520594
Cs 4.670553726424235 1.0611765131634172 3.8273401286293987
Cs 17.143716371992234 21.68544937119027 1.3763827482049191
Cs 21.82730179150625 13.90888763654803 18.356414181093875
Cs -0.12048834560278851 21.203360586753178 2.779917236749181
Cs 3.7079570501689636 16.713200068100235 20.403451076204558
Cs 14.608210595252284 17.013843727682115 22.305882837910353
Cs 18.98568374212976 3.1948987278887735 4.665404053988136
Cs 20.035437377766872 18.576510450068398 20.60117440307395
Cs 6.659335728502429 21.00840215958196 -0.3939449456907983
Cs 16.533442705663703 15.088903591282161 17.69708259512203
Cs 12.11273465956292 22.1439872894027 0.25600744254359575
Cs 1.7203377208197395 21.661515866809058 19.004698063946076
Cs 2.51296008811631 17.391721304487945 15.254858615718405
Cs 9.626888317890549 1.7094870667252549 18.565324260911858
Cs 1.2775222370718642 4.954824014896961 2.5760773277072624
Cs 20.340975794664143 2.8499866340751225 21.45037583824926
Cs 19.856941702412303 18.193701692327032 14.965625962669542
Cs 4.202890195150611 3.4781867026815885 21.010438791395732
Cs 15.352538176881653 4.33245344375415 0.9095568676035355
Cs 15.059752137862873 20.262317191591706 18.229482348483796
Cs 6.6070788315906706 20.129488241498237 16.85304242931045
Cs 15.131365148693355 3.070136534490416 18.507037858850428
Cs 19.41479427913693 0.6687702310856015 16.493885472208966
Cs 1.1575182228819147 22.34374950035425 13.27241457241344
Cs 5.151955972395893 2.5204543704014313 15.664290853659036
Cs 19.416568557515813 7.89116903395173 1.953070944967373
Cs 0.6881762816534319 8.745172196581311 20.79977919056355
Cs 0.5045023277760948 4.675058368376513 17.03495167196861
Cs 18.322950131722045 7.54385010657779 19.17258670567269
