32
Energy = -22.76006457 eV
Cs 7.241572201211559 20.447837341979373 20.04175042458094
Cs 15.847553903867498 15.861478207648778 14.545385548983713
Cs 1.2388565181249982 16.157518358480264 14.135600326168378
Cs 4.64843218373784 20.145393244963987 15.111898088957945
Cs 11.443496030546818 1.4920530496741842 17.62856895241073
Cs 14.28336337488264 20.819403446889016 5.243871324479541
Cs 2.5276575366392184 -0.028410374759113968 2.575534356538115
Cs 5.549472554780679 15.602970037203155 18.29491433193576
Cs 20.16885128882029 1.8738355635939812 20.174545001067177
Cs 1.611276952077973 18.86832905495313 19.601826592766745
Cs 12.802072011567292 15.601024963115453 3.2501902323951755
Cs 17.75888993150711 13.443658369917319 1.7469878108607615
Cs 18.4118834945527 1.8713077746415396 11.03465226544723
Cs 15.729050805451914 19.613999945604334 18.463901593657884
Cs 19.662881177114873 20.082345437199503 15.353984207290912
Cs 19.50451003694013 0.36149349553005977 5.811260768584817
Cs 0.8204630448263022 17.091796445597275 5.149222634853328
Cs 18.56312307411355 18.008528127746324 10.506499289885731
Cs 10.617164199250416 17.500753024511468 16.56370566306065
Cs 1.6041615700054042 14.147930357344196 0.8082171779746037
Cs 13.987624218301082 14.663623721694396 19.676488308054456
Cs 19.48175027440322 15.057401941715586 18.4423414138951
Cs 14.123035733851856 20.846441307110915 13.325222862150225
Cs 11.833250152608237 19.75889083542024 0.5537378979862329
Cs 17.12881433587735 16.240313906995052 6.099200987763353
Cs 5.797381133266486 16.95559132136515 2.2810787976733304
Cs 3.797354957817047 2.5064119596359182 19.166841432174916
Cs 16.639202144966216 3.086776214044285 16.411695140795118
Cs 15.32479305700133 2.2830950769610343 0.44133223873766825
Cs 18.319986020923622 18.697518282602395 1.3649606625487252
Cs 1.0749299963725494 2.678400046597274 14.692040078804409
Cs 1.497554073079339 20.566099152540644 10.361370630347816
