33
Energy = -23.29681138 eV
Cs 5.172362710290687 18.578760010839165 20.673367168166507
Cs 1.5484669996092049 1.6569664165272024 1.603097338244361
Cs 1.8769112655623237 0.5497692115041423 17.381420968146042
Cs 3.2003217597950306 17.098382030709978 15.502640297867254
Cs 3.3027631511225297 18.843738589575086 4.4739488578682405
Cs 0.5391335380355328 21.072315750159863 12.20540544889906
Cs 20.398381359985162 4.6602773506676565 14.820622300900597
Cs 2.6498308281112175 14.05213898483184 2.617113967829537
Cs 17.225144368017904 2.4115531467140623 10.991283622447199
Cs 0.6793157252798753 16.160135023749394 10.574147988562933
Cs 1.975123988556756 12.990264770773827 18.831691172999278
Cs 20.562384634748067 0.2617834874296593 6.718146297296722
Cs 0.11516107029997316 17.879388006011162 20.78470302522692
Cs 18.837773869726853 3.320046201506075 19.723235174948094
Cs 17.875804354320433 20.80312259238886 15.932942543397171
Cs 1.0660828112605076 11.897915124943951 13.867034459463481
Cs 16.98923771057144 18.28644521728914 10.862226612869325
Cs 18.292591885534982 3.790263582200255 3.706957961076229
Cs 17.53481012483119 13.121740825370916 11.772496728959666
Cs 19.339693706453865 16.040932923146404 16.03243693327864
Cs 14.742152327996981 4.242573146515765 16.163896876286667
Cs 19.682838903763184 16.591051628858867 5.367491668315964
Cs 17.314491857185384 20.021952088754713 1.3382789905331893
Cs 13.927363863079016 3.041461730622776 0.7745014378083728
Cs 17.094265923198858 11.386200508792724 16.945474807024855
Cs 13.025449757890616 0.04257749760085451 13.108184265657462
Cs 18.81748105884449 13.24683854584183 0.9106791596805227
Cs 15.322633799134657 20.692305937015337 6.073020574017077
Cs 13.931068449549217 16.097405066742205 14.735584752606501
Cs 13.12989816284848 20.522818329479147 18.258596386282395
Cs 14.857566441827219 15.669309530722836 3.9990987988224735
Cs 15.128602431799862 15.916539366415709 19.777389081353856
Cs 11.651758856026934 19.223128992753804 1.9852153229148644
