36
Energy = -25.20960772 eV
Cs 18.27467329753794 18.93709725136832 9.657851265804148
Cs 20.78432570868527 -0.12031313899325013 10.829665690277663
Cs 15.36214970330411 23.034491838995567 12.547071336106518
Cs 14.756029457606157 17.67943147267766 13.325378541107884
Cs 19.752878370411928 15.447812332233998 13.445868540183891
Cs 23.39323487957279 19.07967650893045 12.422391050332285
Cs 15.551035966340649 12.658517785825763 14.919632469659362
Cs 20.237860242311402 12.15607054626009 17.494659554682364
Cs 1.296844748577096 14.530875173830278 15.028363950904705
Cs 18.945465288055594 3.1244968645836 14.390557880028489
Cs 11.763294019238426 15.432442481458473 17.231739014113415
Cs 0.132938659009009 0.37255232750024536 15.41544233120232
Cs 19.146772791829584 20.960832379048956 15.417908215450906
Cs 12.686848547839997 20.776866962795257 16.970318885028917
Cs 3.0089322929888307 19.456655994861066 16.601894877989174
Cs 16.87615082227033 16.596458826482483 18.45135482221358
Cs 22.079020970063823 17.407086827630213 18.44592643342233
Cs 15.022680921776104 1.966467056177398 17.636374484207696
Cs 20.26983067928225 2.089466073135987 19.340072448730304
Cs 17.12857278740678 21.349237143816186 20.375484904613348
Cs 1.1787216930750657 12.966303321481004 20.160837565839504
Cs 0.5109914415723681 22.10772235687926 20.536083377378493
Cs 14.901469913441085 12.426089908103389 20.51054080842618
Cs 16.236152931471878 2.35683312972866 23.00677579297113
Cs 2.9997851376953895 17.667791534684646 21.67982295375945
Cs 20.266283563956954 18.459083956506653 23.351615245838303
Cs 12.547666711480645 18.0246914042665 21.70592352051105
Cs 19.857172164924314 13.063443070271301 22.597615756588272
Cs 12.138156420540534 23.133203483556592 21.69583665220793
Cs 20.77104043754826 0.2614070191402557 0.8877072752574559
Cs 0.3794641684349415 15.014768247023923 1.7089361839314385
Cs 0.7791314446097087 20.262575310944428 2.480998163188244
Cs 15.829319642913017 15.677597227660101 1.0718583905373038
Cs 15.934633849758061 20.915374780588824 2.064987229243959
Cs 19.621227698787404 16.858036109704752 4.814222799235856
Cs 20.01879399725729 21.834332884600016 5.7437580427858625
