33
Energy = -22.35593128 eV
Cs 12.612232490149683 1.503668799520124 1.3578957472846402
Cs 21.038336978907964 5.022883527889297 -1.3575019310117538
Cs 7.442690488922672 2.7098235633939414 2.8553461353501306
Cs 17.11205209427265 -0.5282374989158161 3.790085036029393
Cs 17.1110805616202 22.308491916337463 21.18383482215051
Cs 13.287634397203783 19.560999068627883 5.555299811205564
Cs 8.396728746439885 0.4182656374319103 20.93691756077185
Cs 0.3769043242555533 19.90455002365949 21.279784959689827
Cs 3.7925842298708634 21.748606441870702 2.72298677110726
Cs 6.2243103481253845 5.2950833524896375 20.670873855766096
Cs 0.783305540718456 0.28328177140264943 12.09575018335428
Cs 21.151980703130782 9.899437843595305 18.596541667485987
Cs 14.690664740825946 16.30304633016117 19.699324503375312
Cs 17.92167180556801 12.774480186931315 21.75140637467961
Cs 2.7853086834336787 1.6797006345928496 21.056978484863198
Cs 18.19137238395291 17.655104513466778 6.113657899512461
Cs 4.5320144173685035 1.447933520171906 16.108082091065913
Cs 1.6209213868054535 5.632367189218197 17.288573903284025
Cs 21.61014307986166 0.7943669860102709 1.7887973963844985
Cs 7.037667745679088 19.831217300413602 17.247371826632204
Cs 2.5667575073179396 4.855104899560842 2.5527554221648736
Cs 1.6292442374736018 19.455136876608695 16.17298514199423
Cs 3.5144829327008074 1.8938244416114596 7.057227483157146
Cs 12.491495134293947 19.417226767254085 0.4092769304782349
Cs 14.685923020681262 15.220361253681048 2.57680808583518
Cs 22.675694290615944 18.193112686433427 3.4121554034488937
Cs -0.2802354638029806 14.818985270600532 -2.2040367017545206
Cs 12.495578323414968 20.935508871271544 18.226184303456872
Cs 21.588271895415104 21.993865808878706 7.070235777261643
Cs 21.33392896058138 0.9324157151257891 17.778464612994675
Cs 18.460086465798337 17.958676216216872 0.5567097322055047
Cs 2.2961557837829103 8.685112482285602 21.75846874365218
Cs 19.096162885882723 18.475138153117324 17.783111811158204
