32
Energy = -21.51416107 eV
Cs 19.171961114770166 12.424779543810141 1.06563339542959
Cs 1.3571706855537733 13.496708621655358 2.439966219436906
Cs 0.2587216850957513 12.92476410242078 19.838283973372388
Cs 20.1294427443625 16.59704063998272 4.749608310854275
Cs 2.293516180253741 18.685479311873497 3.4847223267085727
Cs 15.944467735688644 16.47181901077788 0.7867507855771526
Cs 18.214270725582015 14.200501546530948 18.763755604375078
Cs 3.5178853585315393 16.468374651032125 21.304455612074086
Cs 20.915979288853848 17.68086743591276 22.388800329833042
Cs 21.7520485706558 21.482971967177598 6.626864244559857
Cs 16.876981374015383 20.786466767323212 4.139001801124615
Cs -0.559544974349311 18.652293255338197 17.539044200882447
Cs 15.18273188976288 18.40621945843989 18.27834440487784
Cs 12.959243835596679 20.521205209049537 0.2678601162879418
Cs 3.4955623554089676 21.48007097833057 21.726939423404154
Cs 3.2530427746129247 1.3528290931892584 3.9076073850776543
Cs 21.346595151838812 0.026893717474643954 1.4784771262512608
Cs -0.26635782302129213 19.290526778007685 11.877625456369104
Cs 4.568283390533763 4.1906080656750655 -0.4293572159104386
Cs 14.986929735167237 2.4191586690280364 1.1814502503122268
Cs 6.743280684353373 1.4653026867654142 18.242407748763565
Cs 18.35849673299073 16.341120767515008 14.040610639446589
Cs 4.864832766109416 6.468221482519228 4.0305668641411705
Cs 12.830351669755185 0.6748881296892008 18.507939855507335
Cs 1.600110263458195 0.39930052173217706 14.851106039542662
Cs 9.692280292687013 2.62692512612644 0.021941180331431876
Cs 17.6682741256447 19.569734729110994 9.577207184585063
Cs 18.080727876236853 21.597929248875463 14.722780439356523
Cs 0.40663508741805693 2.2820416884049246 19.450395274774145
Cs 18.081414997445425 -0.3070030552862504 20.113460730579348
Cs 20.2507269377157 1.5137142694511696 10.801061180910267
Cs 19.980804285428757 3.76511310022303 15.505112257822057
