32
Energy = -22.32606116 eV
Cs 14.89385436412033 17.53745083463812 16.22760803985309
Cs 18.508560006921737 13.125688398626998 17.032241148185022
Cs 11.941718492137635 0.5289231981305395 16.492888309722325
Cs 16.645299357455187 -0.01755843323538866 12.450040847856036
Cs 13.406023375671227 20.098138518649993 -0.2698394908966715
Cs 19.173546134999288 16.75944805171814 13.004982329635249
Cs 15.421790147813832 4.49658070206507 15.56690427451106
Cs 12.1270570000662 15.074426562062072 20.076715454943226
Cs 18.508695235184007 0.13367721780021655 17.576635865117083
Cs 20.178928120883548 4.004556444762533 13.522296541247075
Cs 1.4792862942457494 17.68976305412577 17.81769095501535
Cs 1.2104317878000876 20.908175209435655 13.260811184962035
Cs 15.290610510829877 3.447083702203106 20.607610859883525
Cs 19.54447060413361 7.24881895546709 17.903468852030255
Cs 14.60377183366817 16.313107002389984 3.3400423926920384
Cs 2.259247533807638 2.79688306319147 17.571792962405986
Cs 18.23085137760383 16.757768460252354 -0.41409685142274566
Cs 17.15518347991439 -0.0015593669641355676 3.224287981792531
Cs 1.6295377890637897 12.942017465255638 20.53527723739958
Cs 6.411137751269826 20.388060834478367 16.893131474343765
Cs 20.47281287972791 3.4740370318018012 0.2777062236096315
Cs 7.243616280647524 15.255469128477916 17.736537414819132
Cs 0.6720084982251373 20.154692383343097 1.4523847192844601
Cs 2.684290963327773 7.364445388357555 21.19417520223095
Cs 5.465811797841179 1.0470902123889736 0.2016617083901989
Cs 18.22008430036075 17.570519914412223 7.014833645295256
Cs 5.468416115069921 17.027697843191866 0.7875512082525864
Cs 0.9438383592378708 15.713166018222383 4.014075387384352
Cs 21.087443384775145 0.7861230109580192 6.899237260499441
Cs 2.932768626294336 3.7544838206736983 3.8823242621134475
Cs 4.526673327336901 20.112543273372307 5.092255321299072
Cs 1.7259385102744826 17.57198634045456 9.090471518253791
