30
Energy = -20.72920172 eV
Cs 14.041968866268466 11.691502263647893 17.24689176086054
Cs 19.22241859982238 11.676667103526254 15.757549489731296
Cs 15.076959655182412 14.84736732310066 12.832060139885394
Cs 10.846793181867703 16.267770137124643 16.186101484779567
Cs 18.39881937439186 12.551958508509014 20.985748935013888
Cs 13.263260711681394 16.111126829926 20.760765177559417
Cs 0.3708991382444472 16.135772819504577 13.514901955683634
Cs 17.381830266355315 16.555761376099245 17.094444329629496
Cs 13.515362234668949 20.18332995901526 13.933675987863374
Cs 1.3763842162306448 14.557148890305848 18.572735033567238
Cs 1.2065982264513235 14.80774998289461 2.7849392916080813
Cs 18.012383107685242 19.213307226831258 11.204716148855303
Cs 18.208185451051424 17.52358933180168 1.2145998937066318
Cs 11.195841733486017 20.98298610516554 18.90660345795021
Cs 6.252845848948406 15.97377240755799 20.897024454870362
Cs 16.308522808172093 21.26741477514807 18.439923277557433
Cs 1.366519711684325 19.282797814302025 20.90078319698188
Cs 14.077267378678398 3.971486593607733 21.149711883911355
Cs 21.083522932294006 19.83164789096452 5.275780869864324
Cs 4.703338635229215 18.501477089555053 3.892656509458614
Cs 14.337652322229696 20.765408042119414 2.485261798944869
Cs 13.096827550669278 4.086681965825419 16.141428594127383
Cs 20.908841489788582 20.729553900272254 15.866431523031705
Cs 17.230902477788135 2.6539133320460437 13.397852024460432
Cs 4.573792816041066 18.573137733881822 16.567606835924977
Cs 6.409363969510644 0.06250714273357522 20.99397270060215
Cs 19.121899644505596 1.6857327141993277 1.2977378049600041
Cs 18.845957310034354 4.780129772885395 18.295139182872926
Cs 2.7350321938282893 2.090829561569965 2.8420099892018382
Cs 2.4005965927915742 2.74199573478122 18.721220705573753
