35
Energy = -24.9277058 eV
Cs 6.2190229862505495 21.361248243120848 20.529921019119026
Cs 2.1752991216776647 3.1029209903433386 0.5536609950095247
Cs 3.5460974610045293 21.17755800215655 4.255798316504978
Cs 5.412577532067483 16.62702826181887 1.0656746860425494
Cs 1.509474719033779 0.13215380840525764 17.84007425569688
Cs 2.569423053310564 16.489071502575378 17.573561457155776
Cs 21.08103110605243 5.952565620974352 18.524994145668035
Cs 0.374581004998216 3.110964481008482 13.665847999269111
Cs 19.885241334837005 2.413388356474258 3.7813553812751715
Cs 0.12666127809281125 19.049879188404592 0.8181734064742566
Cs 2.0498652314431625 16.104232477978606 5.4032277127750055
Cs 0.8208572420289617 19.435277840314214 11.622758127724408
Cs 1.205719066036429 13.271832787055725 0.7053474470758643
Cs 18.200691374651537 1.5339192492716838 20.24813288876139
Cs 20.007213317128794 8.085458637081501 13.527307819064234
Cs 20.16883778628133 19.721966002783407 6.620219386330794
Cs 16.752463930384046 3.67123808590451 15.543188442279298
Cs 18.18607351567275 1.5173817283306927 10.486034589381223
Cs 18.909600361433828 15.403978888418967 19.079223526480924
Cs 18.78087389239591 19.861420366538812 15.420088967654738
Cs 0.41263880953104803 11.209397793339402 17.5793153805291
Cs 18.685937597151177 15.14086249072527 3.5306161518441206
Cs 20.405348487722893 14.601158226993334 13.653322892527148
Cs 16.223614222789696 19.873299286216508 2.6979530509416545
Cs 17.020714936105442 17.853756071733233 10.4815815743381
Cs 12.538222275181568 1.3544168245086539 18.922118000545222
Cs 15.003046336223674 18.509116883831993 19.323517715905314
Cs 13.845894087159108 21.06472648738087 13.956131458979927
Cs 17.44810128764663 11.090045254800241 21.491246215133973
Cs 16.613336783217818 10.934201686236886 16.37511083347814
Cs 13.829643032431783 14.85689863465061 2.062316405987875
Cs 14.86383003321295 15.70672578261051 14.743842835715462
Cs 10.566654090165402 18.92317903977918 0.8253923157712305
Cs 10.051123103371715 18.376626852959845 17.043104918026057
Cs 12.456246722278049 13.657830435791986 18.942382095780914
