33
Energy = -21.82771387 eV
Cs 20.684921785247088 19.62298328005863 13.227009437031109
Cs 22.53882740141195 20.675515621029152 2.9308957243397877
Cs 14.686105104594931 0.7905330950736644 -0.387601033317229
Cs 19.900847582055913 13.897357117543798 23.477373820254023
Cs 3.605296390048393 20.674180099099917 21.319272123559053
Cs 4.119095311848806 22.410141153003572 16.28718260912732
Cs 17.34573794177615 19.0628408077025 23.36855067431741
Cs 21.30208589658984 14.67178006185227 18.240718849058336
Cs 4.047478394982974 2.032452412054592 20.571327178191257
Cs 1.583667176273578 14.407411900323366 21.113052931380142
Cs -0.8230419034863594 -0.4093180747002201 18.286547640931687
Cs 19.48840817649176 -0.12533745789387624 22.159465427785992
Cs 16.799515136950674 4.665445087021805 2.9283710155507436
Cs 0.5293770007211546 18.65701424385055 17.3483693905087
Cs 15.874208225493339 10.15232961061567 -1.3276568615737727
Cs 5.80057815632961 3.0586491178884128 15.43150962118274
Cs 2.792804096472954 17.200822074336692 1.464252669623892
Cs 18.934422923775447 19.471926264839517 18.295670364589952
Cs 12.952364266108258 5.879079111123029 -0.276664915920961
Cs 20.706557075201815 9.75519453368526 20.141122823710806
Cs 17.873574351910904 5.195922220346722 21.618885445229566
Cs 20.550607813214313 8.259064658141927 1.219465764048313
Cs 0.3731954849133228 -5.37155227325351E-4 -0.6566509204421915
Cs 17.739662225312212 22.808225338459156 3.450265071474345
Cs 1.0464218461032389 4.377715903969837 16.95200217580578
Cs 5.534913248531025 16.825842004350175 18.70921887634841
Cs 21.357520631685375 2.6710220819813904 2.5262991924825067
Cs 22.53633697366657 18.804641967328575 22.15130212746338
Cs 4.234401890063084 22.15364106544005 2.1613718589852353
Cs 22.99012596134056 4.799743229228357 21.625649180865402
Cs 20.142142988157037 20.168497100001204 7.769349130285506
Cs 16.282038575896014 14.626743159744276 19.826334902513228
Cs 0.1416427747062784 12.411980041853356 1.7195786089979739
