36
Energy = -21.75900397 eV
Cs 1.595727504310954 21.62880997030621 27.123147435306418
Cs 1.2619536852660882 23.661989266925893 22.450842922030755
Cs 1.1063261582375525 1.519532587367614 21.85557258295395
Cs 1.3033458662728157 4.313475257756815 26.094124412575326
Cs 1.5687196238635213 2.557583129732205 3.428218547320789
Cs 1.7283160583762742 24.621386445894796 4.022079894437757
Cs 26.6078788899261 3.55239094327289 17.264101084286434
Cs 0.8611220238543595 8.66299907228376 24.647940280136435
Cs 0.27536031915490505 5.530722993318196 7.558266516406427
Cs 0.5813370881313331 22.510821757450234 8.546092897565439
Cs 0.4070708782144793 16.450022165984098 0.5310136262066654
Cs 26.909348018631285 20.577521144008198 18.297115119444854
Cs 1.0037190533310725 19.63227986501349 4.582680874847924
Cs 0.41859733173508834 18.513255511082725 22.98772890415964
Cs 27.26980564832911 25.821069357767076 17.73653094005556
Cs 27.228581535380048 6.5136099234760305 20.91803358931162
Cs 0.45470219657047095 7.7266463757523525 2.907023611622849
Cs 0.9518116366293136 0.41506589856710674 8.157919161371769
Cs 24.53414658084947 11.074287781267621 -0.4593483402517763
Cs 0.07161195995905849 20.03963252697199 12.813763688710269
Cs 23.976827915855875 17.446637663837016 15.023410750547626
Cs 22.965636961439664 5.443041056721066 13.605298599346888
Cs 22.97456590613496 15.30193531608958 26.358176927153217
Cs 25.801667564462168 8.70260723982502 11.422576016567497
Cs 23.51733841095515 23.226797871688785 14.886028003834012
Cs 23.648402300268103 0.7172769419372886 13.61493781980614
Cs 25.606591832744073 15.554841495946183 19.148285112621213
Cs 1.0231377067038907 13.651926960322461 23.290023881041048
Cs 0.1182813080981607 15.178481411241744 6.062843565621723
Cs 26.22937118763658 17.504637964256013 9.572502419544595
Cs 0.6791168556211089 25.294436064090274 12.503870922174492
Cs 0.35030043074332257 3.493525517997858 11.990078607345795
Cs 25.86958999325193 10.35539417863216 7.25322141592004
Cs 24.383625843509538 12.987090384500853 3.5503949998402438
Cs 23.830990759930312 10.787888771894556 20.418679806936094
Cs 25.046911587414908 8.473742202639098 16.558049478750625
