32
Energy = -21.86268625 eV
Cs 5.4445103499436325 21.08934501016099 4.487307469269281
Cs 0.15128112271409422 13.861669445893407 1.341717470425434
Cs 2.513513051744916 18.405652424459007 0.4904160619792678
Cs 21.977592367950972 18.720510540174566 4.881617924019342
Cs 1.3192977709112044 -0.43172347246951637 8.570442492431035
Cs 4.85048573550418 -0.13929169191649401 21.30984099086992
Cs 21.831840090263007 16.848157713026 19.51603929846567
Cs 1.6143027924094882 14.162800715608522 15.647483812688513
Cs 4.438695642903596 18.04614628386316 17.913531728098476
Cs 1.2278763096273053 1.089269155249297 2.8455306832913507
Cs 1.6091042860543454 18.477776030758992 12.684071545830765
Cs 3.7686561627509523 13.34960198501251 20.480333111917172
Cs 18.20791566818504 16.182373711922224 1.3601945669717352
Cs 19.53055718885415 0.9575360740002086 6.157462889907838
Cs 1.082501608105919 3.610226839470553 20.637112927128715
Cs 20.269099437816475 20.935874343146384 0.47283294550010413
Cs 18.77356015774595 3.5275489018779895 10.764897069614307
Cs 16.423073684401093 19.777561026139622 4.728363616633169
Cs 0.8408324032375071 21.712161333007494 17.813392143133836
Cs 19.153826112145925 3.2636911665353043 0.387773529678805
Cs 16.852511114804322 15.63696477077118 19.12195208897128
Cs 19.40640866158926 18.889552369527248 9.435131056118518
Cs 19.804715704780286 3.626533977124123 17.129843004646634
Cs 14.957257152677117 19.999275636587097 22.028661003283297
Cs 10.917616753118095 20.885784946032093 3.507408883810401
Cs 14.559310178939308 19.417876445133725 16.19157207627062
Cs 14.844188513977597 1.852295498260583 2.6771526506905476
Cs 20.62280748213729 -0.40806277199517965 13.239975342171094
Cs 19.47653189585656 17.12701263700947 14.649833255072537
Cs 18.596571961774938 21.190831463108672 18.338528887561935
Cs 15.084436553503012 2.4123660817953305 19.818135315243794
Cs 15.671009620154871 1.74456894730817 14.550193752778616
