38
Energy = -27.08076418 eV
Cs 6.086414683711879 20.21727942078663 17.064685327844114
Cs 5.893146551735591 16.786700367885302 21.444817187104558
Cs 3.4457990935586453 1.0895976330404444 13.333002983244269
Cs 3.6599869790547963 15.451929866557414 16.908622071714042
Cs 4.784679996865489 0.2688996558914994 0.15479362836815985
Cs 4.130489233512142 3.445169758194514 18.030099046064226
Cs 1.2300889448389374 17.887230721010635 13.039909647984498
Cs 5.338904879544068 18.958096178455637 4.418320590816036
Cs 1.0394187805094972 13.199903991365883 20.789953568046194
Cs 3.014942429006649 14.288752251238963 3.7046628469539247
Cs 1.116918499610904 18.41794093177096 0.9399664861820443
Cs 21.322427707847165 3.979669463044805 16.07764885053412
Cs 1.0633957696085734 20.740015643948748 17.920466139061283
Cs 20.494162495228082 0.266751843747337 12.905648440418476
Cs 19.25397649726164 17.032838508593102 19.09861143424995
Cs 1.6400631156703187 0.7215676131289409 4.631323778041173
Cs 0.08756384333134877 17.743356053894534 6.41131900495519
Cs 0.5446800851353022 8.536858708949097 18.44653590657247
Cs 20.887580131018787 13.501584015310732 15.523383314304189
Cs 18.147601381332247 0.2600865172740652 18.678064901478773
Cs 19.6217311011306 14.442552425275352 2.4847612574722695
Cs -0.118881978460752 3.4482645941768326 -0.3971959075929641
Cs 19.093221785103992 21.711460150657434 7.825438280087688
Cs 19.667538971412384 4.124740251033097 4.798249372215076
Cs 17.73272544660352 18.135211432598023 13.611457925946967
Cs 17.32007222345104 6.314277734657974 18.278575904858236
Cs 19.23844471982016 21.167793671637433 2.0659992800789255
Cs 20.351796530379417 8.509973260516732 1.2457294826298744
Cs 15.940643847050818 2.0729979334304205 14.305495733739479
Cs 17.912366817866047 11.441469659511043 19.816373646778057
Cs 15.40447680346267 14.288508027529385 16.233116618781526
Cs 15.005050638304589 15.666885675318412 -0.012445696614058595
Cs 16.416405401241487 3.8634488882448768 0.7412827518022884
Cs 16.49150001225906 17.870749468024975 4.947664801845879
Cs 13.88923943532299 19.131136516993774 17.443838173397147
Cs 14.998515326548215 1.2487335739025265 5.196948870301413
Cs 13.051279461616707 2.361452234444346 18.678900974598044
Cs 14.149812129738045 20.754295129191245 0.5706965534325426
