37
Energy = -25.80596849 eV
Cs 20.659398471455418 7.823261787604654 6.161512720651498
Cs 20.640744389450482 7.293669854428411 18.449343647867284
Cs 20.09015193866355 7.970062639808596 0.9341294693367298
Cs 18.17095771644496 3.5752004224786194 3.8481005221403604
Cs 18.69016699671901 2.6829406964769626 16.052204690582425
Cs -0.012099770435618575 3.053972650176755 6.18650358672143
Cs 1.868476073631434 7.413822455909946 3.365822316702356
Cs 18.576691651732013 3.442960980620658 21.3201838823535
Cs 0.9403865213019535 5.067156442017254 22.024184201913204
Cs 0.6615385988248036 2.9396947687731942 17.333504909544903
Cs 22.27645889580531 0.9614070241993882 1.359428355898241
Cs 17.09128258291821 22.276116657551597 0.5589609939369242
Cs 14.70719660828489 22.59003516993152 5.227844559691186
Cs 17.194628254151883 22.002716846437444 12.689558374653156
Cs 15.833122699283354 22.031509632013353 18.299246557476376
Cs 21.192562436192798 21.876042051228943 19.669242609634818
Cs 22.347918049564964 21.98426850845472 14.159642625866447
Cs 19.81245987045442 21.77117561328512 5.779058380914692
Cs 4.121880863661744 0.9544790719714435 20.77676586334203
Cs 17.209459908255752 17.625823516234675 21.066586937877826
Cs 4.116721599503702 2.4931788780880235 2.781762949155288
Cs 19.14777736351951 18.309935160618494 16.23401454487578
Cs 16.24457471640672 17.74781930331428 3.4249337534087356
Cs 4.3937517209905534 22.57229096546105 15.71352454070596
Cs 21.32672474419525 18.14304938311156 2.050992547199301
Cs 6.575383537231953 19.38143721022353 19.432700301825445
Cs 1.967057822581577 21.122122522861314 4.947933985039022
Cs 18.58639490106786 13.215427921027183 0.8283737825307529
Cs 2.0970668733772966 19.771208499158444 22.447963589864635
Cs 6.515867742615945 21.053263243607027 1.9077814793055636
Cs 21.999035164601917 15.403080623743628 20.520481608028554
Cs 1.6574970926382304 18.433542906326018 17.220859000983097
Cs 3.9635843404859856 16.524143084683214 3.1946457863391826
Cs 0.38082069457604395 12.68437777259155 2.4807775934296257
Cs 8.53488838753878 16.382843401154123 0.28089439398631527
Cs 3.9716314326133695 14.855932010303139 21.32233822139082
Cs 0.816088993917791 10.319741765208116 21.18929274676384
