30
Energy = -20.40080498 eV
Cs 20.182818844898616 20.02657582834541 11.637910703591798
Cs 18.033054948921162 15.248525319229532 13.116478211092103
Cs 21.525918545449247 11.093676230408585 15.240511567584486
Cs 23.007956969687406 16.172516370248456 14.424293512003148
Cs 18.722797336365804 0.8053333796043425 13.500725575748119
Cs 16.59114265086719 11.096395345654052 16.31213619008857
Cs 17.984018447843617 6.069408903021994 16.330651665284005
Cs 21.38961942229104 20.85127813237247 16.570266617194825
Cs 16.204923579108467 20.3155192226274 15.22383831639528
Cs 13.91665770581455 15.687437464109712 16.72821801711646
Cs 2.145251553749087 18.862908584888768 17.65330932410257
Cs 19.11525493977475 15.90515880053142 18.165022859070554
Cs 15.246382956127329 1.3458394932017081 17.508237992323952
Cs 20.880744354721966 2.0858147204864492 17.828005029806715
Cs 20.31446859250767 9.107173310657709 20.0439415495923
Cs 17.515062415890316 4.18526155191287 21.375692446762788
Cs 22.73019972610901 4.6746759248805185 21.77663907615077
Cs 12.701402025272651 20.59182586918235 18.984011793804292
Cs -0.13634755761777448 13.768436826953312 19.10364882736822
Cs 11.640237338996128 10.971806925878287 18.45091046052761
Cs 11.37345393427612 15.37267047169399 21.262226462444758
Cs 0.822173574180671 23.541766850047264 19.789720523216474
Cs 17.944277502140338 21.985504141183625 20.19472438197817
Cs 15.793307992315226 11.768340306066452 21.39494253990613
Cs 22.483107606741324 18.726567879530116 21.28991839266991
Cs 20.44903754390459 13.914670524314978 22.991662665797584
Cs 21.11806868197899 23.95642261304075 23.489779460950512
Cs 15.924085407969658 17.510350014590195 21.780877556856197
Cs 16.16972931851427 14.330633971761053 1.856828780780288
Cs 19.37943039909078 19.002015366292547 1.2076817294046172
