34
Energy = -23.08610527 eV
Cs 13.971599637867666 19.3772379037621 20.814340385350533
Cs 18.25068103894893 14.093915570497114 21.29278800750287
Cs 16.000072847380757 0.6300045397801314 22.221947592973443
Cs 21.74857159648008 9.072056556274351 21.439896977289
Cs 3.754655209115168 13.01599046042722 -0.18786973347333877
Cs 19.504669828620166 0.5175352580561361 3.1469809265001953
Cs 1.052626124064811 18.022892159361945 16.2741550680221
Cs 12.50786470126637 0.36386107865375883 18.102798357123422
Cs 19.153834442875816 18.318681479810056 18.46387572183354
Cs 8.063943898104617 20.455528786976586 -0.8950200827625121
Cs 21.21920737764661 -0.13555713179552156 21.704105626881205
Cs 15.768167245138024 3.8841793350060896 15.21642546290856
Cs 20.15779712457487 4.289870778892056 19.114939012143115
Cs 0.5645597282256059 17.56790991613087 8.15718794933299
Cs 14.433247064293058 19.237053853269376 15.625819023367287
Cs 2.0738805270123666 13.778130127331115 4.821524266103651
Cs 14.836019977827227 5.366111794698654 19.91123186311281
Cs 9.476362440300656 18.92843461173965 17.439801880198193
Cs 22.653649794758394 19.444617446097485 3.498264119911284
Cs 18.519706311473467 19.077253461134536 0.26127689771776935
Cs 23.0904484393775 -0.24261000080522765 16.97311152374895
Cs 2.8408411697349036 22.930529016576642 0.5251913865477162
Cs 17.84108325187635 23.06235216290329 16.984374520963897
Cs 2.22066582093752 8.708903207695998 2.051816313161686
Cs 4.051202163389878 17.941436870192526 1.8669852103031357
Cs 4.456741363677656 21.858570342442285 18.761091435689384
Cs 17.986327998038103 5.317283721222353 0.780799527909704
Cs 20.69013717078483 9.603352704153604 2.895832152766094
Cs -1.186174646844165 14.422963566584407 0.9488349848294769
Cs -0.4739595672671837 4.293481104920435 1.2469930142129744
Cs 2.1133726338455814 3.402235744124756 20.24620583590682
Cs 0.27043746619723935 18.719953632993704 21.493530659304813
Cs 0.09789626473517343 13.615955245776288 19.249828210115208
Cs 5.084059277529251 16.761528165257698 19.886710937704347
