37
Energy = -26.23438122 eV
Cs 18.477159950147662 13.424352721144187 19.28579840261477
Cs 15.477610466316488 17.10340588670015 0.5246503515532922
Cs 1.2515464108005143 11.499109727173543 -0.020748639162349158
Cs 20.128067404982975 15.29260532841854 2.3315423129278208
Cs 12.491167895942791 21.110487566190155 20.138566019764603
Cs 1.391340694669073 13.175749332780564 16.840850735355467
Cs 12.342990264863024 20.944934879291754 3.4124815165516647
Cs 11.901539771313363 21.52202913134191 15.19471199323006
Cs 20.40249870059864 16.825667021935836 13.840084299288163
Cs -0.1321957187981363 17.480558965895767 7.516116726813815
Cs 3.309379004268644 15.335706617816305 3.822248011555132
Cs 17.374370018690854 19.413164982943137 4.938881281582165
Cs 16.322392075715364 18.34885353270856 17.110276208152825
Cs 12.071042735962628 3.694098725600152 0.6908076274065824
Cs 21.038408569638776 17.957060248522502 19.387275717549187
Cs 3.8966608566998358 16.66871286404127 20.64126442950627
Cs 17.66517816757329 0.008075461333332043 21.490736841507594
Cs 12.488176236093027 4.538029313734831 17.251661356052065
Cs 21.50912240585131 4.9076750774065 18.088550216285533
Cs 16.31366286824102 2.856853932333099 4.07365385717185
Cs 3.422500587867829 18.493724277991625 15.475580452289893
Cs 21.363833867975963 -0.009998930572073026 15.758103091681607
Cs 16.704406513334483 1.8035362534296986 16.430816266049106
Cs 20.944797770261587 1.100753118660007 6.438525859542891
Cs 2.70157865527613 0.8730021796041249 20.3513768027666
Cs 0.4280765207829394 20.13080183128233 2.3302486654473835
Cs 16.71140370895728 5.4524075149506395 20.543930489210297
Cs 7.8163100665397485 18.074501906856632 1.7936529788786395
Cs 4.400301800192201 20.298365800913384 5.686178999298347
Cs 20.95815311585667 3.987427715143353 1.5233597401109311
Cs 4.222545317747661 2.4537950313350434 15.358188610042824
Cs 3.835595503974921 8.093201751903115 17.137194238116674
Cs 7.400127333360375 20.69169642232653 18.475880853350212
Cs 3.4107007909482694 3.345461012403362 4.496276279512545
Cs 7.271161539741018 1.3467348133536847 1.3851125781567215
Cs 3.833915988582535 6.154688569246275 0.15067989173032167
Cs 7.640522267989792 4.388819542819919 18.891535067068535
