39
Energy = -27.14309432 eV
Cs 0.13737328037052565 6.0206430535056485 1.4547535195620007
Cs 14.804568092055662 3.755682452735841 4.82955134332369
Cs 17.444225211048543 4.957922272316704 0.4123200630847746
Cs 4.180099562667375 4.2504024051143405 20.71600803676461
Cs 19.945516968424233 2.20750955215725 4.279108626689407
Cs 21.357109501436177 4.029385572776484 19.191234164622806
Cs 7.657277263992804 1.7222320330614167 17.300219614200365
Cs 16.240699596821607 2.7803312200529753 18.241457637076408
Cs 12.991959285272252 1.2080895737132682 0.6590699030546698
Cs 1.0754684452028331 0.5505675237798834 0.5392673447778287
Cs 2.67324718034183 3.738315823140437 15.42460527671106
Cs 15.844357155685955 21.192377079509452 4.692851689268418
Cs 18.1893769812614 22.08656096437851 22.214971921317474
Cs 20.013428432308743 3.085443077552737 13.963079148913963
Cs 7.1217913364684735 22.069421780787902 22.21753872843669
Cs 21.06338617873809 19.59708714847061 3.8762088886681907
Cs 16.362150273965057 21.862843639951127 14.220314046586056
Cs 20.636028117910612 21.475024717647653 17.429398629050226
Cs 12.597805557521186 21.223295170249965 18.64330954161276
Cs 3.660691906448173 18.66306415324093 2.320123624167749
Cs 3.2241582222925405 21.732051937828164 18.28765632350825
Cs 12.853416168122434 17.970668974225386 14.358375915372308
Cs 22.265711316651213 17.962458493496793 21.18342493199209
Cs 14.673115193197686 18.20585934260114 0.39703390027839236
Cs 16.88810208302903 17.71211555923533 17.99249830289474
Cs 0.1605029155029147 14.48977170633948 3.06706354566747
Cs 1.0640435692248658 21.733235915138472 13.019362846449136
Cs 17.440715350523096 15.961325684999348 4.426323491931078
Cs 5.516773024666484 17.176747005821557 20.104924598465118
Cs 11.387516526934105 16.109607523925547 19.32383920458709
Cs 19.851196001841785 17.96676535524293 13.28987506998529
Cs 1.7321339034001362 17.03333161909477 16.118228077017914
Cs 18.645140435688894 14.106909255399096 22.124959846700005
Cs 15.165839585929096 12.48502932435262 18.51294906046256
Cs 5.227294010946498 13.557157992710993 1.5859425605902493
Cs 16.200171613534767 14.229081019950636 13.438506525410702
Cs 11.274766751578209 12.887502663705714 15.149736268431276
Cs 1.6221733573848411 13.024642040923926 20.39561899915542
Cs 20.25343156280573 13.694784210440185 16.9037678884348
