39
Energy = -27.54442945 eV
Cs 0.249594283443097 4.880149251471798 19.508251320672557
Cs 19.97094128905858 2.012978741252373 3.6371325172561337
Cs 5.423350783391457 4.462817632739337 21.123466713738576
Cs 18.708932474648186 6.085242166136827 0.11774683317264023
Cs 2.304618414043494 0.6797555418976752 5.275132465871676
Cs 3.8121585319971514 -0.2667434508502733 -0.01529286783070766
Cs 4.055145673463174 3.278628117390114 16.27734714430292
Cs 14.090140225676457 4.471101083598122 19.772026067739127
Cs 16.465794711431904 21.246910617239628 4.776961122781423
Cs 18.84134530010582 1.3444412758167146 20.717839946205267
Cs 7.3132172949577035 22.21355819369576 18.15393794895082
Cs 21.599607086602912 20.17859553988484 1.2851309083531992
Cs 12.601512393164407 19.50347986890089 1.4791156678260142
Cs 3.552829448857802 18.551223495162454 3.925281782419229
Cs 14.884945298431639 2.022398801780017 1.4931390991848121
Cs 22.487616254888444 15.043244966391462 3.9282466453347116
Cs 21.280074058686193 19.641602306688235 6.495211901850232
Cs 18.424582302349762 6.0858488534872635 17.340674855430613
Cs 17.478389159732675 16.52257934402661 3.535978300699919
Cs 14.22964060081415 14.22470050130084 0.14424356120619852
Cs 1.211120675168495 4.593828597178576 1.7640180360468773
Cs 7.72386494988061 21.670639615949312 4.064121869359515
Cs 19.78500194160356 13.835347621387792 22.344321675310482
Cs 17.196484042969708 18.837206216102455 21.296723466949594
Cs 13.160494347345011 22.025000088002397 19.484688146075293
Cs 2.1601471035805924 16.39044388354356 22.107427625855852
Cs 0.4015305921039953 21.828662169010858 18.81060986693763
Cs 11.871321387408564 17.00109380322452 19.200110070063968
Cs 6.230873310890224 3.9064307563870857 3.5116921492149498
Cs 21.772250298278852 2.6779934895916235 14.696339979101527
Cs 16.856695294323035 1.1680423307315426 15.757854742254272
Cs 7.581477196168732 18.83331044425182 22.20562598829745
Cs 16.400616131975347 13.957074992363204 18.17458749722792
Cs 20.853905979175476 20.20917470668882 14.209632216785351
Cs 3.253003624940834 21.536786026818895 14.197594642834382
Cs 21.262463769153904 16.804265183581684 18.16845138993559
Cs 9.614511687315447 1.3685898375283336 -0.13991206851971832
Cs 16.261931841665785 18.71895256030456 16.12231877376871
Cs 4.076940261010515 17.90371485004693 17.74545760212977
