32
Energy = -23.03329062 eV
Cs 6.616049687318474 18.479882919809526 21.417556735002137
Cs 4.701295266853142 15.203013234297549 17.7603826476532
Cs 2.021631241005152 15.747577559811235 1.0850264468944286
Cs 6.872698477237514 19.63297119157266 15.777524257845073
Cs 4.8506252245400825 1.7307199037961387 19.244492656441604
Cs 19.255732608049524 12.931635151879782 1.6317348741770785
Cs 20.746246984205506 17.241958391178095 6.044619569433789
Cs 2.273419445785889 20.8861392105114 2.1432994319735132
Cs 18.991686526753515 15.613655446748435 11.151010897850636
Cs 1.478858447068027 19.407243790183202 18.350841391394486
Cs 19.648131418572884 15.212016462792297 18.3017140355549
Cs 19.661282076144886 1.348307567706518 4.700104258167088
Cs 2.021763345206929 17.34607347384327 13.332081052890826
Cs 18.55771889782959 18.336203350640996 1.4767348591482103
Cs 2.8439336323180213 0.9515014583981846 13.865414552234094
Cs 15.882594815741838 15.20737963656608 5.244700014993919
Cs 19.792444603367574 1.619356121394815 20.584913379545704
Cs 20.471430375402917 -0.6605079217590155 10.104210142071205
Cs 20.201981734756494 3.109460306975591 15.421543987862579
Cs 15.6786450143233 20.34591564864061 6.369852495217369
Cs 18.579622926291538 19.633560991660605 15.200947858708567
Cs 14.687681303891146 13.868607161669551 21.023480357796373
Cs 15.216385885069153 18.86857243969069 19.132555089002224
Cs 14.94938602633031 15.201504920583053 15.222462074689048
Cs 14.817494088548186 1.3438995477807083 1.4826866767480797
Cs 14.318011699393704 17.624865666338486 10.542550239525628
Cs 15.345042383060703 2.423899293253585 17.509552224924285
Cs 15.894536735532114 1.3348325637520295 11.839590464211474
Cs 12.277241258836703 18.045040424994184 2.0198706854194417
Cs 10.371214275166622 16.16253704068836 18.306283629189558
Cs 12.335742635510984 20.21134847509924 14.747500066328774
Cs 10.376737367616663 0.40360736402151015 19.6617182675095
