35
Energy = -25.12122305 eV
Cs 20.899628739762075 4.783278819691897 2.5468792267458995
Cs 2.1333943595357443 3.5800805228685855 19.566779932889137
Cs 16.249082464568154 1.5933773372756468 3.4378165807462087
Cs 20.53294155237563 1.7778536963035305 6.9492314007045675
Cs 3.74603833867966 1.3259809286570805 3.064322086509945
Cs 17.99890375397723 2.7587517680958755 19.72253503971082
Cs 6.652248052331122 0.401933412854627 18.811105190321786
Cs 20.021067362252847 3.2811999262545246 14.89014305082899
Cs 3.8895616374818256 2.798575828001 14.537545895552006
Cs 12.920896823622874 18.523745761620994 3.737390013122191
Cs 20.666330964799556 20.392948404439114 1.3473275991211129
Cs 14.770740012860676 2.7616725903823207 15.450668112629357
Cs 1.6112572059522707 19.998299843211473 17.472108882872597
Cs 1.8807088760207928 18.509145767396664 6.2748406414237445
Cs 13.315248184322499 0.1395105148003778 20.237610802351142
Cs 17.863389042015523 18.65975457327577 5.872554117193253
Cs 4.134627370500542 17.717682527583516 1.0735537366508436
Cs 0.927769039197238 20.651067563902334 11.69433408900025
Cs 16.644535638749154 17.317967835110117 20.958498083457265
Cs 20.930055552939656 14.927768533683153 2.796520887653321
Cs 9.722628348659702 17.85433888520367 20.78916103131717
Cs 11.174781388118502 19.859903339131446 15.589005594142161
Cs 17.47500589724794 19.449942297287308 15.972293271923073
Cs 6.107371737380337 19.45869677751682 13.56552981460289
Cs 16.934182918041373 0.14892761443330407 10.79620892156881
Cs 6.121375160283939 16.131117751089523 17.576468066626624
Cs 16.086576726622877 14.073487044659236 4.388301495720106
Cs 12.40736524962602 13.657122269668541 0.8969327274954259
Cs 0.5149396966843576 14.922971123455298 19.056354417553976
Cs 19.341556903860454 16.37161346466749 10.260917759147027
Cs 1.9625203331519678 15.862300027821156 13.878870114116443
Cs 13.048009565046057 15.199841711879387 17.199054974222015
Cs 14.257575758807532 16.92513176472034 12.127690528084395
Cs 17.194903636269576 12.129798482691566 20.38301126169442
Cs 17.991124778347746 13.996950243027714 15.321293232791225
