33
Energy = -23.30801195 eV
Cs 20.302636465698445 16.184296071440542 11.094334221189653
Cs 20.554853648671436 14.1023947324413 16.28868957853297
Cs 15.910409628601995 16.59262042185712 14.380638559928096
Cs 19.75406140239445 10.96371069916025 21.132600161977336
Cs 15.361278631720044 13.693860988313808 18.785119918831636
Cs 2.636061395323522 17.161099316701737 14.692247505590494
Cs 17.30173077758546 20.427181154232617 10.424155806259296
Cs 0.95342730802176 21.111880665129963 10.844698622236672
Cs 2.1931820387841556 14.12071398095394 20.159343882050564
Cs 19.931986918478437 19.674600473593845 15.277593584659735
Cs 21.796327694626108 14.533714798518005 2.9954876267369714
Cs 16.441702340891702 13.574093021041541 2.326736732646433
Cs 12.79326608354063 18.63134625911042 17.87028320408886
Cs 19.127718781200734 16.654298542195615 20.747417332622476
Cs 1.4056918177387685 19.380347970513558 19.35441293230896
Cs 14.934773781853586 0.2860835615742336 14.840592133030531
Cs 17.682586475209877 21.587401313095295 19.56476244664203
Cs 3.84040239996841 18.17521602358551 1.9773102409232468
Cs 2.7485551868974993 0.6741074321389222 15.63553518041599
Cs 20.977313768541038 20.80715961785063 1.9401684156382162
Cs 16.455611797048885 4.804040622639058 17.018712294514796
Cs 0.7999607281849974 18.134769963350767 6.635629879333717
Cs 14.40980967632224 18.51301623862883 0.8445045674207303
Cs 17.692229933799364 17.963280966360507 5.247902118214646
Cs 13.170063333200345 1.6310569930222343 20.172519131990445
Cs 19.801962651831474 2.6609842802228507 13.530051548639403
Cs 3.833275255425966 1.3597926277989636 -0.13625198798085442
Cs 21.41716258904384 3.1721845029323488 18.927667996092733
Cs 16.048460870626933 0.9694898604614359 3.1270517351542884
Cs 17.003244878005148 5.224809325476722 0.265452121755189
Cs 3.1206171934780205 0.7605333762650006 5.081872294052923
Cs 19.91581410692028 1.0998470694290663 6.725182449881335
Cs -0.031043113572021334 4.233893819536182 2.3358489995578493
