33
Energy = -22.29215215 eV
Cs 14.586288677790453 23.52963555603518 3.491812909306598
Cs 18.348390792880558 21.29379670752288 16.475218269702484
Cs 20.0587922022617 5.086022644414813 23.436996298099825
Cs -1.0060601864066425 21.65428556542916 2.6669985229325666
Cs -0.2627756926481636 0.9348095998056961 22.767697857800623
Cs 6.291132287448639 19.67184851601521 22.23394647059882
Cs 4.101046467633977 22.536094156866575 1.8568238514620765
Cs 21.15379366109597 18.077701988924783 6.548206029733998
Cs 1.3326801336879006 20.916389070955645 7.235089976938407
Cs 19.03646169209802 0.5566287985866576 1.3316621368920778
Cs 1.0556385016951186 2.6112911123391482 14.804847436770485
Cs 23.03505199005443 3.0628830857331755 3.868543846196902
Cs 3.464559432353133 1.6039496376675437 5.8836673727810735
Cs 15.544017308629552 22.913147276355723 21.832767135754928
Cs 21.835603670483398 6.4001376111536805 18.588402518397825
Cs 20.10607059844238 1.561498491933683 13.822018094801749
Cs 20.23255619351205 20.742317937445417 21.851258636074558
Cs -0.5309799443973371 22.777033506247296 17.545808105329126
Cs 21.818348054425265 16.61631228903575 1.0875745907231633
Cs 2.3049539978656233 4.29035238542275 19.43175527489966
Cs 2.7951880351067606 17.71183932076862 2.7764728110897985
Cs 22.14408108584761 17.942177169405376 17.427613707605506
Cs 4.270210253803621 -0.40749769283267423 19.83593609432912
Cs 3.8798043735693186 3.347656449303464 0.670995208541409
Cs -0.269812297748554 1.4759685447613404 9.640313307599047
Cs 17.825122909020905 19.671101898806782 2.6743756476365865
Cs 1.0957024522431729 19.55619128229163 21.963894832278232
Cs 0.11608428891468439 14.083406419764106 5.093387544713155
Cs 15.408831222271997 1.3025704323132383 16.99103342532939
Cs 20.06061044246203 23.28587326611948 6.680408409819323
Cs 0.5392614758905133 7.071732074169122 -0.6916719233922659
Cs 22.099569449056204 21.05224995574505 11.918502254160613
Cs 19.94511213758905 1.7249441594924344 19.41870773376294
