31
Energy = -20.72680847 eV
Cs 6.178379198892161 -0.2808160668570401 19.713692210926478
Cs 13.82695284334766 23.282428831659686 19.445885520165387
Cs 21.47410008288876 19.199878163560985 17.63070081738345
Cs 23.982263623153028 21.85238821985043 -0.2976602960263229
Cs 23.141333980689865 23.275132878295146 14.654208023371933
Cs 18.43883479886102 15.83821665745761 23.14734026009056
Cs 20.95475211663921 3.1305546591954503 15.884515519493766
Cs 22.088608299496393 -0.5602034717697576 19.863841850842856
Cs 21.81011977505799 18.0594122445176 2.411094308715597
Cs 6.418884129243197 1.9114395130871171 0.006844750968156423
Cs 18.99712605774175 21.040397802723962 22.72575116956084
Cs 1.7066269843016304 1.672896831050298 17.08808452136705
Cs 1.7300893380962716 1.5430811616610407 22.24738881952909
Cs 10.548110269352888 23.95629465892741 23.30729292734418
Cs 23.171892858853514 17.379844237684715 21.778927202591458
Cs 15.216021673713964 2.615214421935185 16.142844107182775
Cs 19.425540244833858 22.713574657832456 3.1453095098820736
Cs 5.07569801448688 21.507168495961153 -0.8043609946210637
Cs 1.7991904449533827 21.094888863234623 19.58475054364858
Cs -1.212406241589261 13.55608062593245 0.6480591607438944
Cs 16.59368669216959 18.216103638108954 2.882673983402398
Cs 22.32544102664972 1.9479363766212487 4.860369315914684
Cs 18.082453769949176 2.7142851166555393 20.280102714260522
Cs 16.31115575875837 18.489150821865287 19.023952951623567
Cs 13.409533473138403 22.186707828572782 3.1915759985597396
Cs 16.000746451312263 0.25979653239702666 24.374404457058862
Cs 13.688246472341337 19.46112647338105 23.389914708922984
Cs 18.07225065385203 22.885356108684753 16.544738485797133
Cs 2.0476395625976087 0.2716819147086218 2.6053942692858354
Cs 2.4604210702362277 17.400698905945077 0.7014857956178616
Cs 21.361486102534325 2.0331696075808545 -0.15644145730695108
