38
Energy = -27.31104767 eV
Cs 5.913013407773975 21.26474813511308 1.1092048022044265
Cs 3.035707729062843 2.779371014353067 19.73366092154502
Cs 6.482387819627376 20.832405861162137 18.204042823488564
Cs 5.223015911138559 16.288107607221008 21.39803122407966
Cs 1.1313415170756078 1.644777465927822 2.4875401775326087
Cs 1.7852317205687294 -0.0034925774834238745 15.334493441860783
Cs 21.974035124601308 6.638502383295444 21.676250791691253
Cs 1.1051445496534016 17.98302814470836 2.911321671481255
Cs 20.43013257808782 4.117785045451716 16.445790781898083
Cs 1.2603164902013124 19.88083156094966 20.3031796626506
Cs 3.1616971829931946 16.844201722816642 16.427338573717538
Cs 18.365639297043987 4.424041396701549 2.753284159930117
Cs 1.2008585372066376 12.531037543780341 1.9050632190787193
Cs 19.07890644067795 0.43240497631664654 12.97188798552275
Cs 2.765921543916541 11.827305691402737 18.943276961302598
Cs 16.294481859383406 5.6490394712358345 19.743898118141555
Cs 20.86180656454875 14.780098654534424 20.15385430379431
Cs 19.494512056956808 1.4031296338269128 20.681246381043188
Cs 18.782532142512803 21.12166785327332 3.717932851344604
Cs 19.600854114614624 18.642565220444933 16.546792918657214
Cs 15.432400116844518 21.68153083496521 17.68706435268316
Cs 0.13580719975707456 18.096032467734016 12.025060644462155
Cs 18.498402219247584 15.179827190049284 3.052642957688027
Cs 13.996492571791029 18.37317218489204 3.4348185776968836
Cs 14.376082259556735 1.1377497432147525 1.103622800727136
Cs 17.27955513075916 18.520601938359253 21.292031207641166
Cs 14.580549407428263 20.192052310629578 12.203041937903274
Cs 14.786339681660065 3.3433706166242696 14.59116933329461
Cs 20.243728619371637 9.24110636136392 17.618570495017476
Cs 11.319903474579906 2.7500216332204603 19.20136447807603
Cs 17.244257361764795 15.86392432306944 12.696449901950345
Cs 18.122218004362395 10.3308696881285 0.2432565486016019
Cs 11.03036974956007 19.457765577778346 20.834276598812657
Cs 21.533268643803808 13.538807621951124 14.758812791263747
Cs 10.630038183604501 21.268852615954344 15.329307322875371
Cs 13.957655307596317 14.497739999640528 21.693878492140627
Cs 13.251250690427536 16.743697202472667 16.576169651536805
Cs 16.81915069902084 13.230108138171706 17.5258402676659
