32
Energy = -23.3117883 eV
Cs 11.189218736691261 3.566571172199454 15.560128215931144
Cs 2.2967256982000177 3.1982499223268 11.359106382967115
Cs 8.304152469311871 6.0934377177064 4.976632358251474
Cs 6.4816933398623515 6.888521178816006 13.768881028158697
Cs 7.663546282891864 1.4153304142390695 1.9221790761928226
Cs 8.667028647736382 4.05322266374591 10.013762631496771
Cs 5.235047757232247 19.01143717142307 9.6948365109738
Cs 10.446981933777485 19.77148534052357 11.872283551361065
Cs 16.206773161759294 4.213972874228841 18.35998618703767
Cs -1.148219724008715 5.115190765753935 7.250382904453933
Cs 1.0301770531639 7.900227252715119 19.51736169091745
Cs 3.8303251695485057 7.535590491044556 8.518183070574791
Cs 5.9945660858438075 4.982731341406808 18.755784912167112
Cs 11.501246988448859 5.462195573230827 0.6229252692794023
Cs 14.308110841481055 2.544309552713704 4.728521462559848
Cs 3.2898894492862465 5.274290732598748E-4 19.625130777293244
Cs 0.8968251803789971 3.564815830830866 16.588475260376033
Cs 9.8069104015941 20.292801501252672 6.6169256088702655
Cs 1.2692523947847505 9.573289279786636 4.447898219736357
Cs 13.259212910333575 7.339130263316557 6.953614410840224
Cs 9.164274150227996 15.146810627500692 9.417430647995161
Cs 2.552386242913825 4.467037642330772 2.6684812331492247
Cs 5.72283318853392 9.076925364567273 1.6958407760516174
Cs 8.438880534994821 9.837761994881062 9.047363806008727
Cs -6.335728030924289E-4 -3.5258526188869697E-4 7.233559112597882
Cs 17.326258419912957 6.730723257011717 2.6708819951495055
Cs -1.3928529374138117 1.2902796580816493 2.1592505705574823
Cs 6.1147653281826075 1.1757000451563664 14.677942126707633
Cs 12.060447559454712 7.577446890105831 12.246849648501303
Cs 3.9539328150121023 18.4653320687066 4.1019307223024475
Cs 14.415460899769329 3.046778960844722 10.332136054012246
Cs 4.720548666549766 2.6526146218205224 6.635964254066046
