30
Energy = -21.28409201 eV
Cs 14.366933437110593 19.483246558585982 15.919569727217844
Cs 12.31226169349687 0.3791353084777232 20.599593246985968
Cs 12.047482474787586 3.4771314904864274 16.30610395237135
Cs 14.747124642381626 16.32836686688652 0.026644606118458848
Cs 16.948113277464657 18.25668103917795 10.736478294858653
Cs 14.755382731707623 5.579384240089478 0.10924067675494087
Cs 17.633283245043486 0.8417160645010527 0.028568394176061464
Cs 15.049380041359736 19.830428604354175 4.662140433057664
Cs 14.894114304210222 2.188295177217832 11.534115431905509
Cs 17.360858524345616 4.040789385255136 5.034808531262445
Cs 17.343992832729164 15.267747521803257 5.693736501598073
Cs 16.702278722348286 10.867300739056127 20.094753364780455
Cs 20.446613319492005 -0.004403813336072669 6.112988758016591
Cs 17.209396075630533 4.134357294576415 16.30340942590572
Cs 19.68000211645898 10.865989665652254 4.026521158795902
Cs 20.055294946437222 9.185758306692605 15.945097560574338
Cs 19.956535074217317 6.355554335942468 0.746585620909033
Cs 1.9081644892216085 11.138557722684569 20.21367592969737
Cs 19.81712711221575 15.909419507036558 0.0010342970738496256
Cs 1.553898275178035 3.712496072484511 17.352841330827708
Cs 16.972589113557145 14.469193903369767 15.915994441867701
Cs 19.547442880738096 19.415806869542827 15.952942269088533
Cs 1.7843832405109092 16.158496568314753 4.663571285821571
Cs 20.21616235546777 2.160289970769223 11.920351060376788
Cs 2.283783050998896 -0.11345128914418245 0.6566889701326274
Cs 1.5380568823033192 14.60889927826407 15.666945321517387
Cs 4.372151555544932 15.930595279641473 20.19958086262582
Cs 4.005339701326326 19.70760523832784 16.180489967693152
Cs 1.6697973602840497 18.368649044217758 10.761167468873253
Cs 19.546872523504486 13.740099244919117 10.731740549697175
