35
Energy = -22.98458134 eV
Cs 0.3992359577802285 22.574090419087007 12.009422505284558
Cs 19.95464955059098 19.419341699308912 13.060827753774284
Cs 21.55097282492693 10.063119933778436 18.36324454745213
Cs 15.359728855430781 22.186851598917556 13.718556274743726
Cs 1.1775967728633334 18.00497579351816 14.930846869809622
Cs 20.620027501087822 14.798754811731232 15.723491900263273
Cs 16.12492515049202 17.596437880329265 16.49750969318228
Cs 19.954046434928866 1.042295978460339 14.3938905242289
Cs 4.813016975232163 21.937790914778798 15.134014782270922
Cs 1.1856542887739763 14.39589781810645 18.783706233493817
Cs 12.131209355658896 21.391798205612602 17.715737325613755
Cs 1.0536066268640756 1.7073353890656215 16.63802705802988
Cs 5.03367612789857 18.34636819437846 19.055941968563715
Cs 21.81435457658394 13.087996315499556 22.981973596137188
Cs 16.004188947526863 1.5689229381408518 18.068293266089132
Cs 17.562861726670167 13.468112990919467 19.942194813987648
Cs 13.74472862068488 17.19822943190315 21.125572609668282
Cs 20.46368136240563 4.751406649066733 18.35634471214174
Cs 4.941878949314992 0.014292904238132348 20.224532969013254
Cs 5.283531052855479 20.211729500028646 0.3814857011233255
Cs 13.60492616559964 0.075084888009548 22.52999367523065
Cs 13.741022057780532 19.687781469826668 2.109721599981075
Cs 17.435032527184994 15.862689213045684 1.0385439817557316
Cs 21.11276281993747 7.787090100538598 22.97675886934619
Cs 2.4921195922325614 15.973751471669052 23.65652715358137
Cs 0.9384275414180093 3.9515517019059248 21.402761757413188
Cs 17.423284975712342 3.865733903076896 22.69756226412338
Cs 22.1832847368714 16.77982145709492 3.290381470909992
Cs 2.3403324470783535 0.4044862826094383 1.4595194041488238
Cs 17.42436263082965 23.643216430809602 2.736142504797129
Cs 21.668628636538802 3.1547372291337057 1.9857580323321573
Cs 17.95739288980843 19.03469209560772 5.534104080045386
Cs 2.74232797166942 19.299963597841177 4.629972650405821
Cs 22.186467523695256 22.294696965944603 4.824173726454004
Cs 9.637038779567188 20.355305442245513 22.00107232465012
