39
Energy = -27.41714346 eV
Cs 2.52471880201042 18.49617179109547 2.764381649995963
Cs 3.817193408516789 21.67982867313788 21.046744857692726
Cs 20.085807259433615 19.834873257038705 5.280054579937232
Cs -0.008608525432302696 1.3198854421842876 2.0831882203150687
Cs 6.3380309253447695 16.903340124524 20.765881431989143
Cs 18.241233760968658 2.662333006818372 5.843099979187576
Cs 20.64687752693855 14.54259130164709 3.175699088740677
Cs 14.695908619175684 20.88187927967697 6.219004148513876
Cs 3.2812550038765624 13.499552978966628 1.5905917416178335
Cs 21.813816885816383 0.27747849891901505 18.124006334637176
Cs 3.814019860046581 19.81091574518661 16.14256533367038
Cs 15.86852801929389 17.323318703050134 2.528051280674988
Cs 20.38090112024236 18.774300082621433 21.937678140433402
Cs 21.090131092077076 5.178881350326219 20.662460380106747
Cs 5.802774602916658 14.94223511632284 15.612337553669764
Cs 12.969353947586773 3.1546732815150365 3.721628840355763
Cs 17.038966567986837 0.3892896942860607 1.4655899418731988
Cs 4.8967827460936855 11.511224294669676 19.27862925927183
Cs 16.833386034062205 5.946679143797895 1.5626172348432585
Cs 17.206651674447116 13.486946671600604 21.45401331486318
Cs 1.4408207597080962 15.88007614934372 19.307288123289336
Cs 21.686989182938653 10.820454904150157 20.745714193457047
Cs 12.167856013221268 20.901362610034514 0.4045701303265763
Cs 16.742182436529806 7.556106916000021 18.76441427565193
Cs 16.922972027157567 1.8448737010005312 19.05481848300648
Cs 12.491069813787394 3.9410414120451 20.74546154318216
Cs 19.578876999871955 4.350768215380064 15.187485301470431
Cs 1.1829359891301843 12.174872528834054 15.453264774326113
Cs 15.757902648403904 18.264732690217 19.077084942455972
Cs -0.03505927100795281 22.072533211812576 12.695276527816544
Cs 1.706214270538155 16.667359342409835 12.406744734798242
Cs 20.232296708660392 17.72649952998281 15.849680862826514
Cs 18.101411528371823 12.565282858936449 16.536194893375416
Cs 12.16701832858455 21.574412417974976 17.172482326360356
Cs 14.032355236912181 3.9925501601673097 15.360973401765358
Cs 16.803709454084633 21.828342486496574 14.03266613155676
Cs 19.549992114382597 13.624953183534727 11.760606683844054
Cs 18.73784430957092 18.638443645044653 10.22180942770211
Cs 15.328000884628633 16.528818477202332 13.989754302772612
