38
Energy = -26.98479268 eV
Cs 21.71278772590812 6.636997953469731 20.45189087097609
Cs 16.13609026914269 8.26477370577079 21.017403412633083
Cs 18.221073346387588 4.482274129971082 1.8612279110672123
Cs 0.5542270561157994 2.6850650143417583 0.5198719030566761
Cs 18.256239400983446 7.1495886178819905 16.280702063748407
Cs 13.128079850080006 3.536151513905885 22.36705686914288
Cs 1.6271903269552894 21.23795400167594 3.639206404321376
Cs 21.812072801511178 2.71949883466842 16.13767184191277
Cs 17.938670574193036 2.9032986799076124 19.927514750236327
Cs 13.689805955789488 4.615731450999314 17.312235399143166
Cs 19.502103723972684 21.692705294003282 1.2201302800279512
Cs 5.838524644549702 0.3830815337839814 0.6725825993699595
Cs 3.5326181211462035 2.43633793629314 18.9648107381729
Cs 1.6317958885433528 20.417416740443276 21.113093173686526
Cs 19.909140887407396 21.372748695715885 18.568730487850367
Cs 2.3158809499854462 20.982534290581732 15.877285324783267
Cs 5.432654956531375 17.746666953869298 0.7845645259151096
Cs 14.815658119678236 -0.06837464817335119 2.773742446610831
Cs 7.355283250348742 20.85806316578028 19.01927587671936
Cs 11.210991825540809 19.368015542172362 0.8015705563177261
Cs 16.775403363155423 0.817741594331442 14.912423771755558
Cs 13.815551081152277 21.937156671553403 19.493181880067812
Cs 21.76966502856496 16.998904446736645 1.980701301813918
Cs 16.248196938209315 17.5985094338305 3.4814351069136675
Cs 16.902673520510778 17.703728743585053 21.153073581016802
Cs 4.468426575110942 16.40256377868413 18.40747926050055
Cs 20.4536421598078 19.908058062818434 13.5454494977209
Cs 21.52688139818366 16.541698192736913 18.41835422178623
Cs 11.630296317135906 17.06126649182207 18.79995385062167
Cs 16.205388734379056 18.048533033969544 15.823174438803225
Cs 1.5132706227090134 13.533660080513672 21.939920733539573
Cs 1.4785499605416026 16.239248186950196 13.675813795982812
Cs 13.399954640456395 14.073102730870728 0.1358040802316092
Cs 18.544005803143573 12.986943531897857 0.8258503024077521
Cs 15.400991237203291 13.038371359938749 17.9865598758436
Cs 1.740598328890982 12.051191489267573 16.771313198624078
Cs 19.506926596636482 13.91801061946323 14.28073124835158
Cs 20.058809379790286 11.31344104443294 19.066901500692982
