31
Energy = -21.231366 eV
Cs 3.875960774377974 5.80028806473562 16.475609338713006
Cs 0.10429576541084719 3.5962274495622095 13.320106095625642
Cs 21.320370687259132 7.8942436391128314 16.62412725420043
Cs 7.06730366401384 2.2169369749308663 18.846507505698213
Cs 2.4667168652121227 0.1319193413082257 16.385361308652637
Cs 1.6432472276026384 3.339621171307033 20.39648446845783
Cs 19.392528220850924 2.333174909933833 17.903190825117736
Cs 19.937675705216783 20.779107540699417 13.860278272138626
Cs 18.82799955195134 6.685638040233934 20.93467936055921
Cs 5.380084617050597 0.6923473555791642 1.650873122608383
Cs 5.421120922583517 19.229173989654722 19.808715681844106
Cs -2.0782845179326297 18.97418403043747 18.860251608942466
Cs 0.42915165733589433 3.8845474706813703 3.1976202668770886
Cs 15.205984683966479 20.640863231856112 17.202759308576987
Cs 14.381016855255881 3.1685476684979914 19.965974213873015
Cs 17.143624509445463 15.792230591675334 16.066486921210608
Cs 10.789729018239806 20.92152767390881 21.055367670001
Cs 0.15521805638773262 20.782264323018254 0.9461474477746329
Cs 17.48756770302587 3.188428634451491 2.1916402074045274
Cs 10.903644789978241 17.34164860338551 17.21169058678401
Cs 16.33934855316868 20.765605321017567 0.39256883517686386
Cs 1.431411254120766 15.246621123374803 20.37643002419481
Cs 2.3383490256135935 -0.4221943715403708 5.783637417822008
Cs 14.678283553201284 16.068891959500476 20.62841428885848
Cs 19.116857153503318 12.196887836166141 20.06024758419726
Cs 19.139064626769645 21.353963410948396 5.150468813278512
Cs 4.003223971131238 17.265039990754158 2.492909794036452
Cs 18.98664675048028 16.233720223741088 1.5136608846933177
Cs 0.5566311061376654 12.5859909328397 2.625222121245271
Cs 22.010395866157257 17.027770780767504 5.676936262649626
Cs 1.6765351179066452 8.749111449151895 -0.9737253163857005
