38
Energy = -26.94616162 eV
Cs 8.432878268577966 6.636028221128338 19.006281039867964
Cs 5.305778005875474 2.7079199863561776 16.464496177508728
Cs 7.591122252014784 1.7633828906059712 21.468656470152627
Cs 4.62253541765841 19.423102789473354 18.206470170342104
Cs 2.4220240997499505 20.92099223173648 13.071045796304455
Cs 5.978125404910859 6.778843070993248 1.7745406280685923
Cs 2.8366057850878743 6.803316605806653 19.14738442350515
Cs 5.857717447195599 18.75421317289239 1.760101689702658
Cs 21.445387189569523 17.261216627350883 10.431911089571638
Cs 1.7521670051446674 15.908313537892486 15.358332816218171
Cs 0.08124538888058788 3.3081178767299653 15.541896313543699
Cs 1.9111758793184244 1.6387821879969833 21.054167805272932
Cs 4.0787668663655055 2.1782844315634433 4.213433855286966
Cs 3.921449611099229 14.121005735882315 20.237165796385984
Cs 3.0631986985602055 14.784314125152687 4.001169226402331
Cs 17.9280414096814 16.728067122479573 14.409487982789614
Cs 18.758923392056936 0.12635630657718766 12.105607005252455
Cs 0.8121659185274698 6.518636389544886 2.717285367483527
Cs 19.40581275172165 5.144410611201022 20.123191834233452
Cs 0.40177671521573666 17.920733187401193 0.26649774634742573
Cs 16.445364314250515 3.9278132163851227 15.897019874817651
Cs 20.619910344388067 20.122972611863865 17.242042899692954
Cs 21.133526266292986 11.744703603534676 1.8716390909683736
Cs 20.218098690486286 2.034931707015284 4.7485498379247195
Cs 20.11794760748426 13.833034269259038 18.751139922467264
Cs 17.78355710970517 -0.16251107454867295 0.11607635350505238
Cs 1.4761370592212641 19.43952516201994 5.6980814552844254
Cs 15.063715886095382 20.904489957224335 16.828595130986695
Cs 17.6898616691633 19.50078333891097 7.243443849812029
Cs 16.980624969592384 6.239523310030597 2.9692692604066635
Cs 15.632727753328313 16.436814376071847 19.453523275378068
Cs 17.388030720595893 16.162538748280824 2.8541903975748997
Cs 13.716392803277849 3.5528676990825363 20.63831434642411
Cs 14.646837787082122 1.3438107970564757 4.208495580820081
Cs 12.353277135035455 20.087806252375554 0.1431081317617004
Cs 16.028883849464133 11.154467075295889 0.12963479652594928
Cs 12.777293935499161 18.07883311862395 5.279120435287334
Cs 11.82064037465849 14.671284505585119 1.3383819580295149
