32
Energy = -23.94799678 eV
Cs 6.8745108175095915 0.12681410709706845 17.70867202920914
Cs 2.592325947937124 17.610769781268473 1.0892514471275423
Cs 11.217205313754043 0.39849009744743835 2.8395108763520795
Cs 1.3682117298000858 0.5487007547259591 15.81522015574002
Cs 5.394874124981169 4.99085827566972 16.343151987295215
Cs 6.898193218942609 16.62535324527776 3.9022694123342863
Cs 10.666916314650189 4.462141104102121 -0.9390811356486294
Cs -0.13180930588977594 15.537803810854644 5.53731238099252
Cs 16.90908747184674 18.793444806967567 1.353313591060028
Cs 7.963776749150066 1.2106484829309148 7.399229042765293
Cs 4.33289937756969 15.812085536117479 8.626583586477267
Cs 10.023529215314577 5.9151664539698 5.1625151960970905
Cs 6.237548506528735 2.9940272411689723 2.4315527118202973
Cs 0.25537347072196454 5.79469669841144 15.000718757595605
Cs 0.7960688162769244 3.6574268356984407 0.9143505474464224
Cs 15.564873867742232 2.311942776107879 16.777382099172563
Cs 16.099154097083453 7.4439247401258894 18.392568720769766
Cs 15.831180017451931 0.414720288140844 6.236733560119954
Cs 2.3084360731073383 8.627556910698686 18.936166161523182
Cs 7.368115067902941 8.55949280257876 1.3495082170565103
Cs 3.525727226376135 6.898727754136913 4.6919974989275595
Cs 5.16047950706216 1.1935129731570602 12.023596482265907
Cs 14.73610724480061 4.416075728250322 2.6045768874484656
Cs 2.5370228067320078 1.0307623333433182 6.007347810638746
Cs 0.00852730487267977 18.91351662127849 10.658619056924694
Cs 18.311041229110913 9.833922557016388 3.401011953835096
Cs 6.116560989650061 5.944783549784037 9.201929412044231
Cs 18.261485530600666 5.1418946897105196 6.058352765133377
Cs 7.03511162422737 11.059101051787488 6.557195771420152
Cs 3.6164912865030288 12.484704351711414 2.856401955489051
Cs 1.3562869947421803 4.579480484606582 10.274944530143069
Cs 1.773963168706685 10.564203945008455 8.095280623555032
