33
Energy = -23.38904054 eV
Cs 10.997578303529062 17.619498268640104 18.437241595042554
Cs 13.667541191030333 13.263096893642734 16.57504423670101
Cs 12.981504519890212 17.51540667479663 13.380861238946702
Cs 12.903183904095838 13.695084081378647 0.5400324665472855
Cs 10.22734362549851 0.8029320895164421 15.073659598599267
Cs 13.534317192148668 18.959346664499392 2.227616891424416
Cs 14.416455653853761 1.427277303596487 11.551593456524941
Cs 12.045253385230414 1.4199353040652494 19.847264310674166
Cs 17.384090281333673 14.867233979400279 3.3248673441502747
Cs 17.490152606259404 18.427679098175258 10.075849772291987
Cs 16.837252829326474 17.118314682369967 19.740025229714547
Cs 18.047635664788288 15.262511982186469 14.570866751893316
Cs 18.04610109125069 12.060753165326735 19.482295770776254
Cs 16.432163927453136 20.417408889468025 15.903387181398465
Cs 18.031477377586928 20.415861697737345 4.783113923603155
Cs 15.380838622203795 4.342221224828954 16.30500879916894
Cs 1.1892242615551218 12.873007231810714 1.5911109521335347
Cs 21.0703726487058 15.89001746104137 6.879640899171293
Cs 17.362212722518713 1.4564316200552483 20.953043017502463
Cs 1.0697334485927341 15.384579408963052 18.011742206965657
Cs 19.609492228421967 2.2365604543283544 12.708294853496675
Cs 0.42786310819797374 20.769700849990077 17.885857937746458
Cs 20.814908176272017 4.5192287632053425 17.666944673219778
Cs 0.3045068308708995 18.239420185274632 1.5032105332921675
Cs 1.0722369132767469 18.65981614399394 12.705565372156038
Cs 3.5769279386034434 2.3589756022161885 13.915253531157449
Cs 1.0755425208685878 2.5015440353432252 1.6952986417236064
Cs 2.0973095983400225 20.695075412192978 6.2391232840842825
Cs 4.515014667892937 16.181178876253142 4.259869169113567
Cs 5.975601984011694 15.318265561489184 20.511454304601095
Cs 4.926033308518374 3.0193953858942666 18.950555176801526
Cs 5.555912438644059 19.21664317014934 16.824905954987727
Cs 5.5674582190395006 20.40796845305573 1.1728204598405916
