37
Energy = -26.90710538 eV
Cs 6.116536096294092 20.95441902976879 20.41766357937674
Cs 2.965960329668182 17.287611322737508 1.6397444654345517
Cs 4.870049138499526 15.6697594114839 18.407402552039514
Cs 1.768039046112214 0.8226339579407722 2.286017276361578
Cs 0.42840967882352443 18.54715594609554 6.499549100443778
Cs 2.4292148413758063 12.042041895421695 0.15032980084178904
Cs 5.820077667240051 19.64434232564055 15.003863556071463
Cs 20.421604130873597 14.209692349241749 3.372798422357579
Cs 3.1016055606439075 2.430332414892428 15.829939315987938
Cs 1.1950981591245275 5.155374306334264 20.14198311758009
Cs 1.2202469344745184 11.740898277007455 16.768224847090426
Cs 1.5055080453072798 19.979170660735694 18.66354142891617
Cs 19.63604660509927 4.456436475145359 2.827707891108811
Cs 18.922610650819205 19.33528895056074 2.027001577425784
Cs 18.00088718492432 0.3026286766850147 6.638093724986347
Cs 18.89513885369992 10.898081196431871 20.62154129911998
Cs 20.01998553989598 15.812037111146251 19.46860427027527
Cs 16.480731332391574 16.780321026874763 6.0896692792418765
Cs 18.99130982458926 19.53106337137742 15.467241943118745
Cs 1.6139179625764644 16.501159504974563 13.92844004300577
Cs 0.5386291671338784 -0.1383634613471762 11.610324853361481
Cs 17.141940744074695 6.0662606335723375 19.733436369274926
Cs 15.410663501924754 14.732366463775685 1.2275248647533747
Cs 18.62982072333435 13.683107858731164 14.515054388949695
Cs 19.674091109084014 3.6481044065679864 15.006212899906144
Cs 15.14792912611774 2.2708894363487397 1.6404895758409486
Cs 15.151086287317678 19.056626713186517 19.185926423859566
Cs 19.106519297660828 1.2300157683316062 19.852362060964197
Cs 13.112689614607259 19.210450908781628 2.561941973656309
Cs 14.729413661067735 13.531264578422213 17.86675450768177
Cs 18.819946313369577 17.435526242704867 10.54344627824554
Cs 16.091994805871888 0.39909345278634034 11.883158007204852
Cs 14.844880770900325 2.346348801598858 16.728807312248662
Cs 10.158319953495987 17.046840039539116 19.209395867457854
Cs 11.05574562213322 0.8091847823571113 20.303056380573935
Cs 14.419687939189672 17.008027435145703 13.876960886238205
Cs 11.013104313153953 20.792722698532952 15.23179364763447
