34
Energy = -24.24880391 eV
Cs 11.819143092557466 0.09826072054115101 19.446850939664806
Cs 12.62604795765863 1.7072008476702287 3.05283101855094
Cs 15.754295518017322 4.520658058374848 20.960450885593115
Cs 10.96492400040583 18.018764845453166 2.2559889905355126
Cs 15.76952547376016 19.356593426064258 16.427209076427726
Cs 14.846831891558931 3.0783223240173654 16.020170117951093
Cs 13.624614958467232 15.746093611827936 19.623031447134178
Cs 18.012017148979364 2.018939590386103 4.659787373008815
Cs 18.734377651704907 1.4448999884434162 13.072389469420244
Cs 14.81576257586992 19.2147276626618 6.260579951204944
Cs 16.311430344214216 19.870017228866704 0.8113937283483341
Cs 20.152086995273343 6.545179728945353 1.483256033158784
Cs 16.820460158539486 18.15197411787856 11.198565400084398
Cs 16.841810828628624 14.146038254859965 15.479472595357075
Cs 19.73977577615298 1.2157659251644677 18.923764776865315
Cs 19.212139123796092 6.4340096076058995 17.11259982798324
Cs 15.368934792384055 14.822960043625319 3.18979789643353
Cs 20.157005975499363 14.291940643580922 10.915158452234337
Cs 1.1661475305317344 1.0726542395817935 2.38610141315263
Cs 17.333394884929525 11.03925898609658 20.271520608426126
Cs 19.621106476347656 16.015061049639407 20.273894947480017
Cs 0.11519621252049123 11.85630169873418 15.887494802990837
Cs 21.095293791586162 18.155872595693356 15.46093791468582
Cs 2.445085271811225 5.033043765036969 19.43902651958702
Cs 19.87885489209234 18.12333948121036 5.110956693844423
Cs 20.031518798872277 12.633160047555059 3.573155910114023
Cs 1.0564623117440455 19.49193147600799 10.534020171654
Cs 3.4519128410842694 14.83261768903575 13.062238952224067
Cs 3.694871753333667 20.740481107395215 19.36964621794743
Cs 2.1437662668397413 2.108691455620333 14.831278485928324
Cs 3.8509482668437056 15.360522613478599 18.281436134595754
Cs 1.5845172119911284 10.799629742551959 20.81660639845551
Cs 2.621857116584302 16.933602840297898 1.8320887757020656
Cs 5.4604388207678305 19.35541190851708 14.679175704142608
