30
Energy = -20.34460104 eV
Cs 1.2369814192467328 14.952482257727196 9.966978232934856
Cs 17.145758317913025 19.77092329973226 12.291502455667908
Cs 22.747207144759066 19.49100146109809 11.656789632643939
Cs 4.820344510152254 17.26741823107517 13.832321267262445
Cs 19.493332362310422 15.048774773204782 11.761602911142242
Cs 11.3261490903078 19.90877338538374 13.988025861636077
Cs 2.337734361349707 21.18406374443637 15.909264445471589
Cs 14.778187599745754 15.474774655919822 14.379906039813726
Cs 0.46541442563697305 14.49599135621 15.097573167789301
Cs 20.61317172214806 18.494503263898164 16.589957760053647
Cs 9.123843948049815 15.892696229563548 16.874331547781985
Cs 15.502356490580915 22.25457218793417 16.45761839047895
Cs 18.7824836987199 11.906795899848493 16.049463995157396
Cs 20.7231110206976 0.1488037234058442 14.793856428930042
Cs 9.406681580071037 21.29577429192285 18.80952528156294
Cs -0.689173566411705 21.839555877646877 20.192144501143837
Cs 13.436194235238146 18.314208004102436 18.846559649191022
Cs 13.124929231596836 12.740666512723548 18.78658373015122
Cs 17.56141289680092 15.76702171287465 19.198673415280606
Cs 13.406166585667409 1.4819433093132615 20.58241493605305
Cs 22.24002620143602 12.965866241532863 19.949526624001805
Cs 10.082499714154867 16.29034010862119 22.103548925439963
Cs 2.212560517546866 17.2006118513794 19.30716932689218
Cs 18.681772994420022 2.1899004825687394 19.217422781861973
Cs 12.51150703338621 20.738776766006193 0.42342039590800945
Cs 17.42873606038504 20.76166329073288 21.445274037786053
Cs 17.432108836065392 11.494248891907734 21.86652133060532
Cs 15.352090917362247 16.31480157982094 0.8216674762045585
Cs 12.592572692291432 11.893259295473285 0.6855813601213845
Cs 21.144456630423157 17.125289101320497 -0.40801849336022317
