31
Energy = -21.61886127 eV
Cs 0.9547588666899525 17.034369616134125 11.468967190035078
Cs 17.690327028117952 17.27668160632475 11.775770661488874
Cs 1.546703965775956 22.03633438694187 9.957204275072874
Cs 20.05097352523178 14.269497549908875 15.661327888480566
Cs 4.591935904389744 20.616474736066724 14.031018041322909
Cs 18.721880985819652 0.41763821080777713 10.939670812740903
Cs 3.170106604460529 16.37173002015614 16.754906798785697
Cs 20.856754125063194 19.677924765306965 15.385258728765123
Cs 15.156731131461278 20.781488519204533 14.621681412037148
Cs 15.067913211988632 15.511540911216125 16.33703208665173
Cs 1.2195406838904663 2.34187748910863 14.803858275664526
Cs 21.331964747929273 16.76215805980822 20.059391336941687
Cs 19.24130325898526 1.772151597299594 18.112387904542736
Cs 2.1720277464010267 21.472819528734473 19.239349654227343
Cs 3.606101790460677 17.60548072354117 0.669265543883861
Cs 10.957864017772067 18.850197730093104 17.578675101089914
Cs 16.764688897907554 19.242717704629886 19.67545297554014
Cs 3.7000365505979835 0.694125534045845 2.363663805121103
Cs -0.12383922658268526 3.439827524823926 0.15852523139078425
Cs 13.826525667623995 1.5280587967809403 18.579716972416776
Cs 17.466788466713673 13.566675812392516 21.039428556599617
Cs 20.61574632586141 20.48983375770056 1.4161718441124267
Cs 12.485573871216237 15.66533230773812 21.307895243479397
Cs 16.888894557625274 2.201417894799387 0.7227521251263522
Cs 12.88284678577714 20.763359951725615 0.9842707412262098
Cs 2.4785958910149146 18.9481482734194 5.680471688156681
Cs 21.31365171593714 15.110086403162198 2.914252002836705
Cs 21.185969996620774 1.5273318401540996 5.529871826957406
Cs 16.473253897297887 17.165741260398026 2.6233664640654304
Cs 16.19074883613986 21.86246565858917 5.294590706364977
Cs 19.795043419244017 18.535195810619648 6.958207608463375
