32
Energy = -23.15085406 eV
Cs 3.5688646973078755 13.859464056825988 4.199799985904596
Cs 19.575579681838416 19.57921291405684 10.267357568230203
Cs 0.13066860325586052 13.93216386433159 8.78287614884797
Cs 18.570406927628202 2.5337192724066595 5.856860271583505
Cs 18.581117961132826 6.371324992539916 1.9083634974861978
Cs 3.5753809345025243 1.1297748925857132 7.388183576920348
Cs 9.65704714323617 0.641273818480928 2.1559945679798895
Cs 13.865837944884209 3.931857974496224 3.304874192943673
Cs 3.6997854349905634 11.4443209223701 12.715021149033472
Cs 6.624737290483695 9.007946013406382 4.011513832289326
Cs 1.1414776159069375 16.145489874096654 13.865224102476754
Cs 0.6479105899566922 4.824017110542434 10.170403038946471
Cs 0.2520925416190251 1.525462551263225 0.6341942112560492
Cs 5.484800015019182 6.7503299337692555 9.530908723277241
Cs 9.747071503904339 5.9825522970127825 0.6336584648921245
Cs 8.265640930068201 3.8120753140411363 5.887201916784873
Cs 5.835507715470263 8.526600140277544 17.140902330300957
Cs 4.294594335874504 16.80578707003875 9.46155292333714
Cs 6.847866413310342 12.21911045030758 8.264872150598945
Cs 3.054725225327504 4.955068312216681 4.057971326513395
Cs 12.444037775623423 0.007356015786523544 7.4940122068089225
Cs 8.00474418914722 17.4417776851502 5.857991846407181
Cs 4.554407589218891 19.31872403464927 2.3992176831861793
Cs 7.625812074199038 1.0115524405249519 10.804622354406336
Cs 2.920879372335028 1.1636375228336724 13.962418551986929
Cs 9.774165202491712 16.534539508832093 10.670820629377834
Cs 1.4035994326790058 9.285108678604189 6.604139073223483
Cs 6.114042208887829 17.049401392705747 14.620657768132922
Cs 0.01568977833214296 17.825103787903412 4.967668469844872
Cs 1.1492259825148212 5.595793161252127 17.40523781310832
Cs 5.339292766846839 3.6798344217998737 -0.4092898295647193
Cs 2.5329185858073067 9.522260912540771 0.7644143323435196
