34
Energy = -24.34983497 eV
Cs 20.976928143589067 15.14840604306799 11.551571671080653
Cs 17.67118945514383 19.103236909576637 12.734058353327612
Cs 2.6447959085730686 18.18213629373817 15.394641194981165
Cs 0.6617120485596811 0.7890624698047431 11.69552361193902
Cs 19.340594931805388 10.55444104172957 13.687766053218494
Cs 2.7535553006999844 12.740945652866738 15.287769679661732
Cs 15.405528537802306 14.359727337836706 12.654441935708382
Cs 12.491950038844896 19.773966415659725 13.976061091399277
Cs 4.352330764393721 2.116207848625529 15.903239608156852
Cs 16.59573713508827 2.9143996645789922 13.695134110076665
Cs 18.992061899672176 15.275542182940724 16.870001197426035
Cs 20.462555876825522 0.7989929584438006 17.249429574008843
Cs 2.7696280027349425 15.276840610947618 19.921095996646923
Cs 0.027064391315863034 5.718262560192984 15.00668998668941
Cs 20.71992544890824 10.47274669792168 19.268331689189953
Cs 15.267758229187992 10.624476512397417 16.993078415120618
Cs 15.663516106926616 20.420709488862975 18.31366670615058
Cs 1.4308102798853148 4.912990448024789 20.302141384706392
Cs 13.13641244570177 15.689880477381276 17.519225441505885
Cs 16.726278938194053 15.529112900329457 5.450810999827239
Cs 0.017954530618045073 13.547116214097468 3.0410591249922305
Cs 3.4420234106927987 20.975595732344527 20.718179831848015
Cs 3.852795808121463 17.387837541855905 3.3074371524750807
Cs 10.088863518431474 20.183905473971116 19.124118281807032
Cs 16.92674264434424 5.455656081213066 18.55237957788934
Cs 19.65397973495759 18.19551678031877 1.1665254218276835
Cs 12.098411491560622 3.2900171013982846 16.74333164695917
Cs 18.56735875312137 2.117557725570736 1.0402274892558436
Cs 13.277813400783803 2.1170153558257008 0.9232678202232885
Cs 13.799611605438312 18.052451441456444 1.5816780120168177
Cs 1.177008107809083 0.6907903120894743 4.361360274026267
Cs 16.495788013445342 13.56665262930504 0.13517455776115211
Cs 0.03282468618345767 17.677773390030907 7.057634507171965
Cs 16.86650629077514 20.854219130203287 5.42272468225578
