32
Energy = -22.80659362 eV
Cs 2.083918361867019 13.127940477452384 18.871488539125085
Cs 20.570334334625905 14.936485197557156 2.8764623656441684
Cs 5.658336172371023 17.03697560868738 16.12713368532779
Cs 2.9912844397563902 13.44588482476411 13.612113345114334
Cs 2.3180786676098952 18.352964160739933 20.301564718364112
Cs 19.256475589566428 11.134581615551452 15.454228408842491
Cs 19.028720269178187 10.068883058226046 0.13916873689364948
Cs 0.12819228584931658 20.31761615549785 3.8834605616265137
Cs 14.949385117431412 13.873829204223012 2.3538254266027985
Cs 20.766284859592258 17.370990165096764 15.323039648483528
Cs 2.640010791889339 18.60509644106927 11.273240830582756
Cs 16.897118439580336 16.905621289474638 6.220755578539902
Cs 18.05499340343965 15.56900858025085 19.230053805823804
Cs 3.663130720524731 0.7873411217192888 15.984734645387224
Cs 19.91981228775591 14.69312083840541 10.356152529112581
Cs 14.44079549789759 11.631567896010967 18.220542014182378
Cs 15.77851591274926 14.805738405422513 13.922130013375844
Cs 2.3629925157174303 2.731663122598277 0.008837974570413371
Cs 11.946125611015608 16.25920708060903 19.886211829207717
Cs 16.543696294044548 19.78910702304024 1.0465987781270465
Cs 0.12826868504954664 2.1006808057057826 12.428066366712471
Cs 17.416069841531442 19.397797919534874 11.295048726481793
Cs 19.376513031614945 0.783835229455266 17.949905265034413
Cs 12.328846170116144 18.873104342924492 3.7707052454609196
Cs 14.837264540605076 19.297090248098133 16.421224199991244
Cs 16.722757195816524 1.1785832992346776 6.312497217503603
Cs 18.7436384275352 4.301717049510943 1.8394086295540335
Cs 20.646514480851287 5.9078234796992115 17.29554265079781
Cs 11.3867602295258 0.5069322626644015 19.68873070300985
Cs 16.271776105075425 3.1636243747986907 13.900509578409832
Cs 13.4072068370922 3.2247964347037437 2.617752606934559
Cs 15.205735415016225 4.484427838629661 18.75774255176298
