38
Energy = -26.76450693 eV
Cs 1.9920604886295543 6.3739580708021135 19.134296827209415
Cs 17.157198949807864 5.163456985209413 13.732022727094623
Cs 0.2685094313121317 4.474799293609049 14.505692753049887
Cs 4.603952404939409 1.9709501935939622 17.29255150017047
Cs 19.12704324744254 6.462568987533874 18.48305578007211
Cs 0.9242329251386546 2.3857433203948037 0.9070162346965315
Cs 19.040658894292296 0.23958313413740115 13.458686431131639
Cs 15.715998777458598 1.7100220898870186 17.688583227208916
Cs 13.868819360212933 0.5181862269048826 12.928996359808707
Cs 5.8152121437940245 4.178665304826569 22.05521122969307
Cs 1.8577988601059439 21.255818333487674 13.860001912223181
Cs 17.70188615684418 2.7698296870465065 0.14719209179190657
Cs 21.264354297315563 1.0613111488010911 18.4715942509745
Cs 5.71358964588055 18.51235376704386 16.502864435206064
Cs 19.78296668520089 2.899331007643443 5.123895812590901
Cs 4.344083314516123 20.754622899805742 21.289632720133284
Cs 11.114890946128648 20.223495895403143 17.03242535625361
Cs 21.40786409090231 7.408872058927458 1.4320631521839378
Cs 20.719520298322376 17.169958926434035 12.680143107822031
Cs 15.836119620172727 18.23158343036848 14.89441267844226
Cs 0.39195077204026324 17.681581571858434 18.240653749270503
Cs 4.4447968746391195 9.760086932465876 0.24204827851755692
Cs 12.811300504842626 21.658366698410422 21.906431100436272
Cs 18.351776041437674 14.141156368877146 16.880547566815792
Cs 3.8117602305600764 15.601482972543298 0.909273654382633
Cs 17.300448897031178 19.163336912521032 20.183616724950127
Cs 21.49939064237611 19.031621575547614 1.4411957649691216
Cs 20.861956265279876 20.61384955767939 8.059186238071229
Cs 13.353788612087806 15.60600026062972 19.010044127074707
Cs 8.96458253394911 17.80570620654369 21.522010827305728
Cs 0.38795244405447055 11.892104049521176 19.55398113512647
Cs 5.820271260346099 13.720338813837948 18.75023891191736
Cs 16.773573257649094 20.9988835204376 3.5658230214950684
Cs 18.196138496840373 13.898401997797171 22.053395583571646
Cs 1.5576143082197969 16.792215903474283 5.938177574908586
Cs 14.00561935829529 16.795480248190795 1.9811563338954064
Cs 0.13886754625886263 12.534184220199036 2.9005598679753377
Cs 18.47968147542008 16.13253554372658 5.017979124055027
