37
Energy = -26.12883558 eV
Cs 22.268051355027513 13.5468547371252 13.522185166127871
Cs 17.27994148152867 14.497285907013122 14.359432786805911
Cs 2.1394365762554792 17.97435668430961 11.68052957549497
Cs 19.288262599488228 9.77180285848631 16.366697729889456
Cs 19.677957239464416 17.96317422753808 10.045174190618903
Cs 1.7796830794104728 10.48780087155387 17.767470350187224
Cs 3.4735474922221377 15.710740820407308 16.482941704492465
Cs 14.341152034338595 17.294398140564144 17.548446672373487
Cs 0.5220648944331386 0.41914923250239094 11.127943388263043
Cs 20.958255843070543 14.86434188832 18.5672159899908
Cs 2.6788697987245507 21.44674502869111 15.701419654085228
Cs 17.97143173527387 0.41601439480554053 11.151750954792714
Cs 14.91233443500576 18.89463596001943 12.486888803713267
Cs 20.64861417229699 9.72110777425339 21.460589220591622
Cs 16.230486212938285 12.596431810125083 19.71646687346054
Cs 2.0805674248781805 13.78413918593377 21.928749624376923
Cs 20.38216489592211 19.048086206231186 15.1548911880823
Cs 2.791737941010247 18.89415956682202 20.376645395992036
Cs 16.37052311269139 22.389561832990534 16.244342472950322
Cs 20.922126709663072 2.9537549189681367 15.414650165387298
Cs 19.03548830934906 13.93653997483444 1.6111165281217064
Cs 21.312100217815804 22.23183512922308 19.550283148936728
Cs 18.200220440020303 18.362370297046837 20.903525082944842
Cs -0.271832258475183 17.974240718909947 2.0050236730165496
Cs 14.084540133522712 16.224023226353133 0.65807324329827
Cs 2.1391487152036 0.2528519797374432 1.4800792496082447
Cs 13.959172179021143 21.591115337058056 20.77551699457499
Cs 17.42479790755221 3.890224921654907 19.70065009111368
Cs 22.402145194260672 4.564518835874877 21.443438229387866
Cs 18.88493524660055 0.13344988151183737 1.4821303403312143
Cs 17.567494615007703 18.23783681482185 4.694195799518764
Cs 21.869278005031163 21.04207298092812 6.337363357748133
Cs 13.261764533945192 20.669145738124424 3.34979596640152
Cs 22.122231171684124 3.490355460224025 4.691841564507561
Cs 14.084015427232357 2.9502931708868347 1.6060076878129594
Cs 18.253737724392764 5.878024178473895 2.149012364957072
Cs 17.148650473424777 1.2062511117085284 6.05466135153958
