38
Energy = -26.84159169 eV
Cs 15.835745144896116 13.576719195105186 15.426303254583113
Cs 19.94262667043376 13.036085838014435 11.168119956811395
Cs 21.114664773345623 11.048899353111867 15.93319603297596
Cs 18.5980626544601 12.732889494778336 20.082498675957428
Cs 16.473877986334614 16.93074649299181 11.229292934622354
Cs 2.1208090795624726 14.795436731766875 13.555260222593917
Cs 0.14001066465241865 13.17717560038117 1.591568306586712
Cs 14.081871838032113 18.881860724849187 15.546743668809768
Cs 20.023801624224358 16.713285031904938 15.573833270359323
Cs 21.520316542952393 18.22228318283018 9.975775846573216
Cs 20.518037923450798 17.374478480474203 21.67964918065135
Cs 16.764016631154245 14.892091136098625 2.9247315142416994
Cs 14.663117404069062 16.47844705138013 20.327874361077853
Cs 17.15875842806167 20.360155681973737 1.4603829044451295
Cs 18.09506751085989 20.612831581773452 18.341049014259905
Cs 12.898305285599974 21.67857183451984 20.33865051111554
Cs 15.97551889015444 19.013972590769168 6.492516263010844
Cs 1.7254811644099162 14.869209983037312 18.748341819855547
Cs 12.355061575031678 18.23628672573544 2.472856063945806
Cs 5.717187471957242 18.4749288070825 17.811363851345167
Cs 18.84116624808067 21.67811433331457 12.912560746567518
Cs 1.7037712009927723 20.130044709161453 14.281297100544968
Cs 21.154783103489986 17.690324485031788 4.63721587528615
Cs 3.8133929770060764 17.412224864603996 0.6794162714398251
Cs 1.203786673207477 20.87268339791242 19.410654780667123
Cs 13.684560775798031 1.1963732923080606 3.319165707807508
Cs 16.21068229706952 2.6833338056177634 16.743068486942242
Cs 19.42184275605747 2.029807048727464 21.668338637227894
Cs 4.9019086185700464 1.4551649939972044 16.770123149122288
Cs 21.66973744994096 2.6455098565466364 16.24406173049506
Cs 19.422212497141697 0.6766456079585105 5.691294030903725
Cs 14.378298845070198 4.398956335740483 21.389559335380483
Cs 6.130549256706717 -0.12724015944263703 21.68333105910202
Cs 1.3207749446334769 21.937254673675167 2.275727579373962
Cs 2.257820300936784 3.8544477286479872 20.732033246793673
Cs 17.275460025364396 5.176037227523249 3.4387164914729005
Cs 19.306968938043873 6.927212795230215 20.194083248786974
Cs -0.01747657397033325 4.804943089865866 2.9250210365360907
