38
Energy = -26.71556644 eV
Cs 6.550691302203171 20.126573418500207 16.437922267091697
Cs 4.489127632914529 1.4400341918975903 16.04566423294912
Cs 7.098604142535548 23.439254287146092 20.276045509768604
Cs 6.46942763199428 18.026020068076676 21.32506825047642
Cs 1.547720881826072 21.03094410927895 14.3404221127099
Cs 2.59905539925683 16.314172058382184 16.427294272724588
Cs 3.1694373367736546 3.3072886037908735 20.90050463812229
Cs 2.3588068458819653 20.93294909506157 19.984264276125327
Cs 23.274141018849534 1.2949045242450425 17.48770977852941
Cs 21.692085543038083 16.98866057249116 13.80239901341569
Cs 2.0935146214676705 14.814073028050899 21.175581899323756
Cs 2.2294857444294327 18.1569534309832 1.4379962122490682
Cs 21.7238432344037 18.81469733109855 18.736109926728957
Cs 19.981588992055936 22.093087789785052 14.45564801561908
Cs 4.5978008523762455 22.774938938849317 1.038710405072253
Cs 21.461653903237018 13.710765973860337 18.17394118218515
Cs 21.06717309171846 4.836847787994339 20.78252020142224
Cs 21.564068042974917 14.313838129608037 0.2488502389021173
Cs 18.283677173793375 3.4067168172275184 16.31715953298597
Cs 20.887613411786994 19.613056684416126 0.015470355675940984
Cs 23.356340952949722 0.4700215972322811 23.03187017863866
Cs -0.016176658985061168 22.359760554606602 4.086304663921911
Cs 15.10603443878082 22.88130001592129 16.16838320395529
Cs 19.037330204538513 23.293675549759993 19.967285025901486
Cs 21.736792336828106 17.378623722444104 4.854367928373397
Cs 16.974217937580462 18.04198972275891 16.571726394198283
Cs 15.815800071687951 3.9533612040917756 20.93713319295225
Cs 17.38837786115235 15.636313357563639 20.934969353928498
Cs 18.93724980791561 1.9912583921176918 1.295607297360654
Cs 17.208797919849964 16.29875526061758 2.502086373204529
Cs 15.771178406722822 20.640312820851264 22.349478170471215
Cs 18.288747083794586 21.562868609205196 4.2101770068196185
Cs 12.238581544927857 0.4790027043890882 20.015236707247688
Cs 11.705834070712928 19.104810066144086 18.695129138043338
Cs 13.847597429554964 1.0652871802723642 1.447656042552685
Cs 13.569052745760885 19.861753449036048 3.6782363297854155
Cs 12.653250083083533 16.459985666469013 23.147931047883255
Cs 10.004995752374446 21.05484705060976 0.005404669449716724
