32
Energy = -22.59332222 eV
Cs 20.519630227948596 5.331187178232562 18.5493491213854
Cs 19.474007724565773 4.536485671057548 2.5383651315588054
Cs 15.752817997010736 7.070662387598222 21.08095946217732
Cs 0.8076627203805298 0.13651658750838336 1.6295940968497769
Cs 15.352557997504215 5.189653144584797 16.275965304820414
Cs 0.8253088884315919 -0.24858140784216506 17.694401566652196
Cs 18.422277439766248 1.602929593487323 13.887075492920669
Cs 4.506721181282076 17.871084468318312 20.954839600454683
Cs 5.191543916390965 18.652290018303933 15.642313707267956
Cs 17.22756758085886 1.3132581441458517 19.8727774135567
Cs 18.14444318664946 20.833751428093993 5.067157089538011
Cs 12.009000433272004 2.0007219684010176 19.618549253925043
Cs 14.463838467439878 2.876073140341013 3.0459171306264654
Cs 1.055338349489068 16.40760309820975 3.740250720675544
Cs 0.275910944416886 18.909090497352906 12.574776158592941
Cs 6.005371509051187 13.760124949469176 17.497225537219524
Cs 2.9291782950321488 14.28791967719309 13.200186772484212
Cs 18.824162405021614 17.606979686157622 0.1810039419817543
Cs 0.6306834602287104 15.63097259570847 17.77632256351614
Cs 16.94776700662196 15.622874393245954 4.934872823628025
Cs 13.214444908708389 0.007258280548969088 14.808912814047167
Cs 13.749736554331914 19.202721754178796 1.697305650470588
Cs 0.931345273362895 10.533855098565411 17.10126463441289
Cs 16.27464004171122 18.525144693355724 10.545989380281728
Cs 3.0726573520531404 12.693859358129771 0.40241250352428265
Cs 10.678708585536846 18.262393353173547 18.42479353511333
Cs 13.616049210955387 15.591309334148448 14.39896698975583
Cs 19.209317947230073 11.878771924743056 0.6539151522705009
Cs 18.925818395289685 14.258241714478139 12.961357919605934
Cs 17.353114448517328 18.29242085082354 16.431035260758346
Cs 14.562933523370203 14.628168377841519 20.032132686335583
Cs 17.019963632040373 10.947009275477296 16.964791012526884
