32
Energy = -23.22170569 eV
Cs 14.254131763750742 12.962808542515232 6.230802269415989
Cs 5.9831941506708235 9.282619946404036 1.8037810192463684
Cs 13.093127116376793 4.957369644570935 9.64853471127445
Cs 6.490662579404055 10.82030777007978 11.428996487776386
Cs 0.9101210565058716 2.5658248710436635 18.058382762177544
Cs 7.385828802689181 12.459230924252655 6.123284903240585
Cs 2.0458609496128957 8.257122755194237 11.570912252817894
Cs 19.190158883413005 16.00693157230577 5.4656220694393784
Cs 2.5391877420775395 13.354260524637791 8.518770500811414
Cs 6.0908267827407885 7.0215584828447355 7.514216637084608
Cs 3.1937082631529097 14.10634343597333 2.9394319522335497
Cs 0.7913734832614652 4.582611051072051 7.620772289669974
Cs 7.338190592688928 2.0393800009309437 8.647381504201565
Cs 6.098287801087365 1.6515939908629693 17.912115004421835
Cs 2.7933642702531025 18.818974277822132 0.7645021389292709
Cs 19.590653727001154 1.3908848071323814 3.5480878421666557
Cs 19.60841112890567 6.404179676173221 1.1293505572382632
Cs 4.215588983099938 6.752257662152999 17.155566699665297
Cs 1.5568029463043613 10.732917473490161 19.34149296177005
Cs 11.575186522369343 9.402245842774844 3.0736845864111264
Cs 7.2120768173104715 0.3593882238442424 3.266603543409316
Cs 3.184706074516993 -0.9211261034066472 6.720390440813841
Cs 10.288447823885082 4.71851220828014 5.074391994706276
Cs 17.92993319310206 9.906219498680203 8.640153926119966
Cs 3.95155778206063 4.304751167009759 2.539017406581313
Cs 15.900234860738646 6.469406058383534 5.074881327240447
Cs 3.691962948245281 2.959371859404329 12.719507952390291
Cs 8.26922586783324 5.972844046059873 12.832459987497915
Cs 17.85508877047723 11.309974667399965 2.806095174523838
Cs 1.787415281240464 9.289057742777297 5.20157328601323
Cs 8.916433197285416 5.34780991677996 -0.11482391446530563
Cs 11.184011649307038 9.485498667615046 8.74424235644841
