33
Energy = -22.5351189 eV
Cs 18.67459370021736 -0.8140836802121184 -0.14167237778282418
Cs 1.4787837346789852 1.5883307581819355 19.597671701385092
Cs 20.155203416183458 17.40463086052716 19.72632518616981
Cs 2.0709592848788763 16.118296449010273 22.43259703594002
Cs 19.466268871634142 4.281513495555162 19.318901930594546
Cs 20.14476274246777 17.196415624819895 2.542466889875016
Cs 5.104917564266465 2.942943827677928 0.5457912036489442
Cs 3.4718877574899727 5.752633666835695 12.885329297850404
Cs 15.249900627961956 17.609288957624322 0.12136989821613572
Cs 20.266911742867435 -0.7166195477211738 16.990371087377238
Cs 16.801156597365907 0.5542096549240095 8.196331927666627
Cs 4.82062179593858 0.0012232626115091598 5.481439187719592
Cs 2.4299128300735 6.189785426160792 17.719495222318294
Cs 2.9406685753582438 17.748562213246476 4.832009514628319
Cs 0.8505102450439087 2.5335786609601376 9.567469150861264
Cs 20.94940936617879 3.7412542086424234 14.237954472363805
Cs 14.770491861854063 1.324401530815656 2.813580599385599
Cs 16.128071599504185 0.14787174017803503 13.693579958221134
Cs 0.6853490597668692 6.302096376248486 -0.020852346377530216
Cs 16.03041821836551 19.196689655306983 4.936661777287456
Cs 21.351840614570914 -0.8056883307336093 5.77544923361591
Cs 2.685994728333337 19.988915675608943 9.663362523830592
Cs 19.603611980298002 3.4725623893786226 2.4408318099162893
Cs 9.515904466339506 0.8028713202457642 2.6841012395215817
Cs 20.691499726623903 17.169559144778905 8.028321655059466
Cs 2.4048885460373497 19.18894909702533 18.147883182595272
Cs 15.187938450200765 20.679516276394033 18.515685541513275
Cs 1.092176382571169 21.492161050960178 1.3020632342051732
Cs 1.7688051260852582 4.065502785024108 4.635769088751623
Cs 20.67272377630726 21.191690791543547 11.560715634374251
Cs 0.14361442525792026 13.29778466042189 4.826930965370818
Cs 5.8972012773955145 20.140879572193057 -0.006601742546866792
Cs 2.669273550317921 0.5464525791103684 14.46714960143816
