30
Energy = -21.06109485 eV
Cs 4.6550331771084075 12.859293291429749 15.844835138000937
Cs 12.203251129135815 20.512880536413174 19.061555113348792
Cs 17.37439716042062 19.848315520924224 1.1744601426674652
Cs 0.2571638968470835 0.6393880130464568 10.746118927118667
Cs 3.4878896636200682 13.755153924781686 0.11928481841707157
Cs 12.720770056692343 2.47835332971528 2.7423730346768327
Cs 5.94191694861624 17.76877271094626 17.509742987171673
Cs 17.516302719170447 20.253950338359054 16.51381374964465
Cs 17.5135878734288 4.293695471730426 3.6321896876261546
Cs 19.07355289020345 14.180611784344078 0.6503735697481593
Cs 16.332006727962987 20.385767552018134 6.366242288221756
Cs -0.13593735867174256 3.117906798355661 20.116621541001066
Cs 18.163688276061944 16.838872372378933 11.287100327957084
Cs 15.735804971469312 0.9370462871862256 11.310575838362213
Cs 3.109731361431044 17.13800996024923 12.594682672458326
Cs 19.021887875147662 4.480335763866259 14.935573707253807
Cs 12.33258756823737 18.19965638966655 3.1136459446878524
Cs 13.510396907582829 17.53406948969225 14.410440545948237
Cs 0.24610617466828802 16.206129618513575 16.901937831576927
Cs 0.365427527266944 16.739041733707218 5.586635068914026
Cs 15.576404009866698 4.285569826768355 19.471793286947957
Cs 16.827985434163004 13.244459790653456 15.602748938285682
Cs 13.192282252700815 3.041879219124712 15.074430896902811
Cs 1.9377556879166529 18.946909907717455 0.5105397797419532
Cs 0.3810910257797375 12.461310965602552 12.72392993409932
Cs 14.552658202410447 15.838197897706607 19.57378219600311
Cs 0.6451274595414249 1.1435828981201381 5.046400685808675
Cs 2.177646347180863 0.512560860162246 16.07596316213205
Cs 0.14297114468262795 10.26416261985358 17.64679787508303
Cs 16.13415955306282 15.19696934268341 5.055812158545603
