36
Energy = -25.54764394 eV
Cs 4.381462678312243 15.35105196211228 1.9002463372618021
Cs 5.886815932687311 15.769205912192424 18.88966819516611
Cs 5.617615025298514 20.246431852459953 0.4441151057446273
Cs 1.242666910126541 13.018157921964557 19.603089801259785
Cs 21.1918613271842 14.21910216727103 2.787963297532637
Cs 4.266914825549826 20.288720527409343 16.859848281464323
Cs 0.673942812317008 19.302666838799563 3.707331864551717
Cs 4.512749551647284 2.8529888546701745 20.007208781050217
Cs 0.5663224489043546 1.9232079203405188 1.2312304338290407
Cs 0.829421848630218 18.52422785398014 20.39124488785251
Cs 1.0922542198718763 16.070909761504733 15.225133953209566
Cs 19.39878040117445 9.944144785569211 21.776172426626363
Cs 17.82163419359869 17.40375590259503 5.458739216374127
Cs 20.959371756163918 1.8971641816669969 17.840067791717228
Cs 3.663932540449533 3.1534517605760635 14.94592757021085
Cs 15.36150488217886 13.318814119823811 2.729044749428093
Cs 17.942087979455025 0.8337400280550366 4.260920667231871
Cs 0.6905022833151737 6.839834830217481 18.798591967114024
Cs 17.827438193920145 15.616156724510786 20.810278075617745
Cs 17.998111390344746 4.691135927465145 21.649110796936117
Cs 14.808900928337362 11.104322093084988 19.600635181750235
Cs 20.91424060034622 4.692295732761451 13.44522654656993
Cs 13.713715540678697 18.762357808549357 2.4415152125517015
Cs 0.39388756278118897 20.983329040761397 13.038017957333146
Cs 17.798656533245445 7.27986344900265 16.88568956393116
Cs 18.469460190421053 19.188503845257287 16.708668280347723
Cs 17.804012144050787 20.935582515793502 21.538439946969003
Cs 18.909405082468574 12.872518796926366 16.288257196057334
Cs 13.454581037536117 2.039808939534192 0.8061755919100495
Cs 11.093824564006145 15.069684129129287 21.376019269094158
Cs 17.38904878867931 1.102527433561107 12.718186236767023
Cs 18.08361414455143 17.14011205233507 12.213402538069719
Cs 14.12194031937797 15.62896666839085 16.718912094626198
Cs 12.064996680108754 19.99470073944747 19.43515299971916
Cs 15.130131505854138 2.4406172494579828 17.532717646393685
Cs 13.496470042478037 20.214855844496 14.324017317150421
