39
Energy = -27.4099383 eV
Cs 20.45535644395421 15.109644924887672 16.062878274704435
Cs 1.6574329245476547 17.289097263171946 18.395727867111066
Cs 22.668155519176214 2.183924221082852 14.149275725471636
Cs 21.138899170233433 20.38048768411828 15.903574763661675
Cs 4.104639878570219 4.378031843557631 15.787985746540494
Cs 7.692846735856767 1.2423591272018057 18.814270891321787
Cs 11.140181918696001 20.995920691439867 22.09402894217042
Cs 6.342187036402255 19.347925930163616 20.1909310494529
Cs 2.980925942183047 22.41243857341468 17.261411933029738
Cs 20.887872038697594 14.41729047400672 21.292680142389788
Cs 16.469151251222634 18.30243881751229 17.437356880015294
Cs 17.01516132683839 0.6633416271941182 15.664007115769744
Cs 18.53652490373353 5.209895333117839 13.587798331305784
Cs 22.276998005598163 6.560720556627765 17.30173419478473
Cs 2.367333503648264 16.887000337390194 0.39862212773009464
Cs 20.74651693784234 19.632312722831536 21.35661866767474
Cs 3.281568958641844 4.25003185227711 20.722944429996005
Cs 21.548863430041703 1.516219347186883 19.49914520832418
Cs 6.714806642414014 19.754814675820466 2.351064396149453
Cs 16.311165608793303 22.671813348215753 20.72112559886262
Cs 21.41906856108872 5.6289711138530025 22.636613590382176
Cs 20.56514367874592 17.03910579026739 2.739662431787834
Cs 7.3811126325241245 1.642592925531425 0.8376943820282052
Cs 20.99771799924504 0.3793295086606836 2.2044243086599065
Cs 16.472232133153916 13.044344417207217 18.943994982980637
Cs 1.6365432848028145 20.205842366908048 4.401144038508813
Cs 2.607957845474195 22.27955516928365 22.546972434622216
Cs 17.310919053362507 4.8193520146078646 18.9631295791633
Cs 15.932438884059351 17.025129197411278 22.540768972391827
Cs 20.588429323856946 5.468514855323944 4.672374434379615
Cs 5.222118964483041 0.6766502981645144 5.647074970361574
Cs 15.80655142057178 16.75740987982013 4.9193681871573105
Cs 2.186047292040935 3.5520627547340444 2.7642549159754357
Cs 16.75502302468451 3.5328944879373902 1.3989108737231593
Cs 16.07821632431294 21.36130328128175 2.674882781624447
Cs -0.0061644386380094555 1.3702777330836517 7.426894101455158
Cs 17.436432010095096 1.7999209276189958 6.704246961133061
Cs 19.322121868360387 22.66744248709938 11.117960984322197
Cs 19.773278646732965 20.177523753806714 6.625606678182677
