31
Energy = -21.35986769 eV
Cs 4.229488282931292 12.726521459572426 21.843211888621482
Cs 21.461420306566367 14.405754608719555 0.8004784865430334
Cs 3.1727045132391383 16.28306474102403 3.8294299101802096
Cs 16.385167349348283 16.40661219709127 0.7964178342438392
Cs 0.9253874523827315 14.172588072425313 17.859931009617497
Cs 20.896407665565636 18.92312123767154 3.579535903414228
Cs 16.01257600884758 21.289214438440393 1.8728999218817706
Cs 11.569433090199084 18.11047930674827 2.6353381856738625
Cs 17.878079910477894 13.882830067137814 18.807881143649052
Cs 6.735904103012681 15.223774694481119 17.474594907363148
Cs 3.559975820993194 17.87742187374344 21.031629325621374
Cs 7.139195589738744 20.79076424212717 17.729327672686104
Cs 11.685820949947196 15.629119245291898 20.01674166937561
Cs 3.2950911869969697 21.689792706745195 2.269703033870891
Cs 20.531927290455787 19.035165619855185 20.34365853487117
Cs 14.043939318730818 13.718409307142256 15.49531479071478
Cs 2.3864002880511803 0.5260301187815809 19.204756201405463
Cs 11.769041161423772 21.035021528000136 20.648667929523214
Cs 20.789929609315664 1.3417634109115921 0.9316742354485703
Cs 15.74242106454615 18.88364179668471 17.746152435490888
Cs 2.5153374450850117 18.55179519494669 15.621149372612917
Cs 11.01356593907739 18.256860163601907 15.335060324979642
Cs 2.627752109275979 4.735652151975973 0.38593100048789536
Cs 19.46743482136971 16.806856897186282 14.561871540137808
Cs 16.655320482647983 1.459907512179324 19.58855682250991
Cs 20.264541136302142 21.970018922561806 15.892405768928668
Cs 14.692921667782375 16.81084895661004 11.6360143731069
Cs 12.3047485657375 1.2012242585912525 16.14362706099868
Cs 21.037891897242176 4.3761137153116705 18.651275471152186
Cs 15.872912472279863 21.544340935040886 12.97252267744787
Cs 16.850873740217143 4.071786861741909 15.089195358069611
