33
Energy = -23.33888586 eV
Cs 4.5758843790854 20.83693951624351 4.167779538714283
Cs 4.348920263551932 0.581295824819539 20.481638660892937
Cs 21.231474518785088 1.2194242037068843 2.302251413187683
Cs 0.4165521680919091 4.163360861073452 19.48884116906176
Cs 6.062831698766358 17.194536107648965 0.2648027004865924
Cs 4.301521883443946 16.04055070699131 5.658121082421
Cs 2.1178865592249903 1.784569134291579 14.788103613960278
Cs 20.992631705657598 19.425647478251182 6.716163083553616
Cs 5.643501951692936 19.046457236316076 16.124163489391563
Cs 21.22201607850098 20.394301910021852 18.14766398625432
Cs 16.907783342742917 2.9535569959168484 21.229889358125806
Cs 0.6929749682224361 17.780110610243696 1.542866525991
Cs 16.39555213339776 0.42018508554483025 4.85741116047998
Cs 2.8065337753142483 12.903923538397333 1.6173463613870334
Cs 18.131237202204957 3.350185659868112 16.10678116685605
Cs 20.752100159772368 14.211130444439682 5.622982453158778
Cs 12.692579901566527 1.4468178086191306 17.898348969777512
Cs 2.285052160538207 15.459459033550171 18.2853175936867
Cs 17.221041382281665 19.348797914526937 21.22646856513208
Cs 14.36002447646489 2.282645134126769 12.6298712787377
Cs 1.2094197540904426 18.131561937792085 13.045080721361542
Cs 19.286400812877055 0.3298911314515195 11.385963609497345
Cs 16.406920453485572 16.713519503204296 4.340889064074696
Cs 16.292999330951183 19.882943203007216 15.598464863796947
Cs 18.816136045832742 15.30447041693838 16.40809112598256
Cs 19.240416177990824 13.608513415680655 0.10241813706546969
Cs 12.253758375494584 20.819774614537067 1.337368236668029
Cs 10.46908096228431 18.00943018798095 18.397699334017734
Cs 10.485616734791211 20.282446010766257 13.445700552651548
Cs 14.514228258567941 15.183608448956297 20.018716611415712
Cs 18.405452000777277 16.254589280678548 10.601329204924001
Cs 14.497894712390968 19.36741269850965 9.543169444364981
Cs 13.579580605299936 15.863821628119736 14.365105081097427
