31
Energy = -20.52987906 eV
Cs 20.39080946419174 14.473891956268067 6.16080627608771
Cs 17.05547808825798 18.246150999378163 5.3070655788068795
Cs 0.44216100227051824 16.75751310893116 3.911262052697805
Cs 20.801736640180444 19.906346764452984 1.6281541264775607
Cs 4.270745969171948 15.847875222327442 0.5266767727596999
Cs 23.027247453654592 0.8386641660929846 0.9196522457810609
Cs 13.724130829627974 22.100843719597673 5.03118831848338
Cs 18.788934347923384 15.045358949400034 1.2008582147433564
Cs 2.3917156261851678 20.64783267637469 0.9299403921340894
Cs 23.26656363338778 16.365265380544887 22.551860511429364
Cs 2.5313269153688 12.764216233617033 20.63533508216808
Cs 3.4637803269758045 0.7779098750603544 21.980072065092816
Cs 18.11154852771183 0.15200566157155934 3.3237184355754366
Cs 15.316413702540144 19.58451854138568 0.5388232683900641
Cs 3.2060932548658543 18.267047110273253 19.446027045903076
Cs 18.251334520652804 17.921253653861 20.782649511434293
Cs 19.174415367719497 4.347808922178091 23.453776158078778
Cs 23.083856621171716 21.304996840569952 20.744986438909137
Cs 18.52990967652772 23.299539912926914 22.09309747912769
Cs 21.424596833379486 17.5853818867435 17.043024459758158
Cs 2.7826171138142435 23.30232222405334 17.152798761232773
Cs 1.0765581470769139 14.107296468071581 15.976681105206595
Cs 22.625520357866016 2.7919513475430953 19.72095166625785
Cs 1.4648845501550918 19.182141304866928 14.389719507254345
Cs 20.643688360716475 22.90875503198262 16.519288240289796
Cs 17.196472700253924 2.801347706174175 18.23488996216775
Cs 3.218720818769534 4.497392177843334 17.970023081970847
Cs 15.607509775632435 -2.179812191256931 18.189378362708045
Cs 19.652791758402365 7.367281732589883 19.04666485930371
Cs 20.79297815190581 12.76302464150975 19.824943460807443
Cs 0.3780963362014702 8.916514847625749 17.458323431521876
