32
Energy = -22.35055836 eV
Cs 19.162318935179027 0.2987328210159881 9.86952026578517
Cs 18.748571178413254 4.0859731635194345 13.325716541661045
Cs 14.393172692524368 0.8393339636158222 11.961310404725893
Cs 1.4702420131856946 0.5487164035041338 14.123753246617104
Cs 16.31671727416862 17.414219516371798 11.495737411420635
Cs -0.00434282912024475 17.673063539823254 11.689515150867704
Cs 20.374883757135922 3.000602157327958 18.210810818655066
Cs 14.8281142671315 3.394867724650365 16.719705592669406
Cs 18.06667414033197 20.52394210381907 15.174352365780063
Cs 3.6273874452797155 17.419805767671868 15.65044292657555
Cs 12.478412561945515 20.013963478609533 16.075876202696413
Cs 3.397004178120675 0.8183272411778211 19.154890762756683
Cs -0.24823969041519486 18.85937727644016 18.3967316936832
Cs 15.10419588596423 15.76683217194468 17.52524299703982
Cs 19.918621993366944 14.57146464815263 15.481137923277002
Cs 15.924032036392838 21.18024390602174 20.10670249263789
Cs 17.286231190276286 4.358753986021843 0.6612602262807599
Cs 1.2247546225968393 4.624381817341287 0.9501506593695037
Cs 17.659509774861064 10.733641133103223 18.73236910625457
Cs 18.467464122324486 16.025698408599094 21.467561154951017
Cs 13.321738217085409 17.428542624420704 0.8848452910623615
Cs 4.607396678236586 17.82971530787577 21.120848210161704
Cs 1.3588542027989963 13.714983386618643 19.680510921845798
Cs 14.722043635837542 12.266143156312317 0.9259483777895785
Cs 20.527959396187402 21.188726123785443 0.975462161482344
Cs 16.31925863826601 21.19102063157815 4.376884368085987
Cs 3.263140925224992 21.60486730160146 3.111984036695366
Cs 20.54343829880824 2.848334263006384 5.17107182751751
Cs 19.836625489696363 11.267440814199292 2.0225967101468414
Cs 17.00395830417696 15.883340198028291 4.749307188707516
Cs 1.202902529399408 15.882034850834128 2.719178345115726
Cs 21.117231350981456 19.085693076363775 6.135775959564552
