38
Energy = -27.04239034 eV
Cs 0.3983347911026671 3.629855988474838 6.338751681141415
Cs 20.603716397488974 20.851698622389094 6.87344139213625
Cs 18.175048208522526 1.8403634574514582 3.415836107703365
Cs 2.3494914721833133 17.285184035865445 8.462824892999643
Cs 17.15840078667648 18.620535443998293 3.289066135572846
Cs 21.380864210290614 6.463079082817442 2.1161362004484956
Cs 3.680675673356809 21.638246947096707 5.9337112901274
Cs 3.823549751592768 3.8317269177435236 1.9915077845230613
Cs 13.023746045992743 0.3787671123713658 1.0527797375727932
Cs 2.771115116509977 7.823489676663113 20.208279802506052
Cs 0.520421675160995 21.629357372522914 1.59539903984753
Cs 13.057041931666973 17.430396293767156 0.25869297269674696
Cs -0.1404108114652365 16.76948435325551 3.3095439453331132
Cs 16.604024658935515 3.965897288452257 21.227630953833238
Cs 3.2857879777267938 13.199016883021025 5.0170744298628565
Cs 6.213482507205946 21.336744850142168 1.1842798473231115
Cs 17.567396597501823 20.749265536309764 20.70582306707375
Cs 17.810369278195733 14.934645964060532 -0.9401811901472918
Cs 9.659293647340029 20.493317274462534 19.518916726200676
Cs 4.882312755695988 16.26653889795914 1.0522578276917613
Cs 0.27097972135578335 12.057092845416205 0.3881262866813693
Cs 21.744786606828043 3.049383623504815 20.07386633967288
Cs 13.362071726398616 1.5861910560596266 17.824614362148026
Cs 21.411170085354275 12.12687612429725 17.155709029092606
Cs 5.013297390007131 2.367296524113451 19.02236364059605
Cs 0.13906431059348456 17.524261255512872 19.827926877681204
Cs 13.999956257236672 18.416573815490576 17.395201339957683
Cs 4.998841864139581 18.765715424463572 18.358951571479817
Cs 19.397472107845445 8.25332402148566 19.89626892513537
Cs 4.112674397137457 13.338771316918537 18.780271746212197
Cs 1.0399881063832364 -0.3010262029893894 15.988919054473548
Cs 0.6619240437906833 5.793928484376518 15.713787969134298
Cs 17.618839921834056 4.7883787667901885 15.98724819439603
Cs 17.921034775260267 21.89102222052819 15.503351455747381
Cs 1.7514658882655008 16.243351991219775 14.656852137125192
Cs 18.59882783772932 16.475288736321655 16.08580840653874
Cs 20.58141905649515 19.158802324750443 11.870315503369449
Cs 21.13263953215853 2.4727492101857047 11.62791989553118
