38
Energy = -26.56508393 eV
Cs 10.719660038052583 0.5412197514380653 21.05802502511003
Cs 13.703971518075736 3.67683588554801 0.9656782480476458
Cs 14.23948421025347 3.4244681198957947 18.07926939679344
Cs 12.63766751306862 21.047049176833223 2.3027157987875557
Cs 11.667191489208397 18.08393705836669 20.25707943757938
Cs 13.590985287830248 21.287393913449048 16.45165115922849
Cs 17.40897149340337 0.6653065112015585 3.270659765959767
Cs 18.19261300674711 4.611704020885757 21.5776118088441
Cs 16.26387087302154 22.3994411537764 21.02405384379699
Cs 18.91640826132849 1.1467397950544822 17.008396130538266
Cs 16.036141024044824 18.85835443252946 5.680741477134587
Cs 12.909977455830248 15.750969273479468 2.4350036990361863
Cs 15.09884672451464 16.157043755118792 16.577871523706484
Cs 17.785000271268938 20.50777635974133 13.18648990164962
Cs -0.11603645732697654 4.463796161553664 18.861656327461734
Cs 15.616800535380962 13.182974571586362 21.340505199327954
Cs 21.589557502693737 0.6693309386905117 22.66188622173617
Cs 17.010550838162807 18.000796131223606 22.730700935675795
Cs -0.15144568051450613 1.8816632549997765 13.589805527844133
Cs 19.513966105244055 18.50994682571278 18.076948701936725
Cs 4.469285739161966 3.660779646135439 16.557514344069986
Cs 4.317467935905554 1.7873342860937498 21.59268498288915
Cs 1.352302923338457 22.13484926005113 17.90915277664911
Cs 20.92286593411681 19.003443192715615 3.2461132529636125
Cs 0.14932428296472133 19.257948655832944 13.708700274515733
Cs 2.8316020263024386 21.848261118552596 2.895297600827561
Cs 18.065063029561554 14.361824809849542 3.4853468720400045
Cs 19.530480294550006 15.469277635470391 13.45471534802186
Cs 1.1703301404781927 18.797887576678104 21.373017734247437
Cs 4.480106771829323 22.131775574017855 13.451361025611625
Cs 18.999888663298112 12.352524794393686 17.648196963939128
Cs 21.303643355601686 14.274813368632868 22.138489710832193
Cs 7.3859970710492835 22.161001039410973 17.8262312787764
Cs 2.8534785499667605 16.559604226733683 2.8495800195870267
Cs 0.6900145207829304 14.92452360815305 17.09471345673835
Cs 6.720217682606153 19.50280878044063 22.52020029431929
Cs 4.9957270093862425 17.911340581565202 17.377881295669688
Cs 4.064960408359802 14.259247849883343 21.170464629387954
