30
Energy = -20.45143776 eV
Cs 18.97241811257395 22.49825814810529 14.028404830568887
Cs 15.851889449660295 17.684234322095808 11.177362348191076
Cs 21.282452880890766 18.33386177248773 11.702349390835343
Cs 19.213607691807766 13.610404411317914 10.926120046783078
Cs 14.538542296693096 12.090047053139052 13.301027903147975
Cs -0.2549569067518706 14.519932783192282 14.527664750025
Cs 21.426340703598022 2.8604663897222666 17.397367794363127
Cs 19.488799410849936 10.182801599366075 14.913602571921636
Cs 16.366175619647233 3.2744092741224677 16.375337878912173
Cs 11.694775180825324 16.902435167678178 14.179337739464389
Cs 14.041870040721886 21.678211761231314 14.950919695044393
Cs 0.6474743843331567 21.466776246994655 15.5925296117499
Cs 20.382304590318302 18.338470328242895 17.264083328707002
Cs 11.945893664282185 13.894210238075159 18.314789761262933
Cs 16.74269817620954 15.69242207693014 15.778207600341588
Cs 12.188158559151896 19.221802654961994 19.075264454009343
Cs 15.732597295225702 10.62878973535352 18.57954962640503
Cs 17.38691043552631 21.67923920302658 19.36745878426517
Cs 13.118230425876211 1.1768153937861292 19.874157408658693
Cs 1.657621329180352 17.39924433522403 18.966373587012015
Cs 20.767354629386123 13.351814308625496 18.99100464464979
Cs 20.1167415198861 7.91446373436493 19.98664549875328
Cs 16.098940134605556 16.362707939272582 20.913526716758344
Cs 18.038387753752993 2.98545652091139 21.563246358380354
Cs 22.590797297077387 22.197774242348746 20.764483391209705
Cs 18.04142160059228 12.083804754536601 -0.028586137983887865
Cs 14.131066541930576 21.05470134351284 0.39175622237461677
Cs 20.932921770117762 17.395306737888966 22.795625711671644
Cs 19.08579409009946 21.961942279809257 1.3163776903546776
Cs 16.859662060512637 17.272163813889872 2.726979362375694
