38
Energy = -26.8920851 eV
Cs 18.24682036991452 1.0279422890164889 4.089986603682853
Cs 1.5521639553397542 21.920796514430602 4.772796702903511
Cs 17.850765081072517 4.734262493668108 21.69508344847937
Cs 19.82648903635718 19.163835619426475 7.553393343827283
Cs 21.83370483794859 1.5822782033532112 0.28254033887482477
Cs 13.465187021817329 5.007139834737704 18.769334782566936
Cs 18.088536671261927 6.085684966458604 16.41162018789497
Cs 13.475406737362013 1.5781879553083646 0.7909300906705622
Cs 15.481097166753173 18.784804302566155 4.116288937009669
Cs 4.484643367359446 1.8415226531480673 20.61355547973293
Cs 3.8077862516361205 19.021841288014194 0.16740772897374534
Cs 0.38639474208858715 4.755002221607267 18.268001516102043
Cs 1.9626877503230185 16.676318860276353 5.0506640409879875
Cs 17.149101681416884 20.629122089513665 21.405113354981623
Cs 20.762060507595702 18.643360012671764 1.6217841650560223
Cs 19.28943491577192 14.550683989545739 4.512896337416744
Cs 17.594557627349474 0.9093735290978644 17.34206864825651
Cs 14.550644070056109 3.277354364667828 13.644521435434507
Cs 0.4222923793949588 20.756950863867587 18.25358551506774
Cs 3.7018712408222427 2.0901235897365296 15.193737666351286
Cs 0.8973549299317894 14.136111767344866 0.3778170856194751
Cs 12.183600310256972 -0.0017546903125529117 17.581525955711065
Cs 16.253728108406662 15.175422589792964 0.2520282094450024
Cs 6.223411247020185 20.07588543733653 17.416451447348592
Cs 12.041134828427829 18.635057603604146 21.84243442670234
Cs 20.8772092150334 1.8507557695085706 13.348844159400072
Cs 15.089959596172692 20.35810067648715 12.706137623186217
Cs 2.676657730766468 19.421282597333995 13.229995852627473
Cs 19.858725944655813 15.564168195405937 18.495996028157528
Cs 3.024228283648884 15.987734742321344 17.854602827013593
Cs 15.059288319450328 17.602515921890824 17.441015491535556
Cs 19.0267077445882 10.43520030109425 21.27256029364709
Cs 19.790815521150673 18.95127399383349 14.163850417836958
Cs 15.236548678238233 12.2334332021595 18.10222231501363
Cs 1.0387653662507663 10.849177614327836 18.269906310238056
Cs 0.2669445324012393 14.43788133010085 13.595266952946497
Cs 16.772937586236363 14.837495043589511 13.216006688564072
Cs 19.208236292162894 10.827465877618163 15.289173674423264
