34
Energy = -24.15315141 eV
Cs 6.447232339968546 21.21851247098132 18.68026771309204
Cs 3.7912874093175115 20.281430571163906 1.888891047887213
Cs 3.100300932569301 3.238183682624796 16.223374951900322
Cs 3.350007146401797 3.3905848646266183 21.36109129001469
Cs 5.421777375221719 16.623197914866296 16.080889943869938
Cs 5.412529234872367 15.965182291695793 21.22129344147132
Cs 20.845552564903112 1.9044005986838772 2.5868985341517803
Cs 0.5408997460197658 19.60949761246187 5.808402950881478
Cs 1.3462595879696995 15.294590938949483 2.8492156279847607
Cs 20.355918558134412 2.1783178630666615 13.458169730398959
Cs 1.5131573485887935 19.852971444085735 18.744413133246645
Cs 3.01140750202667 20.477103887399448 13.437012449931713
Cs 20.094711003726314 2.686162543478306 19.006309943042794
Cs 19.318759477014435 18.65277302376456 0.9369912228515953
Cs 15.787598751529284 1.4842313942325516 0.4169397275765763
Cs 16.628482591647806 20.69920967053213 5.547641338916803
Cs 0.6762221208850191 14.48232292252986 19.19230592260532
Cs 18.51718132118898 15.66882606980544 6.435631745849036
Cs 15.525708703383593 2.2878569857733093 16.372410365801777
Cs 18.524532185679135 19.4802973603912 15.931142580492732
Cs 20.009384224239355 19.4581827227245 10.28732943218104
Cs 0.3297291127365951 15.91468513565413 13.856159310090007
Cs 11.492988072407167 20.409261679360604 2.159788208059875
Cs 18.264068545543967 13.266925193534618 1.06173945746499
Cs 11.27746798215081 1.1821910280139403 19.123498984253892
Cs 14.9822660453715 18.276682894231495 19.450041099869345
Cs 15.529931632807063 0.2808527431680903 11.229890184690438
Cs 14.314126052214863 16.1184941668918 2.7232064177108524
Cs 17.57479089967996 14.183149925230834 17.03520822201414
Cs 15.952564046348753 16.36105507629743 11.788660044454918
Cs 12.261125377943976 19.60808028881934 14.798526909311507
Cs 10.122055641992656 17.156763094236478 19.5638482895223
Cs 13.643665762737504 12.708616230433629 20.26411609992396
Cs 12.56960113176303 14.462231499861362 15.412386686321911
