31
Energy = -22.28042932 eV
Cs 0.7590423914453177 0.3940661571825794 12.256401701512468
Cs 19.67116561950487 16.840992591511764 15.31933137098346
Cs 4.606531520133448 15.836993903294372 1.0290257477889129
Cs 17.22266867558387 19.700271515709872 9.393907907842054
Cs 6.575910993635299 0.5231643850679669 -0.14692733130514823
Cs 4.254816109691039 18.432169584769262 16.349627304247747
Cs 19.56119813543071 14.93498659564997 20.479086874295643
Cs 11.715285159790044 1.4003351008064087 17.37216274558319
Cs 3.368559813895646 13.44246162701143 16.853201119633667
Cs 15.195207006990884 13.510109322335188 16.972073922186198
Cs 16.861833528265734 10.142876149978267 0.5021098176251836
Cs 17.943596033382068 14.451274435173165 10.772786878667839
Cs 16.472117026431185 16.06245089736835 5.032630002371236
Cs 13.259339525341836 14.295584350470568 1.2941595401526194
Cs 0.10177336974737772 12.865926985070127 4.634683254782025
Cs 19.940605919520408 5.537899416449437 19.58445774407112
Cs 19.58485579361927 5.422534270811848 13.651983234043534
Cs 17.61403156744325 0.6367842579898165 3.963131529773223
Cs 14.811063367738766 2.585282547575589 12.750192050991703
Cs 15.700400471446581 18.543497199832288 19.818744503031475
Cs 1.14477463242847 17.990888365364285 4.8906017833521735
Cs 9.539437195293898 16.470678913477993 18.54001677195149
Cs 15.055491862705129 3.622599448936531 0.38127031234283687
Cs 19.433535583263126 10.554306996505318 15.838186776920987
Cs 0.9088753972713086 20.309305731405868 20.469073264119707
Cs 2.974647761218037 2.965046292083711 16.612995231667984
Cs 15.31074535032603 6.585992923775628 16.619701876332204
Cs 18.010554134914365 1.4179805480357808 16.626208273168793
Cs 1.6782277650677622 10.288841480030861 0.013554551989427916
Cs 14.302536631404134 18.047126908721282 14.275148028021945
Cs 11.583482827226007 19.94344420155467 2.027856376490761
