36
Energy = -25.82322867 eV
Cs 11.864565441682002 17.627682724817316 1.0989584102054737
Cs 11.444176682533376 15.719839790142055 17.54617463172684
Cs 15.982593458378725 14.49300312052835 3.1625125463032275
Cs 13.255762633479167 12.132890345029224 21.228346048046166
Cs 13.370452210360098 1.7674837949874356 1.6487689039691062
Cs 16.67967059218909 19.828585504687666 2.7621086626462996
Cs 12.430181832831241 20.829704192553848 18.885676731618233
Cs 19.017200253975776 2.6197639887683897 3.146043572581954
Cs 16.409901310653016 16.56786762865372 20.152800968938273
Cs 18.76787443595009 11.31637696490861 21.37242661989426
Cs 20.947894280945352 16.00192236414153 1.553866470839003
Cs 16.028661977268477 12.683492470480317 16.41064187181717
Cs 17.132667053962678 1.8021613794570048 19.87714916480959
Cs 15.328499650637442 1.5345344484782415 14.90731341347116
Cs 2.6269637813851836 13.114261316980052 21.37918070025373
Cs 21.1062781041273 14.499907018688553 17.799152324982565
Cs 14.880279532575663 18.047531743431527 14.20608632756329
Cs 12.57737088031949 4.277781690787253 19.02131345139446
Cs 2.737367781494514 18.362425092779766 19.596868870577087
Cs 3.847372113488272 18.211909167881565 2.4845215717393603
Cs 19.510475938595956 15.812152054187711 12.97639580653439
Cs 17.380654549389096 6.628091125144728 17.131147000649467
Cs 21.655921122438517 20.28825374933387 5.092183200673278
Cs 16.273997928320785 6.607763950137606 0.4206612230763989
Cs 4.259358161537041 14.774804088223528 16.286800791114967
Cs 18.90210548306515 21.106768047730814 11.753880651734207
Cs 7.320317262400622 15.980654020503977 20.96390854416722
Cs 19.179379456684185 19.628947079081136 16.844352990353066
Cs 20.96244138098887 20.970564637971407 21.67129310481928
Cs 1.649275500864749 19.32288612820913 14.239466838574671
Cs 20.834228838296 2.4700906459380914 15.476645040214988
Cs 7.453510616510412 21.351066416841192 21.69815542893636
Cs 7.211955502942738 19.490221551408638 16.728621188199366
Cs 21.48893905381541 4.851408029457584 20.56222728375806
Cs 3.035429203024484 1.253095512611343 18.4563787475037
Cs 2.5070969314652087 1.6442965743602425 1.803491625145092
