35
Energy = -24.92770633 eV
Cs 6.381429419677797 16.789104689142214 20.146926355840556
Cs 3.511964467372513 13.991172533257066 1.891967014052333
Cs 1.4780187652600085 18.831588627126244 10.481019215315094
Cs 1.6154498371699488 13.606173468836122 18.436940659218408
Cs 2.1420081820432317 1.855400955533967 14.160390768821925
Cs 4.178444107652173 19.37933536381886 3.3729159606285686
Cs 4.42165494642771 0.5212464520717972 20.040314894435305
Cs 20.875442642892047 14.94026863428561 13.863806628604886
Cs 2.682559611799952 18.54046508425466 16.280209940114347
Cs 20.446137706309642 1.8883311396139821 9.805672461794867
Cs 19.651780898503592 13.096728578027598 0.950079586868036
Cs 0.40416171731028455 15.877416380207942 5.637750596149139
Cs 17.742636795365453 17.882948949399033 9.540925772639147
Cs 0.40742423000400524 18.15136700956985 0.00976807833486448
Cs 16.00532015545044 13.847755605593052 12.909153693581187
Cs 20.575199218608475 1.0662727963538094 18.445207884833433
Cs 17.702963907671645 11.469047740396391 17.486751640409363
Cs 0.5412643975800673 2.672813476580539 1.7378321001726948
Cs 19.149193158457738 20.107190231999358 14.125199228401838
Cs 16.673487765208517 16.54540376493733 4.169826751774601
Cs 14.28483735054465 14.02183619310183 -0.00501079549146962
Cs 20.18246845622117 20.705843027291852 5.23537576061314
Cs 17.62253350195206 16.7006667171115 18.02958696547716
Cs 16.935383556734674 20.57996981034813 0.5381837970114639
Cs 12.398831572369478 14.004529806524376 16.698456380346446
Cs 18.827720718766507 4.435953088771225 14.54849292600272
Cs 15.462382363595676 1.3156868822873022 11.257809871921244
Cs 17.24773095898221 4.9408249722650295 20.393408704529126
Cs 13.861445647885402 18.442038432413263 13.858444474968586
Cs 17.22224270250618 3.625925150654044 3.9086222551827747
Cs 11.287873113062883 18.161312223219962 2.4108970479308525
Cs 14.52431227961362 21.242033424889005 5.909252314468774
Cs 12.103848682346957 18.996608380187183 18.875537649405874
Cs 15.047017269970025 1.4684010108257186 16.955358734735196
Cs 12.650289871616913 1.8672946865729445 0.934675458684488
