38
Energy = -26.77358655 eV
Cs 0.828282037886497 13.797728706061536 6.613961352604794
Cs 22.165943041380793 18.9947604061451 6.748908427893224
Cs 21.225550445465725 1.095468325365478 5.2265492863717755
Cs 18.20649008574862 20.124777288482726 3.433445730896889
Cs 19.987936387108196 6.184045454002115 3.7627495761403815
Cs 20.414347310087688 15.134843419744177 3.040696433035875
Cs 17.3825504886439 2.200128000663275 1.6719817273128903
Cs 2.081448771875774 4.88436111398334 3.732170686858905
Cs 14.040047361920124 21.372989502150414 0.122189439088233
Cs 3.300294157177732 22.993796829127092 4.809363162553051
Cs 4.012510989578594 17.90013399937552 5.922717471680741
Cs 16.66038490762709 16.55244218703756 22.691236094298574
Cs 2.7355393849094773 14.89802818617 1.6949190747766825
Cs 0.28921153223832025 19.971796377888968 1.6665703739621491
Cs 22.479736087453183 2.3339935749169527 0.15098593599873034
Cs 0.27903991100208997 10.042333280266837 2.4723689945514784
Cs 10.364635117598224 0.020068780816579822 19.579237766338586
Cs 13.610488694249469 3.372488403406121 21.517837935393164
Cs 20.55564022587362 7.317135158058693 21.917911979999367
Cs 4.826485948515228 1.7730139847823383 0.11039023290167196
Cs 5.783326867723343 19.569618333920747 1.2106969324798729
Cs 2.7621032489625237 6.76792861154792 21.905474032356324
Cs 19.134587425940346 21.468623929765013 21.50566084468383
Cs 18.467186602498014 3.2904955720400695 19.54117047344939
Cs 21.90513437421479 16.389919459018117 21.21708693373076
Cs 15.2976431185085 22.599675693796883 17.67824499656841
Cs 0.9833024571645057 21.86993152262802 19.99541360509556
Cs 0.4301430452560051 3.847597279610012 18.185739828590233
Cs 12.628479542937347 18.212461765005504 19.33074389920781
Cs 4.042425679487463 16.46173670574155 20.08140040649948
Cs 5.77993695251837 3.413841007282332 18.392311726446405
Cs 5.898010663115205 21.21370925567937 19.423692972326794
Cs 18.290491471160973 18.049673002033046 17.65240936909499
Cs 20.514656492897103 22.861436868350655 16.134329920104665
Cs 0.4340678521323028 18.197470583226323 16.392758872283405
Cs 2.7391249426931172 0.00874729116080341 15.037956508369776
Cs 5.6489261794626335 18.441866156676234 15.153696180384934
Cs 8.005528719709316 -0.007347805020172449 14.75337913051522
