35
Energy = -23.81840642 eV
Cs 4.925650943210695 21.683794802551414 15.334308258551939
Cs 22.946516073299932 22.930209602653747 20.294062899525713
Cs 8.712262337006683 23.258468285346282 20.21518041937359
Cs 21.434739263785673 15.771594271074951 17.238164692505507
Cs 6.229781313216398 18.883960597363128 19.773394715970202
Cs 21.240784663068112 1.9723065869446652 3.8152625617075127
Cs 1.4330759318530775 4.068972778937826 5.185493436451347
Cs 0.7110938715536959 1.97587979946285 0.050950860481140926
Cs 17.484249700255788 18.835217404844457 0.4706439589163999
Cs 21.736744106132168 22.184428625381408 0.6106885863653287
Cs 12.611449041324258 0.3037581342537792 -1.132835966600653
Cs 19.731496190671173 1.5436286293488843 17.45710114395477
Cs -0.33412695113686897 3.837916182799003 19.363074493710805
Cs 17.228941679090884 17.612804148797615 19.690982894986508
Cs 23.136095543806956 4.643548429561082 14.291864861810605
Cs 3.533349408380468 2.562353022678204 14.82499964226046
Cs 20.05844959829223 21.051946989133597 5.1356274287166075
Cs -0.14694020545807962 23.67964585929514 15.276628231317108
Cs 16.683829414050486 -0.22001364674945 1.989761687838798
Cs 2.867123236339601 16.20011606722561 23.40557479117081
Cs 12.92568662402199 20.623576122044668 2.194250421384991
Cs 1.2759215222745801 23.046222710125118 4.231982575239173
Cs 3.712887182967355 0.09962130380024498 19.67977870801813
Cs 4.100377108044189 18.281045598744193 3.8580979140851515
Cs 20.08251358911618 20.701139167239354 16.38695967131063
Cs -0.007767210262513208 19.465662667923862 7.599588493214837
Cs 22.156467614924356 17.887010310097992 21.982793317775425
Cs -0.9234998972247367 17.566714056765445 2.6743564487859173
Cs 17.353347592458434 22.667921550687797 21.134620191467132
Cs 2.7124215345216927 21.173013367186233 23.570246092789578
Cs 7.933922078757137 19.97328666720283 0.38171818037627225
Cs 1.3756568805608516 18.965563512976786 18.28793858762228
Cs 12.420986575845802 19.495382291187557 21.57711872106667
Cs 19.96973158454944 2.51801760112963 23.01542197889162
Cs 0.6452861785542482 1.6633582994504372 9.905231316595534
