31
Energy = -21.9963786 eV
Cs 20.13478953089445 10.038287763183884 15.622789434473981
Cs 18.515273545703597 11.870481512441652 0.45406833875165964
Cs 14.983299935330844 11.341799542461736 16.414358808745465
Cs 2.5213870270749728 13.588282895395198 3.2751722778232444
Cs 3.0795279130676625 11.618196046875171 18.992398239689862
Cs 18.716633746801833 13.554329669282525 11.519935921547562
Cs 14.225872749662303 16.277685897918087 12.781808708027508
Cs 18.0983655599803 15.394101121666306 16.476355631871474
Cs 15.615101879539933 16.786981064554904 0.3700494697332699
Cs 2.4232573887460984 15.096490654899675 14.864319175444079
Cs 3.207962724325595 19.093505417832812 3.599970981736328
Cs 11.746024110746903 15.721677280587514 17.44293010574989
Cs 0.7719615096862723 16.6350086421761 20.13233822216362
Cs 18.867696283108867 16.558241190473304 4.644215801422482
Cs 6.072248903629088 16.54192450058419 19.241623107449204
Cs 19.75933524351438 1.060613182540146 6.588414262675934
Cs 19.636708654535884 0.647817729136637 0.6147254311825509
Cs 10.473778009143244 19.95094983109908 14.454066035345315
Cs 15.364984290365806 0.5311521432560388 3.4833799551967597
Cs 15.873097977581988 20.129221597050265 16.762086170426414
Cs 5.018014506788721 1.260205581941139 19.759524450104788
Cs 11.484763800279884 0.12979415198225772 19.86888311804427
Cs 1.3957704931944819 20.398240896217988 16.28869492146258
Cs 19.361214992908277 18.848524050850695 11.91501648734491
Cs 2.7082399648309052 3.7209450774482953 3.2478188381051942
Cs 14.79319959763239 0.8675270256081207 11.23545528102198
Cs 18.457632730784933 5.435090728883399 3.215948336611669
Cs 15.672542751022842 4.240322268118014 19.712692410586463
Cs 12.794252614032184 3.8544851880702544 15.388612030143143
Cs 0.7731000129211038 5.3147027031184395 18.870082939697166
Cs 18.44874189587973 3.620939619919909 14.612465627146975
