45
Energy = -32.57987493 eV
Cs 1.229507574597488 4.066112662730271 16.73616688276245
Cs 4.657344211769797 22.29816085834397 15.764356557106497
Cs 6.124397989929889 17.262262173703295 15.224594132600014
Cs 21.14394260914797 0.3708132810788336 13.635206898620357
Cs 0.907597784236372 18.434645481392693 13.397941864228715
Cs 4.743974566648914 2.041731877274918 20.6635629160698
Cs 6.661663392110336 19.67526380360538 20.10737370282598
Cs 21.582961031231214 8.428244432537243 19.17590138646143
Cs 18.904632501006983 4.899573465147571 15.906202779565152
Cs 15.778345915897253 0.12937941840568437 14.292210019342594
Cs 17.82077217635558 19.03645800681615 11.555768323372977
Cs 0.39142249010847985 -0.6915510703330487 18.578769323459145
Cs 1.7628291955458977 17.26999691487542 18.876066719287774
Cs 5.995820137046017 13.704455291280363 18.916667620838624
Cs 1.602761323316906 12.998815858953376 15.815154259664434
Cs 19.27978289831071 18.92193920434099 16.485324953617546
Cs 22.178408681313833 3.113820117470549 -0.56225631612261
Cs 17.402941748913634 5.691895264205774 -1.3498580342929198
Cs 14.000357216310714 3.802554532831863 17.565770880950524
Cs 2.395108334053956 20.494029441987408 0.09883462693527276
Cs 11.134682581748454 19.846856277792263 14.82639685552896
Cs 5.045086994633702 16.03441271791137 0.8261559848016972
Cs 18.3734690714028 0.936524767538862 19.168271333712315
Cs 14.977666889134696 16.047442823010154 15.637454261314756
Cs 2.7263113114239497 1.633391354501839 3.3990880571830777
Cs 14.531126326168474 20.647349137229337 18.917086790477242
Cs 1.3442403899289066 12.6356737386772 21.355703977569284
Cs 20.119101723357513 14.44188264167788 13.042196590617424
Cs 12.773775144077483 2.7226539612725884 22.435854772274126
Cs -0.1349663333571696 16.021141035832333 2.4393696340315123
Cs 9.790980503673596 0.518935556806815 18.624809263560106
Cs 20.37072087325448 3.24990252804756 4.479884804960898
Cs 3.2658439595859026 19.294196659195666 5.2966292256921665
Cs 19.57712912351197 13.744234005380141 18.215106098909963
Cs 19.854064965089027 18.623119746603017 21.494256722790382
Cs 10.49349459175313 16.583960828089108 18.893225162659924
Cs 21.353061314885572 21.072193799276157 3.259625208597334
Cs 15.226554932351062 15.784437782837914 21.200286762718356
Cs 16.831083807101994 0.11581043483248041 1.438185345256072
Cs 19.043871078242645 12.515098719244762 0.40469216801119
Cs 0.12270504730254254 22.55579233441573 8.277631787757754
Cs 11.796116548144601 20.10624350166378 0.26196508851527817
Cs 21.34163596399904 17.53403971223454 7.870869967376631
Cs 17.800579053798888 21.88573193579099 7.061458617294168
Cs 17.140774537349433 17.663596870452835 3.116370239927231
