43
Energy = -30.68354828 eV
Cs 20.711520530044893 18.63875099609103 6.638410005088089
Cs 17.12307351028062 20.025064703675575 3.0503660778035266
Cs 20.702378381157605 0.29907086033716773 4.842161495008914
Cs 14.36549653624827 15.86714803545432 1.2402475590070698
Cs 15.880373958789717 1.7866052082655663 1.9541742087570715
Cs 12.161308625142677 20.84655668839946 0.6835030771630267
Cs 1.2176193618933004 15.48793285317876 4.860160465770595
Cs 19.50043137929998 14.645503121366357 2.235004153274853
Cs 2.214041460998701 20.850556873147493 4.557405926045617
Cs 11.746246148909279 2.881734070594705 21.83383902795782
Cs 20.164176496247034 4.943589025769198 1.9363043051931799
Cs 20.71388048030717 0.13951714715224112 22.55448334138899
Cs 22.66876925037916 18.636911990933964 0.696169389513107
Cs 16.33518959363385 13.522830297642404 19.719726182123757
Cs 17.997599208855938 18.226106406725627 21.544568910507405
Cs 11.294259523532268 22.091760644319347 18.65552589846278
Cs 17.102537112802256 4.666421484985666 20.716279979389856
Cs 13.119200479439153 17.55109875993226 19.461882211916247
Cs 1.790308578883771 2.2203916343356225 2.0602175979391335
Cs 1.3655053454218968 13.392786370964705 0.27938780209606123
Cs 16.06443147283523 22.561039517475134 20.358208486200127
Cs 4.777755332489244 4.149907856134775 21.420956610758207
Cs 22.7726253641967 4.551669574780177 20.56827091980439
Cs 7.3230484370732105 23.075887933292197 0.8026322133761701
Cs 4.970195031456165 17.576170937753616 1.5772628753377216
Cs 21.400452828474155 14.918108429762956 19.47045515240445
Cs 14.286542275672211 15.309534318982259 14.821709467709764
Cs 17.83269196372457 18.94245229711295 16.468261246729668
Cs 2.920618678395846 21.82231093979374 21.53228415503782
Cs 13.405002584394964 20.434477483871362 14.238570472117953
Cs 22.281919997706712 20.25071031509983 18.39978392273112
Cs 14.516665659182898 2.2416791183765947 16.297320345860552
Cs 19.05656919552644 13.40522505757717 14.92451420588296
Cs 6.787476371598636 0.6805064329596152 18.354107052415795
Cs 19.757519495622756 1.4923958567950437 16.983507255563623
Cs 1.890947494422 1.6629914258216727 16.85441845047498
Cs 18.509640604354214 17.788011101695286 11.479572973417605
Cs 7.739430968552686 18.94863947108315 20.566443459310914
Cs 23.07595952620486 16.587311024230992 14.517106010815898
Cs 3.026945901553132 16.582548605175763 19.738895972818515
Cs 17.494608116669234 23.02978491035129 12.272818849545986
Cs 22.277522370873495 21.540742935203323 12.847585617963786
Cs 3.866219136806331 20.03966225767419 16.009361377981584
