40
Energy = -28.63761376 eV
Cs 2.3376963272482003 18.75080101118905 4.644897147682439
Cs 19.861325232824417 15.735112890438604 5.602114087272107
Cs 15.616533136540234 20.25114766963411 4.379467287642005
Cs 2.58050661308947 13.145204229308876 4.375908056245523
Cs 0.16420226562890639 1.7554582090852715 3.2898067190292917
Cs 6.287459650671112 15.981638655106043 1.6154217102406092
Cs 19.841654092981475 19.185249420470164 1.2337041924629173
Cs 4.272738184933148 20.790991529891805 0.13410194658639288
Cs 11.217278470772168 17.401783309026182 2.208982359745869
Cs 11.207694231376943 0.41423436082270443 1.2154415450490998
Cs 15.8919619371606 15.18474671393024 2.3366024329175623
Cs 16.591963586186353 2.335708417769219 0.9432891718497374
Cs 19.978592897744363 11.636043071284709 1.785007134185926
Cs 3.857992053773922 4.11628162515088 21.357773680146778
Cs 1.2737753035300046 15.580506938254464 -0.162399841908012
Cs 20.852671082416958 6.392396088772769 0.6439477787790024
Cs 3.4195820262189316 10.667094903341916 21.217696029045573
Cs 15.203567085381591 19.54923493556542 20.2608219223667
Cs 12.7268896338859 14.391113241312793 20.01526810777425
Cs 21.223345476544324 1.5149759241449798 19.963063793787377
Cs 18.21735192239304 14.77680348008547 19.426767072236007
Cs 17.28742866266642 5.6030179767798325 18.551311282833062
Cs 0.9768254016616044 5.473187025739312 16.980828729645044
Cs 12.885952718763162 2.3220404237552974 18.600526492540915
Cs 4.100969949291419 0.5217018772535408 16.948442138443887
Cs -0.4167045979970094 18.689994516886156 17.56241320130107
Cs 20.634979025718515 9.98439061889606 18.469053516053073
Cs 5.446000730644576 17.100868892474065 18.200847392471633
Cs 17.523143467720725 0.8278351015699602 16.3040959883078
Cs 10.141208696154578 19.18863550616338 18.769826800101725
Cs 2.4649372474285616 13.281251875523159 16.47073910521923
Cs 14.671955604940997 16.31991161012711 15.615855769301586
Cs 19.71571177240225 14.002061799732248 14.252887852153275
Cs 19.032437948352307 5.626642306267196 13.301998893810422
Cs 0.12919086528727328 0.9716919075218112 13.292375876478728
Cs 2.3358313873547 17.961808113071907 13.398898350973893
Cs 13.832769066167895 4.398019330629947 13.849384635295447
Cs 18.347220859713087 18.878952803024106 12.855609451613104
Cs 12.882566247359565 21.08000943828336 14.102613930276233
Cs 16.993264970904782 1.5809016981537325 10.791782711204231
