45
Energy = -32.86471038 eV
Cs 7.228587038021079 18.671625083282397 19.34986032505821
Cs 6.012021330397254 21.752756104757594 15.093524438066467
Cs 2.7942486730840495 12.149887461460061 18.422566309755737
Cs 6.681300061438186 1.7516046691523237 19.890529701640805
Cs 2.823219056817927 17.07662573186368 16.281190683176003
Cs 1.051559526828723 9.71387360217921 0.5251624378869444
Cs 20.29430941476151 9.603001498369833 18.38509971753401
Cs 3.7160865986988387 15.644435199629072 0.015763618935938122
Cs 5.1841212503123435 20.95622408480116 1.623957090730815
Cs 20.82132811514459 13.883958727428785 15.366318472233985
Cs 2.53547278741853 3.7408260752313205 16.944096409657785
Cs 2.2745009546924133 21.209211496127462 19.45934501498948
Cs 0.7014170367529988 22.152842669612443 13.73858891653568
Cs 21.880480198921678 17.48808164682516 11.606347843432863
Cs 2.9352905277873558 17.94982862014672 5.439621765531694
Cs 20.412996837182387 18.95351620458369 17.21934226002403
Cs 18.133006906185297 11.060627629628529 0.8080517182370117
Cs 22.140231252390116 14.1307337227304 3.852219073862972
Cs 2.001537552031881 3.3524048367289017 0.12913718929048582
Cs 21.233627995590126 14.76296816744867 20.78909838898032
Cs 16.402011108289617 14.678381511887787 19.096948893398956
Cs 22.010051258980265 19.08876370999872 1.1990227593588363
Cs 18.15710462945352 21.1063913430503 11.336122459639023
Cs 19.779670261574 3.853052783961863 13.353909352060125
Cs 17.464533883892077 16.138559744811175 2.4041404770876103
Cs 16.801874877297088 19.767680090133723 20.94764124179715
Cs 16.551486921353604 16.961740063542898 14.166378288192323
Cs 19.741984923029516 1.0907534583908316 1.6047341243551079
Cs 19.32465273782523 5.991735406449385 21.753015397719413
Cs 20.002817374080333 19.090146871164652 6.400535493189333
Cs 1.3394186113672104 0.551468712670734 5.198723779096892
Cs 20.412932858658102 1.9840568601820776 18.548567436946488
Cs 15.078797569575356 2.5069493291413325 21.085982034745737
Cs 21.55805021288688 5.77584125340026 4.147245817323227
Cs 16.389806252604867 22.271055323492178 16.18548464315256
Cs 12.67368253890499 16.57216064135241 0.2493951522804737
Cs 15.346261714512808 21.215164989025215 3.4649044102280855
Cs 12.539529198126548 20.571295843472402 12.691672371680447
Cs 14.559311813840546 3.024299554580185 12.281394215447728
Cs 18.818650522207736 1.8804754440081233 7.217246474831623
Cs 16.02238175929464 4.523617759226735 3.5960486444233855
Cs 12.406382697773735 18.44182236686543 17.624622154809213
Cs 16.18521605790775 5.478951871859503 16.857079016567003
Cs 10.947766126233846 21.491717109661295 22.01748928524419
Cs 11.299433026481806 1.3309200612859893 16.97948146593482
