46
Energy = -32.8937867 eV
Cs 20.53978393711092 10.815159097605829 19.914653767028003
Cs 2.12523246392485 15.445895390781772 15.613062782119336
Cs 20.107917598400512 15.805475053188102 16.976580402362803
Cs 3.406134981473897 13.60837875173107 1.9321138048101245
Cs 16.997194689599006 14.724389594010285 21.04179587210937
Cs 22.53341940420177 18.263331887788304 12.123894081919588
Cs 22.392547184770528 15.935443580751096 22.675804825618
Cs 15.238190628244874 18.089753230528018 17.386214276936084
Cs 2.3895069905592035 12.587460032791283 20.113947509797914
Cs 3.7860717591055715 20.593422953017843 14.289707600676264
Cs 17.130691098480035 16.617833682731106 2.4625693384304492
Cs 7.088925754799744 21.740272612527363 1.1834873423437453
Cs 5.053352281945845 17.16793280457849 21.430202134867894
Cs 3.646147023144277 0.34968332834512184 4.6944707452133185
Cs 0.0281384660491386 19.73756387605068 17.833537387846377
Cs 18.306674618953608 20.869927911808812 14.293852569235865
Cs 18.981306599939693 19.75332439274938 20.9314222476087
Cs 13.767649159434304 19.45233790934915 22.450997888381487
Cs 22.012924743319548 15.4278686955585 4.976086325422005
Cs 18.38526535409615 18.924775822343523 7.521512782280902
Cs 2.295393777232426 18.74208484308992 3.029480896275748
Cs 6.210363995123617 21.88789894297765 19.078846675538674
Cs 22.615527231432548 0.3097906929966921 13.220762366688248
Cs 2.238370468721859 1.818178111682153 17.57548359167416
Cs 3.7269770784240035 3.0096682881423433 22.36513591327529
Cs 1.7498288055314022 21.430039966778676 22.07956732508118
Cs 14.409205285015297 21.242041500836887 3.8104053858225684
Cs -0.6292122463835997 1.5171590682254552 1.8345209162270653
Cs 20.645582000345176 0.786485740728248 18.834202167143864
Cs 7.582703523018378 3.4621557365480826 2.6389949112004714
Cs 23.06219826742034 21.169755976462575 7.631804432430863
Cs -0.555785565858133 2.8259178246587315 7.898887307935285
Cs 15.26798857931533 0.07154391419668092 18.369381098558872
Cs 17.766658467588062 2.7980649123596057 14.27268107833405
Cs 20.779088292684726 20.302026487672137 2.6775155838983538
Cs 1.8786808502681438 7.416146193394412 19.98745543193353
Cs 18.478014744833146 0.8010052897043964 5.448203752930029
Cs 2.3496592114584023 5.683310411532788 3.5481276865708704
Cs 20.973596251674497 5.269446712867776 22.086762921651598
Cs 5.25864282055033 8.732684905106192 0.6506229789783307
Cs 21.516136980904186 5.711065008056275 16.718955470339044
Cs 11.703417752836442 1.1240956815523926 22.584156612392857
Cs 20.44531736706682 5.827706034738673 4.0362853409325306
Cs 16.448365055653973 5.031647018507265 19.10213594750102
Cs 17.478078040961716 0.9019806288882375 0.16353252262936635
Cs -0.4071399102018965 10.081797929180167 1.0557132962692606
