48
Energy = -34.57405928 eV
Cs 19.84256189006154 10.199820355069292 21.056162920156158
Cs 2.215531121028405 13.95532214229232 18.677854010234817
Cs 21.650578648773884 12.035823326019921 16.35555923374133
Cs 1.9254543105126982 12.029825496528709 0.25399714412786506
Cs 0.6401681467286362 16.319063811869047 13.629860964680768
Cs 20.761189602721053 12.008070172888603 2.7381046136749174
Cs 15.93291473841968 13.096150377094315 23.407825201004336
Cs 17.034734259266003 14.379848359001118 18.28992691768196
Cs 21.314140392265454 15.141806692194455 21.981339427735787
Cs 2.5837137214437096 17.647975656492346 22.480365714396896
Cs 4.164495724212136 18.822374727660385 17.37325230317703
Cs 18.822084228730546 15.284406869794498 13.47262155194806
Cs 18.29959785903235 16.478778093984577 4.032682146185858
Cs 21.800482066350398 18.04618136201109 17.903280056285503
Cs 0.13408187703548824 16.3523664848685 3.7537900217925997
Cs 4.589626540365714 0.6259719871492178 16.86119619697277
Cs 0.7867624955319747 21.834095517811107 14.273811937849075
Cs 21.438612838338614 20.106524875887423 0.7684258392313732
Cs 21.30985521111987 20.791841840494552 6.259084586661374
Cs 14.382484304436744 18.185994440636605 13.849833379486515
Cs 13.094586389584865 17.110296005009975 2.223960318116421
Cs 12.67457761880502 16.750074722451043 20.26155503184062
Cs 17.139169739017973 18.068591882319538 22.615660906689765
Cs 19.58299815902484 20.35688208383476 12.812100167023182
Cs 0.793002937127583 22.09918894060573 20.102960755732006
Cs 2.2254449615168896 21.82294657266933 2.7216797492712486
Cs 18.1815082841866 23.031869847158788 21.955213794484564
Cs 20.112456609379844 0.10641062278599789 17.380775027770614
Cs 16.344087130156094 21.32967739167357 3.5125846695129637
Cs 16.84224224734934 19.754040748022295 17.895611777897926
Cs 20.63899093731588 2.0718414348027228 12.413450806224164
Cs 12.685507874421848 21.71009220279487 22.843830745487526
Cs 6.038797136180769 22.202425134909078 21.689853614107356
Cs 11.777116058378208 21.576346595089348 17.63161927284409
Cs 5.652548462090062 2.2019963473223934 2.0989690761023825
Cs 15.673896315487749 0.2816517812628998 14.359366474706313
Cs 0.48402296963599906 2.606609142735936 23.004695007755302
Cs 20.14786369927893 1.5733042480482413 2.996809831632866
Cs 0.15828207905768782 3.643610739097722 17.141656841487197
Cs 19.373460137488763 4.689698171618565 21.157062639568693
Cs 4.820138001184331 4.16391853243151 20.763801308879145
Cs 15.301138766016072 2.875124437097864 1.0153158059713923
Cs 18.441262660565616 5.117164015840354 16.075540028327346
Cs 1.3020093844599923 3.128221911032148 4.845539390364765
Cs 14.651072570849905 2.3379798573836257 19.187967497900665
Cs 3.2607093686281243 7.06227789691073 1.6970071097525148
Cs 21.57137889362955 6.9118397559601785 1.8261980700694396
Cs 0.6683456185815129 7.850496177067463 20.49751597366293
