46
Energy = -33.18691922 eV
Cs 15.459558902302721 5.309755740694551 21.942831145209365
Cs 11.49751686739342 1.4837071505129678 21.393818777646317
Cs 19.513607803295216 0.675522075566361 15.227947440390048
Cs 20.456550932904015 2.8440264883043382 22.222248117764888
Cs 18.350587294889472 21.207659980111643 1.2125996483651345
Cs 5.863355166482481 15.064232281856142 18.385220886175343
Cs 18.29413910354878 5.434466890826292 16.956114456831585
Cs 19.90427225652497 17.990208301128852 15.309798615233458
Cs 0.8335480201751958 21.114383042510497 3.128297701786359
Cs 19.240309938295518 20.75097882738175 10.436949021908006
Cs 17.05610561763457 18.29661767548459 19.67293512618138
Cs 4.053900414626117 18.424951591386936 22.348789893646295
Cs 22.213021375782212 21.276707694458114 19.3917354215651
Cs 1.7508283640578275 7.058515186220361 -0.14074878894752485
Cs 15.448942196434444 14.762806437804315 16.227377425091007
Cs 19.373987454112886 13.403617152721816 20.047627358600177
Cs 0.013959244174350089 16.538843544707145 10.988128703388268
Cs 15.042051392934082 2.0268203970655136 3.100477756353436
Cs 10.704930052032255 0.1414901956350465 16.111648819759925
Cs 15.04858696877162 19.9212870280571 14.623289145251777
Cs 0.777412735387519 10.13907688954945 18.1443080900299
Cs 2.630873389854232 12.922253774156369 14.121021230552074
Cs 19.954926001467314 17.60862561057646 5.698124924053454
Cs 1.2176142768659712 3.6506370997744364 3.7809533439187795
Cs 17.487050397885803 15.735069961043536 10.972952453717175
Cs 14.924206128301796 2.15012805159394 13.146123523792964
Cs 0.6767760707921044 3.800127231981792 18.013188294429906
Cs 20.05182538749063 12.48019699453679 14.623965881774874
Cs 5.029090898367998 20.861045547653458 17.64979715091585
Cs 19.35547969810719 6.261214716311519 3.2527001420026425
Cs 2.1720631206748573 12.88058613375091 22.345988535675488
Cs 19.754132713514597 8.28666449780103 21.13482706299431
Cs 4.887535957570187 17.490020342549172 13.553867909743321
Cs 1.2320889150322802 21.134284188341166 13.835350733321906
Cs 15.58798586539522 20.060434775352658 6.065049084794516
Cs 16.089057723679066 0.5890443132468974 19.204638575382184
Cs 13.039108270980904 4.758901856769043 17.277829195578672
Cs 19.660157387657446 1.0681925516521724 5.695699522384257
Cs 21.579666961207007 17.112121381661613 0.07869251102040967
Cs 20.58870048568571 12.184564870316215 2.7002327862857802
Cs 16.539526323707438 15.83028695415744 1.7664876311212796
Cs 3.377077722888457 1.3761461622175108 22.082619747681072
Cs 1.0132623976676318 16.327070406883387 17.857634198255433
Cs 1.8962586740386371 15.841032859056401 4.188724545583229
Cs 13.165998496101471 19.9198729193951 1.2086437869615174
Cs 11.471162461069193 18.76572321655439 19.113881252964642
