46
Energy = -33.51453984 eV
Cs 3.8441783441608326 1.7445138862418659 13.313290938567963
Cs 21.07963113879606 22.298046619273055 12.660199250034117
Cs 3.190911323674673 19.088301332839542 12.523836433755486
Cs 20.008466867668343 17.346597682484905 9.697559175700102
Cs 15.88013768576815 20.67627252546065 12.120486880349484
Cs 22.02035739339661 3.716486029017882 16.65629550248778
Cs 2.3820546644278604 14.021391421509156 12.788933510479746
Cs 4.922140174128322 4.01162519236745 17.856658674414636
Cs 17.0942366192309 2.2593296937759653 15.629829656187109
Cs 7.180884668826716 21.496643712057477 16.928902733568822
Cs 15.71217129531342 15.490316343856703 12.925844084841358
Cs 12.003342301927235 0.7954266980024497 15.222263754242341
Cs 1.922350886955704 21.432131891794807 17.889269708680242
Cs 19.88689936839251 12.293175526434748 13.206838628339918
Cs 10.938157957069777 18.26934711852394 14.013226485369294
Cs 20.944869985257487 17.36760720545614 15.052609880491433
Cs 18.389310443866204 4.801385188178858 20.94384633903966
Cs 4.424703805366076 16.45369784873704 17.089862568633688
Cs 16.139301914746483 19.203346909175114 17.347973999917997
Cs 1.0829111558050524 3.7306499654225966 21.746809420325256
Cs 5.718573582662676 1.3488570173024896 -0.2701473052050339
Cs 0.6526144963709578 12.468385834460271 17.715430979608833
Cs 13.997753286259922 2.1087934568864783 19.910207207969126
Cs 20.55058607260132 13.22962804462041 0.6677237260351208
Cs 21.616243643689295 17.238786050883927 20.249508724570564
Cs 2.9487768736455333 2.3929522983037796 4.372949288057115
Cs 17.864846587085424 13.75129760069917 17.899309731077317
Cs 1.5389127858047782 20.93227517439117 1.0139375820757695
Cs 19.9768169410179 1.6990317962402601 2.768611105181824
Cs 14.82387302584757 3.0604871942053116 2.944766414537349
Cs 19.362110438151202 22.153074542386793 20.14960518992563
Cs 6.256898420543524 18.661078785069723 21.712628167671465
Cs 15.346353102193584 20.789065335234962 1.083840179725746
Cs 11.349720591828039 19.666048351707506 19.57871742235219
Cs 12.681948608581175 14.941324178797908 17.62673023411507
Cs 6.41503122859772 20.43261727445354 4.4020953700283005
Cs 3.4635786998825027 14.157783414890881 21.876660023494647
Cs 10.295803784351174 0.5277905202595565 1.1983849850686765
Cs 15.748772009875221 15.880665943934982 22.161055979875147
Cs 0.5468384025434462 20.94411824586598 6.943891687920129
Cs 19.73744288268555 18.409968096005542 2.9151789745526755
Cs 17.48946929829503 21.764324010318973 6.816723382320286
Cs 2.401452975704982 16.668658929238983 3.8765454803098534
Cs 12.050351748637352 21.227169822871755 5.8702414259162685
Cs 10.82087885256739 17.481071626182775 2.024200723341623
Cs 15.267561707807793 16.92041133777845 5.545438455735357
