46
Energy = -33.46685488 eV
Cs 22.06017499333505 20.442637731412002 12.45987453132664
Cs 17.04883989387355 20.666403440622126 14.19674622136621
Cs 1.38650263990603 14.719541324029432 14.20623828367472
Cs 19.699314302609686 2.3457186190711816 13.234026758848714
Cs 20.229235489121283 10.745583525562163 15.839304391601686
Cs 2.6206784017317024 10.4727051318362 17.635402189317976
Cs 19.59024443951628 16.021714221121822 14.197377195170052
Cs 4.14367663849826 19.404143007485814 14.326475582087463
Cs 4.263983272802939 15.834119332094208 18.452047943061658
Cs 1.5364507209278073 1.094405640256505 15.279449411041776
Cs 19.712302232820246 0.8231565278445232 18.038949558153725
Cs 14.620684072526323 1.9299163112963484 15.99121038070516
Cs 15.707577460488503 14.898032228411237 17.501896216070094
Cs 21.770144284928058 9.581877512916217 21.09545347322445
Cs 21.797276735704724 14.328868640855655 19.001632725919006
Cs 0.21253248258188123 19.52197920939431 17.5390400552971
Cs 12.948172740443928 20.353687345338543 17.77042163361657
Cs 23.003030506727 5.769294556924482 17.343926925631386
Cs 16.791593911994 10.122871806845495 20.07577775229613
Cs 3.152994121107521 12.690296123303247 22.733291541578897
Cs 18.4488454025273 18.994614963522654 19.04723459994495
Cs 5.106073255478609 3.9985724824396613 18.187799632427705
Cs 5.495791815266904 21.608620833431324 19.2414804186631
Cs 17.750362330666412 5.987176376766603 16.925480161008476
Cs 1.2561286646943035 1.2794675204082646 20.794409367676984
Cs 17.849240781591664 14.596396344253616 22.389177070716404
Cs 5.233077834141144 17.89261641700268 0.10778696218820358
Cs 14.582676970025576 18.56586319754799 22.709469395454356
Cs 10.198216644832463 2.2015406939534024 19.54354970965549
Cs 15.23239022247632 0.5208722053703473 21.316247588270596
Cs 21.75170403070358 12.936530224377355 2.0692081717606245
Cs 6.304027313981861 2.078413355082966 0.27682076744017725
Cs 1.3876136674509711 16.812839867157027 3.998182275069697
Cs 2.7671362404660047 6.615650582827395 22.288135094404335
Cs 14.586666939514087 5.611232959248266 21.698601868033204
Cs 19.853845199698565 22.325239257663295 0.1140968148181409
Cs 23.03915775779524 17.826931585349993 22.311566573436515
Cs 19.95288964125186 4.68498015508817 21.72649021998401
Cs 2.206842627490104 21.7650198317109 2.0611630622521884
Cs 9.8029824559673 21.06712611317899 22.47576460892666
Cs 19.16583915656661 17.891106026235157 3.019485957198433
Cs 0.0037242931598727015 3.456420524880288 2.6025525722186225
Cs 11.817208243596367 2.3407876540042505 1.9369532810974468
Cs 15.412174204238642 21.781458327332512 3.5728045557268806
Cs 17.341567904303687 3.4267376697293823 3.0053721754583984
Cs 20.885939452702825 22.51139000457511 5.21524614350194
