46
Energy = -33.17763416 eV
Cs 2.749010342358017 5.100405512580657 21.431176739810457
Cs 21.176475260156153 3.446863100766299 1.4982000531211952
Cs 17.451739018927015 7.557333046505995 22.489133411548757
Cs 2.5813169010323267 0.539292316152043 1.0969860505560987
Cs 15.85879598501292 3.8466673937826314 3.0440134976288657
Cs 21.13916873848037 6.399001425581528 19.14028975523102
Cs 5.084986225761809 0.5531880759006064 18.96447654769696
Cs 1.9378394403028967 4.003946004358614 15.675969118069311
Cs 12.757015673045238 5.056485732375192 21.824442136433973
Cs 22.655537646007424 1.5065951676938183 19.370944545412154
Cs 17.443548888480166 21.834953466288155 3.0211534649089815
Cs 21.019194655321925 20.752506324280926 22.37447274346791
Cs 22.7328797367502 20.066043747109358 4.055137353085357
Cs 17.42907436375768 2.0473445011845297 21.406796874250595
Cs 15.795325257409564 5.484553827392844 17.452619481801424
Cs 12.62870753323271 -0.001970915939496551 1.0811311689086034
Cs 3.5360278410259283 19.271965602634378 21.61508289041885
Cs 4.050012943675986 22.451810153660727 13.921446370164164
Cs 19.685680953035806 4.475251209756082 14.386529275788764
Cs 5.941986756410428 18.39896743812549 17.035143481639032
Cs 4.12839659943121 17.242878396402837 3.2597102593815923
Cs 0.539664952987805 20.054138721457893 17.462700517079593
Cs 21.971849895823325 23.05242597027598 13.187698549345948
Cs 6.003937180495715 14.60002362494899 21.60579232985873
Cs 22.799468211271815 14.807917181657494 5.190097515637761
Cs 19.509327094241204 16.908831458027578 18.95607093036328
Cs 18.539167141547505 22.374582065022437 17.363430196894992
Cs 9.326720112104136 20.04571252939109 21.01792451051694
Cs 0.025619276978377088 15.519533321614425 22.78197445967488
Cs 1.3589191924532815 17.854386325185327 13.05097834547071
Cs 15.803315484233302 0.8263960654042335 13.617667362005946
Cs 1.784952277802698 14.953212140969516 17.851903566669527
Cs 13.032935210954399 0.6905696264607393 18.6719324010001
Cs 15.661949080916827 19.595604675784966 21.1444154889731
Cs 3.158234445255482 11.820755116377727 2.4573794159842866
Cs 18.652747798815493 16.7444341066926 2.3091818339533314
Cs 13.919440019042412 19.130425416741545 16.283399813874063
Cs 13.04067682792522 17.446522187345565 1.6376782089640451
Cs 18.810904915010344 18.683431349681623 13.73591641777584
Cs 1.8053090516444597 10.305613792306819 20.71838110477386
Cs 20.017589981005543 11.533923485152375 19.110572005203615
Cs 15.796062388852334 14.129507664767354 16.634309806254358
Cs 20.887311802103547 11.106884331950969 1.4801574990571267
Cs 20.860519172478682 13.997255116294458 14.446663368644929
Cs 11.421621183569428 15.501452382082215 19.518791978018587
Cs 16.051303523712225 13.581792527061268 22.099030502925483
