40
Energy = -28.55240514 eV
Cs 18.033248638024617 7.53099114200874 3.3685767046892305
Cs 15.907879193390489 6.191396155975882 21.126950324089307
Cs 21.086857311885108 7.481724166980928 21.4197035367723
Cs 14.945137897209941 2.812505730979147 3.227658841941473
Cs 0.6652533580247768 5.5038640514995825 3.096467426740475
Cs 19.643497534068167 2.687471583006417 6.062109735225958
Cs 19.405182324940185 2.7039186005668427 0.5493492470423932
Cs 19.5117735353306 2.4209358205395928 18.167299246831558
Cs 15.21416333145466 0.413026377902645 15.74546210613662
Cs 13.729579536568815 1.7344125867732032 20.85585342354358
Cs 2.0067970850996124 2.82523259450482 21.026738882162665
Cs 19.9384279674134 1.4783093579649949 12.926802452088292
Cs 18.184362381057202 20.83592140376891 2.959885984376875
Cs 0.993897332174937 0.01207292118605603 3.3596830232893273
Cs 12.9424264374376 19.796409876601658 1.2061442792027317
Cs 11.049263956926865 20.32072095836592 18.562503972541116
Cs 1.2331484087228717 22.47439181848926 16.1801758469535
Cs 16.69041606859009 20.72889690943235 10.896977536004451
Cs 22.099733996688755 20.881131084234006 21.27362382130794
Cs 19.460301398849865 19.138614146135165 15.939098702476839
Cs 16.810598082829213 20.205696643957783 20.201322411425647
Cs 16.44981875129556 15.493286154428406 2.5405728968284156
Cs 22.14717894032628 17.164041650373683 2.8823528417770707
Cs 13.742115482451064 15.641433857963122 20.19017575207384
Cs 4.29494890886285 18.99480724245973 0.9275481672170921
Cs 14.132478418673882 17.77310436683865 14.966403458978697
Cs 5.525178199820634 21.41114489366035 19.10591722808633
Cs 22.49050048444938 19.409754371637334 11.711357070528821
Cs 18.063724569643284 15.885608444986493 11.713837707640401
Cs 1.4799872063745032 17.12833924804205 18.723031901578015
Cs 19.53688489109949 15.867974565092894 21.00850758943578
Cs 20.87534803769411 11.860949260298487 2.2951097733965726
Cs 16.715740141852727 11.195379285635974 21.674561043490638
Cs 17.432329282818095 13.790244926524363 16.60504352082663
Cs 4.464474873950775 17.93901733856246 14.807258428949307
Cs 7.099288532469833 16.460883016176492 19.812096251106208
Cs 22.375975045710575 14.430314554795753 14.280611844373421
Cs 2.570472055862406 13.740469022334649 22.47638845090072
Cs 3.9671625068561527 12.851256319588124 17.087094677777415
Cs 21.683911838518995 11.713860673334393 18.84544334095682
