46
Energy = -32.95131055 eV
Cs 0.9659707436714543 14.03681967077514 12.560791662596118
Cs 0.530239458023642 8.517314228150584 12.015294243968578
Cs 15.808106236353757 4.3143270256941895 18.36059914124112
Cs 14.189975169457867 9.441631935098483 17.956526143361042
Cs 13.787504404075781 19.02292926383415 15.521160651993066
Cs 9.328144722552526 15.521203703685874 14.835495295340749
Cs 9.993554335606516 5.933736184641164 18.103425404932146
Cs 0.9606230130370199 5.53670567503211 7.0039067348495365
Cs 20.642584402749932 14.445588054988393 3.777295767326636
Cs 13.091047552132682 14.582756567941916 18.49667631905386
Cs 9.049838277207288 11.204845042649161 18.222611449277156
Cs 20.374560285069506 5.532898323954272 15.784926422390438
Cs 0.3514349298028106 11.020877643653803 7.299977691846662
Cs 18.474050602185102 16.313776119837875 16.442348978499872
Cs 9.573482701606933 20.49982403135667 12.553993379901843
Cs 13.901083818587233 17.821809089424235 10.271876724320844
Cs 12.28995560662699 2.9785176172398025 14.428969874530848
Cs 17.681535078676387 1.0881733674334235 14.556244013918366
Cs 13.91498230454211 1.626898215188801 9.317680949129034
Cs 9.844736861906442 13.675462348978655 1.5121538117940714
Cs 8.908632686380795 8.37895695889929 1.3705215401512025
Cs -1.090336280818119 0.5279228638253964 7.558954211739341
Cs 18.56049315089158 15.007615579744067 9.25546221881654
Cs 6.211443784510732 16.60400634910643 4.580796519105394
Cs -1.0995567319868487 19.052953863318592 12.170910307944554
Cs 1.8788826611083291 2.5765255601945496 12.017480483430653
Cs 13.092241730959946 5.123898371852754 1.2257864769012818
Cs 15.937498236641392 15.392568674936303 1.222910960004646
Cs 1.781838127209604 17.130409890377553 7.696217892198406
Cs 18.56007902357799 4.575009257802774 10.423103927073573
Cs 9.106368322718392 3.9702357960521106 4.742403576081271
Cs 14.040092043616344 10.276941968600866 1.4804026927498015
Cs 7.83345554435233 16.44718270496661 9.587935961454436
Cs 12.27994560042698 16.580350145108465 5.239651939626422
Cs 7.827767000908405 3.1149093358269835 10.112144037413264
Cs 9.474528286101226 20.661914012292073 7.111616649424689
Cs 4.314533926435054 0.40777047957546864 7.025901006451238
Cs 13.644441550793848 0.5439812982178014 4.042214579778183
Cs 6.347221180215361 2.9752838778349036 15.124003965523816
Cs 4.323792525812343 19.323550753875935 12.429382332429988
Cs 17.55574751935567 18.57429806908411 5.215305757154432
Cs 18.399884387167283 3.1850969298039775 3.3365615214462734
Cs 15.364174110135467 6.480992318378688 6.200278802401601
Cs 15.236574280296374 13.103102114236007 13.50497035965302
Cs 15.67681773630495 12.29034403427189 6.069361392409065
Cs 15.397474345378587 7.298621938729504 13.357395488942215
