40
Energy = -28.58562191 eV
Cs 6.461120150296517 20.705300523270026 17.85969680730881
Cs 7.351368365979849 2.4386640548877847 0.545141563481007
Cs 4.600079442979035 18.05333058930765 13.565192649042851
Cs 4.18821364580629 15.609703165431652 18.32235313824229
Cs 4.605968439924474 3.920117889723351 18.059292420386523
Cs 5.021363441040256 18.581787168089495 0.9409462409405225
Cs 3.3975412071738287 1.4885108024832594 13.144682764315125
Cs 3.967944620770825 1.3524882383595325 4.41759328129951
Cs 1.4911674526672118 13.854062249963663 1.35607411092757
Cs 1.892302992448918 5.439257398313192 0.8235951337338678
Cs 0.29131404401405014 20.639974193643262 16.416571639350902
Cs 21.46026448586957 15.456712214194694 14.783463301501516
Cs 0.9555430141168348 10.970144806143223 18.330645718847624
Cs 0.9409948996468155 0.3976432095509719 21.566503364590087
Cs -0.0045505867521702294 19.002395541293833 10.334172820217104
Cs 20.493403487143304 16.837269283342337 20.10818095081895
Cs 21.28694319849328 5.024680177992439 17.510001818498456
Cs 0.6777404124231143 18.65604990887881 4.330640166766589
Cs 20.91092294982033 3.1291192963080072 5.155783176450236
Cs 19.96814640841249 2.3163683219249203 12.4622941287215
Cs 18.205564715753066 11.669696426839506 21.168684252551905
Cs 18.12698978936163 10.821836677736119 15.696686856103206
Cs 17.94554520977871 15.64047350243895 3.381099154776884
Cs 17.75766528838313 20.908641921325767 5.044453186842757
Cs 17.375257375668706 14.672544633120722 11.396151725973208
Cs 16.007510099916814 15.733318811643365 17.09135326033609
Cs 17.248787709299783 19.54353554655531 13.4390496580919
Cs 13.446532963144968 10.742452300547995 18.859414555375906
Cs 16.978075917585855 1.7733122005974664 17.094632236643434
Cs 18.05573051475729 3.6448265743531176 0.44859104969715774
Cs 16.017478849162398 19.960696042429706 21.21843587699432
Cs 13.719809148843785 15.073402783901798 0.2379279296676909
Cs 13.20165670037248 12.429294350854233 13.866841831256636
Cs 13.301480294727105 18.189189226725265 4.635093905564073
Cs 12.355199041499949 17.261743274101953 12.359000589589282
Cs 13.195916836224344 1.5085947217845423 3.0689597151355263
Cs 12.377337591922325 20.19700366936282 16.696854033304145
Cs 10.179705503505929 15.336269196473966 17.645191848668613
Cs 12.36487618964878 2.8352704535611344 19.827539465769036
Cs 10.435957113749119 19.402204680397524 0.007921459154678767
