44
Energy = -31.92679083 eV
Cs 5.96976944714438 15.530190294381631 18.561308885002518
Cs 2.90404101667918 14.589297230973816 13.811108353907747
Cs 2.5041599221354223 2.361546065948289 15.636307268146442
Cs 2.6383884676725664 19.31593850744954 16.29804180642089
Cs 5.970992000804027 21.598278809356877 19.732980946273102
Cs 3.576070722039202 10.45334146590007 17.103651588962087
Cs 4.6361008798827985 5.291722481914649 19.881544460369014
Cs 4.355619801209789 17.621896244054728 0.7965178508039966
Cs -0.02068393964668701 20.786313443598832 11.150102367515487
Cs 3.3264728549100298 11.801061452621807 22.137553968016377
Cs 22.1589473145623 6.785858067853125 17.363483623058354
Cs 0.5253322824658864 14.876892079885302 18.681127978856775
Cs 20.282975894130203 16.678710341663464 14.215850305055163
Cs 21.706994633350206 2.63844767131622 19.868026108977997
Cs 19.750674779436334 3.419716581689821 13.288567752294405
Cs 3.3118647822712 1.4697278800441609 1.4451418309125506
Cs 0.12606954164198889 20.011033135353895 21.209273443701036
Cs 0.7994206446230931 6.86572953171742 0.9125327283240553
Cs 20.414734000660527 10.590216091461077 20.288633644455064
Cs 20.937261296856693 11.147661937194584 14.592456549664202
Cs 19.80818625866005 21.407433089822856 16.156561986166444
Cs 21.486277558561174 15.121855870638946 1.618875544199385
Cs 20.438064301620244 1.8511827040334297 2.5066371413814004
Cs 16.84389688910045 20.275636734077423 11.376031637699143
Cs 16.82166481411234 14.43478697181516 11.296499330852521
Cs 0.6253054316033756 19.36180884718768 4.6291655326432295
Cs 17.752929701224264 5.9595263804864675 -0.005098371106760449
Cs 18.01653077816704 17.367920680245952 19.49867894737537
Cs 16.68787912526255 12.981674242924443 16.981736896097495
Cs 17.50507655565222 19.2155337349795 2.1339776941209445
Cs 16.96659608074476 5.978685296276037 17.226692270235326
Cs 16.70507315877666 13.363069148398022 0.6607506026074434
Cs 18.83485897280325 21.752234340340486 6.900262367776916
Cs 16.832452031045694 0.38201848856599124 20.40376602583202
Cs 18.053178625514633 16.236831491337984 6.342093596166903
Cs 14.720599117291183 17.882726237445876 15.27405308026508
Cs 14.969890699871629 1.4681156490899805 15.25605662669282
Cs 15.238544902724296 1.9903070288010631 3.060583417025282
Cs 13.08711523112979 15.927694481467912 3.258162425337336
Cs 12.736234571400672 16.03521455762457 20.049485047596306
Cs 13.938215089290665 19.909021106021232 6.482133214927341
Cs 12.866254518898321 3.57988284771708 20.399999512005888
Cs 11.392437089616624 20.955705663001368 18.035430581763475
Cs 12.061343294398648 20.663650745651267 0.9349120258501529
