49
Energy = -35.71228416 eV
Cs 2.4433859101739976 12.487212602534138 16.339673975714685
Cs 20.386728331137988 13.93301312898246 16.807659621809268
Cs 22.932004092261227 12.469929866569846 21.124945246130515
Cs 5.500843379038813 13.76053805072073 20.39398898715287
Cs 17.332640570160912 13.504818658347943 22.003376259385853
Cs 15.82201848717568 16.464393164016215 17.969010147878578
Cs 0.5322441776992995 16.38415705594845 13.13359917617956
Cs 6.402149072090872 16.912683599356875 16.106247880425453
Cs 11.668059969736928 14.93147177219938 21.497910106669305
Cs 18.163866686416842 16.82032454178408 12.405113806099216
Cs 2.191021958983763 16.52719868971152 0.5460103975779743
Cs 14.185800938548809 15.026360383938625 3.159239063028299
Cs 1.7691776224556517 17.62297470953926 18.29368831598331
Cs 19.551408653772683 16.12338810842094 3.0065201709679115
Cs 20.118756583966455 19.529850854237832 16.262342554625302
Cs 6.610312026936764 18.87208202750119 21.461273456518413
Cs 20.491981824833363 18.037817834003086 21.338396941275025
Cs 13.63715134028898 19.286371341493226 14.046568629282913
Cs 15.440118364026839 19.012416332656695 -0.03887382367251307
Cs 22.03593754150914 21.1953739704372 11.297671407695232
Cs 5.219222796800123 20.837210150021544 3.1790093854728996
Cs 3.465971910753831 20.767977853358655 13.623562768361857
Cs 10.57090660691597 19.410450697788832 1.7930737400343009
Cs 14.481438484233442 19.663453300971906 5.6517098283488725
Cs 11.01190870358861 19.28422330117077 18.70628885314742
Cs 17.33810749249633 22.71715269475997 12.82451659172508
Cs 16.250646441764573 21.64694516049862 18.858559261584524
Cs 1.792281227879265 21.46196030483008 21.776990444604397
Cs 19.295248934257284 18.99719737463564 7.591469237482916
Cs 21.608035611053115 3.17297721919798 11.967726755878765
Cs 19.249529082426903 21.61022757112658 2.748670522082819
Cs 6.068488586064975 22.5787123582523 17.756708289330707
Cs 0.4197505165967591 19.68603536950755 4.285444576246459
Cs 20.294229297481493 0.6166205314436994 21.412910652471243
Cs 23.118340471283528 0.26938346964539733 16.773551920915658
Cs 17.474482495306216 0.8237934143200418 7.4454670633432976
Cs 14.464319402905483 0.9616454440867778 2.621054028423253
Cs 12.682315913744699 0.9839664717884122 16.25590140369528
Cs 11.402119640639066 0.3974214856583274 21.472473482671766
Cs 3.541330748985904 2.9245396780521293 14.16331219257104
Cs 18.542728413172657 2.957508192157198 16.760515732719476
Cs 6.33618275476727 1.2381228618205333 22.748888733374617
Cs 22.600686048355296 1.1236076944940194 6.881082527721676
Cs 15.739655572973813 3.4311851862323723 21.232548497601545
Cs 1.0944427987861 2.1854996494026864 1.934270617638578
Cs 19.153012671433803 3.7143103351388733 2.8758193091609496
Cs 22.746158167166442 6.316250457317964 16.129211832248043
Cs 20.928321162134612 5.931644116806541 21.192057096713032
Cs 2.4638820814497064 3.5932077027251723 19.863347789388847
