40
Energy = -28.80671191 eV
Cs 0.9305468555576676 15.979892204953007 10.41150878162669
Cs 0.9172745445941651 21.263479193106445 12.265444630728357
Cs 18.879411892272266 19.13919836324677 9.333360133221403
Cs 4.481719392784993 17.558663604543334 14.012154036984832
Cs 18.47468794061348 1.688641352802162 12.39013606021076
Cs 0.9151168662855376 4.725688597400988 15.584893104176937
Cs 3.5412270323341755 21.68404287481713 17.19208150632909
Cs 1.8380516366400121 12.909780893193997 14.502848933009101
Cs 18.74324635401303 14.371325948711306 12.696484426927753
Cs 21.0168766956154 17.83060305314653 15.738642076951853
Cs 15.868036240055943 19.159700854561848 13.640477355507697
Cs 17.410657443815136 5.302658063204428 17.685563955061877
Cs 3.0436014553250437 16.490324520911614 18.893764232177386
Cs 14.294478557468807 1.5697330174464486 15.848585317431457
Cs 20.576795079344162 0.7937018779299041 17.013301131328753
Cs 2.22098958126859 2.6391757674659764 21.24883190343576
Cs 21.394829741980015 7.399485492372204 20.053595955686493
Cs 17.009562355268585 20.067511296909544 18.95508929111839
Cs 20.718515009856898 12.95495682874277 18.488343151767697
Cs 15.719630156596764 15.168667323072206 17.278157138147467
Cs 20.210414199494586 10.824503449088292 1.5991259288571291
Cs 4.081291877644324 19.953146706371008 1.0550241142472718
Cs 1.0634180700686622 15.205244494685079 1.4754433579019466
Cs 19.167697586789576 2.3414292031483614 -0.3971834071180865
Cs 16.25606349542969 10.553033897002729 20.066455184390428
Cs 17.969063042951948 15.462176098039732 0.1440731244405572
Cs 12.057129657093913 19.2734727934259 18.102227373960726
Cs 13.865036554369594 2.395902073877461 20.981412793175668
Cs 16.519526505134596 6.611619404170861 1.167415736289746
Cs 1.4786123878935273 18.48359846658892 5.802141515708228
Cs 21.528519987327847 5.767283627640166 2.9271086830727917
Cs 0.4077160579817192 0.944104761383613 4.064468824711576
Cs 21.639965196847896 19.83195054849676 21.324852272525717
Cs 19.687198980788793 14.521599506393459 5.7930201708328894
Cs 15.21854269915473 11.37414296520015 3.1608000878707707
Cs 16.792790754814042 2.110701268386648 4.106826113168753
Cs 14.24811644748289 20.05660200734102 1.0796913169265692
Cs 12.822006340418257 15.059311647789022 -0.28213891696727555
Cs 18.889279025421647 19.42314398452287 3.6998336235981135
Cs 14.681226596391769 16.273654966109902 4.766190421669725
