48
Energy = -34.58727771 eV
Cs 1.4359395292035997 19.407985353768225 10.58665225411716
Cs 21.21804935070514 23.393160676125984 10.919585479521158
Cs 19.937174718086933 17.586672623374763 12.695605937995186
Cs 2.5391651146640575 0.9273598766656188 11.352769966538117
Cs 0.9292427860444995 16.62314118530844 15.330226785817318
Cs 20.063751465333297 14.006626336873529 17.694548394848916
Cs 17.05994072870584 21.786519048875466 13.59386023731487
Cs 4.993261994410202 20.58802923149299 14.266729992217263
Cs 23.518845611484046 21.91451027418348 15.181849062494907
Cs 22.763611310135175 3.7136780947949872 14.650307880257229
Cs 17.555671134195514 3.575693662948673 13.99778268949477
Cs 17.684966523683023 16.50353087740051 22.04875866543443
Cs 1.048368529508167 13.217744240718876 19.83227408338762
Cs 4.2451618726707245 16.24485327524298 23.344015995985792
Cs 15.84194595123319 17.938827835033948 17.143481666036497
Cs 16.229396792374814 14.123350015111248 2.763904253790175
Cs 3.6828979357446974 1.3272063085002992 16.497521843069812
Cs 22.956857429370576 17.442425407838535 22.32339378846725
Cs 20.711655718013095 19.13727481183047 17.97683311608383
Cs 19.54453191899093 0.8015741433407212 17.7170705454656
Cs 18.09513123339157 21.648548394284997 21.792572485169675
Cs 3.1685290915915587 19.513905897810755 19.247393656172022
Cs 14.145405700866554 23.020543156033686 17.7166438629088
Cs 20.196104479576366 12.003227175889128 23.077386081603677
Cs 15.98015501767839 19.792563075486914 2.639451766736388
Cs 20.94016917726077 12.26609865720376 4.752690415636316
Cs 23.504103311803693 22.960890853476 20.724612740066316
Cs 20.618467592423336 17.27484551339304 2.899579140831975
Cs 4.875023880071718 0.6532859241794605 21.401537836426947
Cs 1.3047695931735626 12.430065548033136 1.465806250507269
Cs 15.743573349999162 4.355871751000367 19.151503659439506
Cs 2.6526173266446422 21.110260429068518 1.176745797778286
Cs 13.994866803636098 1.064697257083627 22.717517366712116
Cs 13.215954081318868 19.546534942636264 21.762200356419108
Cs 20.199286799553846 2.883002377330484 22.595608565140548
Cs 16.89009748159641 16.604439934030427 7.359644899583306
Cs 0.8120901762305782 4.33476463767595 19.802286272007862
Cs 20.20984626394211 7.286591182372921 19.028867823955792
Cs 21.392267533773207 22.302825992672027 1.8445718386847663
Cs 1.9654581459954719 17.037085404812178 4.374052493443637
Cs 1.5878919702817111 2.7348975435710625 1.3127273899634941
Cs 21.932656479853758 16.726974268106023 7.927647994457602
Cs 17.05005807746981 1.5547983919390742 3.02595764446943
Cs 22.98449725544676 7.540997130116993 0.28951734782581195
Cs 17.558551436889964 6.874427976134301 0.29075621537659324
Cs 0.52826775928874 22.31702398173331 6.202978352463545
Cs 19.139802624698447 21.368654139103555 6.631869096020091
Cs 21.389588447457218 3.930178112152046 4.361201001273159
