42
Energy = -30.22751442 eV
Cs 6.092038978589774 21.284584479088608 17.968011082974552
Cs 1.1042604672062029 18.416780477084593 14.236530576082442
Cs 5.593306525417584 18.663815053162832 -0.0118975238825802
Cs 4.4340946336385345 3.453604675954641 19.216776986241747
Cs 2.1862633098521265 17.977260524593643 19.203062560768853
Cs 1.3976582632682402 0.42421845609054326 16.027056435581162
Cs 7.611093982393828 0.2528633902783369 22.39839320527539
Cs 2.489626729647861 13.42000757146806 21.43577441052875
Cs 0.8802195520950986 17.50806507651298 1.719442551495037
Cs 22.81458580618892 13.975969285144885 16.72011168247225
Cs 20.73241192546154 20.88128649260568 17.874600315604425
Cs 20.7512945036961 21.453029578744705 12.054976382791168
Cs 3.0445943601728223 22.37886261546938 3.398747439729906
Cs 21.696504298211472 2.640211661893933 20.627483485223152
Cs 1.9615653953997998 8.01503245784234 21.044163187691566
Cs -0.03680208137996747 5.7481340254181275 16.66156099276352
Cs 1.94744017106772 22.395830312235315 21.572846972304262
Cs 19.52718962267648 2.365904433756672 15.217927826195764
Cs 21.014092635127454 10.640354269910308 20.167652304988934
Cs 22.259274272997494 12.268391919763964 1.8779008043924732
Cs 2.6308437255466584 3.855904948986963 0.9603955791071624
Cs 18.814092830878078 17.035958363029092 14.799790693445262
Cs 18.23900518723859 6.3425224147880215 19.368738588779774
Cs 20.7750474659548 6.935379248937642 0.8329198131869593
Cs 15.952489196799327 21.57010907594636 14.681684445248136
Cs 20.456661404510744 16.18409215691475 21.12894512903877
Cs 17.024541793209725 13.410245887013588 17.993780611999643
Cs 17.15516804389006 12.458802557066342 0.23305717354659689
Cs 16.06261637569188 18.94546125224661 19.8125844202562
Cs 21.57000080145599 2.0671746889269036 3.3207296185464448
Cs 21.965924614935187 20.472826132113557 5.807052516403201
Cs 16.460009218361904 1.117440769512733 19.265326432395305
Cs 20.046132716201658 21.289888907319728 -0.005310170577303334
Cs 17.026739146200995 3.140652237747596 0.8049956707065471
Cs 13.259927799583899 17.146853124906386 16.037845253436423
Cs 12.74442478054216 14.10198424704639 20.73649519203816
Cs 11.617352873977145 22.29470451926717 17.850795377652897
Cs 19.224616984015857 16.59222238646715 3.3171848488547626
Cs 16.888717362261904 21.841478076443174 3.9973671587065267
Cs 13.314161796494163 22.426476943602655 23.170511691681163
Cs 10.227925785517057 18.54686009047236 20.88718979097595
Cs 14.650773701005889 17.43145760357872 1.3597281163260428
