40
Energy = -28.884428 eV
Cs 17.984138412967038 0.14673508079756406 5.201816385918015
Cs 12.639914889992587 20.303463417407464 4.793356335406435
Cs 14.255989304039357 2.857340189135815 2.2120162934773813
Cs 21.559435471428024 18.6808358221186 7.137800472296692
Cs 1.2403161092928983 1.1241821927560207 4.497283854653704
Cs 16.643381817569566 16.897763226471895 5.634448735821249
Cs 19.360000866912472 3.2996383172601305 1.0954092814310428
Cs 10.99908732997177 21.130950339816383 21.122224014952344
Cs 16.07176020196025 19.937702933018645 0.41283993952507847
Cs 21.044937393293544 14.786133314006127 3.1346668444973096
Cs 12.514857848979927 16.06112149246526 1.0967288106676407
Cs 3.6969719382015422 18.40295507867397 2.8761859518007586
Cs 17.935531162477346 6.703086299279777 18.321675203751223
Cs 1.0793024766559445 5.777024880468505 20.148971669993692
Cs 21.094363440706466 19.628034585095037 0.8237129878175736
Cs 15.152783378754936 2.191781613074536 19.04671620836196
Cs 3.2950942490593853 0.8238266189408717 -0.43575258814229967
Cs 16.353157201751017 12.631008713705384 2.452999972202857
Cs 20.454369545531435 1.2623909194757272 18.36851224035842
Cs 18.129940683328716 15.783124286358682 20.062894941618126
Cs 14.844958405224602 11.405463219119053 19.49857797937686
Cs 12.102759289933232 16.880276009490252 17.717208021861783
Cs 17.163172373594872 19.484669423728715 15.776591931520587
Cs 0.13488269351695029 4.784394708002854 14.835449374616228
Cs 12.115083482476978 -0.12029009060532729 15.408031827856268
Cs 17.147093874440564 2.8700627885410435 14.114163242108953
Cs 4.077589878058244 0.9553177547351336 16.18000535247197
Cs 6.323170829732546 18.787231027585 19.47761562231172
Cs 13.058985190446219 17.566093945018533 12.222131495599486
Cs 2.0698002998348084 15.117673508162204 20.731331032199456
Cs 20.318785439261116 10.95498885316832 20.45480106682307
Cs 16.198224722094263 13.98690179553531 15.099486642706504
Cs -0.5525830179251148 21.7112776848872 12.513580086467176
Cs 0.9673236214544634 18.927726886729612 17.311068043675185
Cs 16.58594397935959 21.00861639817599 10.148048350031171
Cs 19.067074869544104 16.600989456238636 11.377087594552878
Cs 7.698287738362639 18.934551254221457 14.00624955968385
Cs 4.965326970172648 14.898561103040896 16.209166086220517
Cs 21.536860506600682 14.117746239953973 15.789926726797251
Cs 2.6171543436314 17.58067181086367 12.225683747812344
