46
Energy = -33.83352142 eV
Cs 0.28318927819214784 9.29762432602335 19.76983402243886
Cs 2.486581451668823 4.686999985063638 18.647530926845125
Cs 4.288518676932783 13.265338933928184 19.48920598425307
Cs 14.329255583264997 5.141344367121412 14.94652778151901
Cs 11.603646613657673 0.14663809036566552 17.238596064002675
Cs 18.24607419054787 10.36237382856859 16.315404628379273
Cs 20.455032603217553 18.78200683867493 16.32260519375014
Cs 15.08537892070037 3.453250598933162 19.88975906909303
Cs 13.525764360782155 0.8215579425267383 11.625597560513167
Cs 18.121426616425193 3.8652858846284004 11.04263525631555
Cs 19.456170287470716 20.389449640918208 5.927513260463749
Cs 14.922630090774534 18.379542810672373 14.652115989459134
Cs 18.24168282687813 20.322139498494277 10.89794670025979
Cs 0.7046528878366922 0.29387107988671224 2.0969310186686614
Cs 14.248116362211874 15.643143265236858 1.1226319638309956
Cs 11.357030235610402 17.00018505545855 18.666268358920938
Cs 21.039358040052907 14.37953331771184 19.039701560042083
Cs 19.593928326855824 5.396790731225436 16.699207807547236
Cs 17.150562502798937 0.8127600829335081 15.615197683696556
Cs 14.36794950633952 19.08130836335852 5.125116825765194
Cs 16.012728730625483 19.760473217875642 19.74882010385786
Cs 6.24066293220403 1.9183210914797366 21.188197752708167
Cs 6.8932095232494195 18.93482869903217 19.900356884188156
Cs 17.146574048909194 0.8390879698852275 1.8020066251656703
Cs 15.585302446601979 2.0646332102141893 6.789154252557302
Cs 5.680049373889003 20.725970291269203 3.1849508707602636
Cs 16.020724774427862 14.639903865922683 18.245650547171063
Cs 19.374523086094584 17.818398282017466 0.970380259092239
Cs 1.659381783536321 17.435825051572145 5.107006688617418
Cs 17.947030724956086 11.473926470307052 0.2861534030622067
Cs 19.084736653235012 14.80830857856719 13.154083199720029
Cs 11.34478290854425 20.737332729338217 0.5696668238597817
Cs 2.600775931196869 5.118931044142542 1.8053578735700662
Cs 3.4267792417075187 21.85359054448225 17.014099939180895
Cs 3.310803303558149 16.749298513959396 15.689814470173141
Cs 1.244090954549934 11.997968711319475 14.798990257836465
Cs 19.618933202942028 5.675339131494964 0.2541176681622384
Cs 20.461173804798054 4.001348884737117 5.512133189220341
Cs 0.8274950499588967 18.092534835108424 11.025835813918816
Cs 22.11077921561847 1.1825731889150097 13.41489099380787
Cs 1.7750110007042885 0.27633502637116325 7.609198903923583
Cs 18.27663302847426 14.937403362143682 5.101001034743279
Cs 20.742101088583905 0.9571343116728445 19.643936042607592
Cs 5.666985243695657 15.47972274760661 1.9282262376286654
Cs 1.9402648773537252 18.259461406648107 21.01916773356211
Cs 0.7030634448329771 13.285364163002496 1.9229675897728802
