46
Energy = -33.44531594 eV
Cs 7.940860321063392 21.8703290326475 2.503307266346019
Cs 7.8258560569844615 16.03651198335458 1.3050815166919632
Cs 8.084160248124348 3.172537946410822 20.568639003508864
Cs 5.048332288191911 18.143005207466683 5.281065716458731
Cs 6.362261836489845 19.76783734468483 20.149219364823484
Cs 4.747504545754346 3.831898524293335 2.7751172397857764
Cs 2.241064750724522 0.2691097690377273 5.846635629299515
Cs 5.0325257904133585 5.171648266225543 16.58536032681379
Cs 4.250679902240217 7.5640411358360025 21.47847237419487
Cs 3.188998693408505 15.508241377480275 20.387425278198815
Cs 2.3969353623356526 13.897418689211042 3.0272334354409374
Cs 2.114689825872591 19.88922255765181 1.1634094387226914
Cs 4.234889243520886 17.53060144889932 15.376647481679539
Cs 21.502682907194206 7.946719841610955 1.995292494917146
Cs 21.740331294417775 17.759726087877283 5.689009210108399
Cs -0.28649682340498744 2.771624123185393 1.4556077460119117
Cs 21.875148915525553 5.010286918695081 6.366315255181436
Cs 0.13588164630213387 6.372032237400528 18.72439391350067
Cs 6.172830174329381 0.06997835181464596 15.384780557042196
Cs -0.09336510982609836 14.182883747967857 16.28604482107922
Cs 19.212692015979304 0.24438630084132798 7.031563430718778
Cs 3.0027927776822976 1.697394229125823 20.027449493513977
Cs 18.182872780220407 21.487506132231175 1.693690836185888
Cs 16.424546065429894 17.73304172648717 4.652111643301322
Cs 0.514227807783193 19.88987877248936 11.382056129947348
Cs 0.9463491899971151 1.7390412643187718 15.097820099749159
Cs 21.744084139627223 11.635598421192165 20.94217124652309
Cs 19.354056546371734 1.5909828225574674 19.232334397051282
Cs -0.008634884515040419 19.4626182026134 17.899432056085026
Cs 18.94567547950913 5.165923313032189 15.136565990370427
Cs 19.483979179747827 13.108920557285993 3.6901918934914497
Cs 20.144366076695675 16.703072347568625 -0.2661358917786626
Cs 17.243448958724777 4.513033682870561 3.4506334254128603
Cs 17.491981367702316 6.508545182000522 20.572377563783597
Cs 13.78345654613202 0.5217881720337242 4.775783456144363
Cs 18.41301126967909 22.144247632526266 13.525242758773468
Cs 18.178691769126434 16.99946115514161 14.844114642709059
Cs 12.350250437998488 19.211911080974158 1.03965985640509
Cs 13.790079958719213 2.2562132543506506 22.010844773769282
Cs 16.326495378506618 19.35864573210745 19.349143288835556
Cs 17.351811851841166 13.2635644356531 18.549986950082936
Cs 14.579568197488745 2.388728887618272 16.699990464631068
Cs 14.965616761899236 14.561153842938541 0.6776828559698085
Cs 13.642559668074158 19.750168670569682 14.461236373597476
Cs 10.902587031452997 21.330142892889004 18.70629707882025
Cs 12.316416826431691 16.044184791616598 18.544505210884783
