40
Energy = -28.5945923 eV
Cs 4.469358677002937 14.043597901396021 1.8568375443856113
Cs 0.26051566315336866 10.783705511171378 1.6127367492770712
Cs 0.659988872642087 15.849663369193545 5.5733493419263835
Cs 6.903615009292098 16.6489474485511 19.877609142691714
Cs 2.3999397300000056 13.204202557059464 19.446910914204565
Cs 4.64331782154701 19.169268787963762 2.666238856041808
Cs 2.9446451755027083 16.55308340691635 15.221129150132723
Cs 18.11247973270298 13.186139722743064 2.93391933052815
Cs -0.5346647395811522 16.515479198534265 0.784527341226476
Cs 6.66172236833678 20.776963716510142 16.281228305985895
Cs 19.328693453088988 12.380247552332252 20.00371712775349
Cs 7.861138172239047 21.85958849366416 21.355389285749695
Cs 22.13695151607798 21.280877531398875 3.5761816781811606
Cs 17.997190108696568 17.968468499512642 4.915087306953339
Cs 21.325086851820814 12.525713373713042 15.196689475841522
Cs 2.811401401490012 19.861778142276133 20.12242268097053
Cs 3.3464850192343025 1.9866833142668627 0.9563637751475955
Cs 21.028070318497615 17.344003173327913 18.25201117033751
Cs 1.0822681028421592 21.705741836756776 15.061488598820251
Cs 15.705394196718615 15.948593619508866 21.347861215943514
Cs 20.26188026496681 17.59436809784547 13.082169518276013
Cs 17.064557136689043 20.257407563108636 16.918127595779886
Cs 21.716681573428975 1.471681453155881 19.73009735713694
Cs 4.150582712916833 2.787818175600594 17.987991455540268
Cs 16.539331925604525 14.911935114243365 16.127437437135622
Cs 18.112473137952396 20.525500960553487 -0.0010865127824302477
Cs 13.41606529262338 19.203505936404806 2.4777320199615986
Cs 2.269175616082043 6.807130731021913 21.06289849174543
Cs 12.395640399742481 19.838089383482476 19.454780943440586
Cs 16.787652806015934 0.9072442744243221 4.267128031063678
Cs 20.700271257381143 3.847924629291511 2.137018070680851
Cs 18.794720321773546 2.1426515936831363 14.809929450129273
Cs 17.02041889202742 2.75334729020273 20.319299379758537
Cs 13.210215508680365 2.278795008111683 16.937032134829547
Cs 22.135306250546055 5.874517826457707 16.537766054662598
Cs 12.672898620977827 1.7318348989196048 0.5305589697405125
Cs 15.725779164221223 5.8599184805024045 2.5345929827895493
Cs 19.333735471516437 7.354496837076807 21.04791916093928
Cs 16.805349815560874 6.946966934432611 16.430279898106168
Cs 13.349481908983103 6.659173051828098 20.27079457384707
