41
Energy = -29.41232135 eV
Cs 17.214534375231956 20.23246795922242 10.263624044736286
Cs 11.728889116373741 -0.017805242691054168 16.716151249712993
Cs 20.817793084985688 1.7083967716816273 11.382301098149426
Cs 18.52746115082128 15.572023434077291 12.049817576056217
Cs 0.2826238528596528 18.902119624304586 10.060465419519076
Cs 16.788645893981894 1.430501242426128 14.92327355000879
Cs 15.328311755833083 18.36609716982131 15.836928178864023
Cs 13.428471330842836 5.020990825890367 17.877767079604357
Cs 18.774664771168403 6.072337886066874 17.322699724636184
Cs 11.229993854115195 18.91229446482046 20.773721747275104
Cs 20.63367086326067 19.6878685420243 15.155827637471349
Cs 10.378510775297752 2.0663630917191127 21.305989522755574
Cs 3.173291265920134 0.8214802309273037 13.605315196796942
Cs 18.750837563703513 14.550107821045556 17.4683914665907
Cs 14.426879391696833 14.524315502358728 20.638089218450652
Cs 0.9399571067167748 14.552355223823593 14.794263987012704
Cs 17.193610540313255 19.032282340348793 20.762171618288477
Cs -0.04489382955189047 1.971003316150678 17.529610047427298
Cs 15.596555942428633 6.06697135751696 0.5434686213496703
Cs 4.245496357051708 18.247189906047275 14.285906354464258
Cs 16.817929763218288 1.7277394004210178 20.10955642353706
Cs 5.703248625464469 21.678550771013477 18.229819992171052
Cs 19.950873449780367 15.325114448819296 0.9098275361035439
Cs 14.39655777420438 -0.12364310059137455 2.239469465257737
Cs 18.22188213006149 10.155862061281475 20.59968220477256
Cs 1.0671269656187605 17.87267702285154 19.315170899399632
Cs 21.411872389052906 5.422486330431669 -0.2520073330472786
Cs 16.523626280397373 11.511002149620367 3.177111213622202
Cs 4.082985536622236 3.018638105664008 21.964183027560402
Cs 21.66000905380273 21.80057936412154 0.15936130076793736
Cs 0.9102435541331139 11.917057877509666 19.56659362496251
Cs 14.947631573276281 16.790216837351224 3.187714964537176
Cs 6.013069047520399 16.234619589115944 19.05748565561155
Cs 18.888753165190884 20.106151480972198 4.880931573431442
Cs 21.703647705466135 10.521284869173696 2.421333553731517
Cs 19.4410112320995 14.961469030647084 6.588415595493669
Cs 5.0441626648788 20.093312318867614 1.0576725991585547
Cs 18.644619264739188 3.039795207122052 3.700558797226177
Cs 3.3003191983186646 14.669299386582745 1.3028041041921574
Cs 1.5699191857693147 1.4481263755958143 4.49180724124863
Cs 1.4520273995387325 18.241368755056822 4.508726017076334
