51
Energy = -37.04789834 eV
Cs 5.064759363838735 1.4034923883192891 14.29359701487605
Cs 0.7733890176833355 4.000459758250689 11.928308051491952
Cs 2.196926005116252 22.28734210234108 10.486857778807753
Cs 2.1766479068328044 5.304679303870914 17.101497195658407
Cs 4.900514001826909 1.5636088357914442 19.466690617614503
Cs 3.2230044986706874 19.296784526041705 15.148957588388813
Cs 6.3598721038960235 19.718104099063485 19.052950805831948
Cs 19.963288009664925 0.6226096845840667 11.423914089397234
Cs 0.6400559303329654 14.643268713884957 14.89859194323349
Cs 0.16244367043855712 0.10965255128383675 15.681520492721353
Cs 2.861481832382849 15.31499990924195 19.5624984164727
Cs 20.330012160233743 4.672741947540638 15.94054430924909
Cs 21.61668049748825 19.051808198351235 12.573549731819861
Cs 7.13633729108953 22.271141019464313 0.36314002116549055
Cs 2.61785372602232 2.4598509107320288 0.914673067492869
Cs 1.817424480914394 20.881466576660664 20.998141822312068
Cs 4.806130409475456 17.402630469652756 0.6376979424660834
Cs 21.874879369720393 7.133997265358677 20.98196524422709
Cs 21.64435726575147 18.394785237976215 17.983111065507714
Cs 18.650507432187368 22.677900551471613 16.999743312139348
Cs 21.376593520345644 12.810064280855265 19.324153599581628
Cs 18.643800275408363 15.149661423013441 14.645296649640212
Cs 16.33704832374918 19.977141949664016 13.224700646851474
Cs 15.398016490723101 2.4514620870484323 14.90607630341693
Cs 22.31673239973374 1.8245577569393254 20.358747678044455
Cs 11.75133920901857 21.525660540401528 15.17055474165113
Cs 13.217065094621052 15.834482467798766 15.442613434589822
Cs 4.010657063072145 21.65838018732626 4.788308036540725
Cs 22.777410969866917 21.865857693166713 2.2533779467853363
Cs 16.43479894695738 18.14002102348103 18.80543352365657
Cs 18.650709836973153 21.779076972684425 22.041480600291717
Cs 17.249059142985388 3.8849222181285743 20.371990197223038
Cs 16.184599401840778 12.440243682005022 18.39935457655226
Cs 22.17450150121423 17.271979323359464 23.065477001087267
Cs 1.5338886936004061 16.855367698823187 4.525143958589043
Cs 0.8835618896946306 12.70697175255688 0.8696401923046486
Cs 20.223024669629286 3.134247904164517 1.813535396241699
Cs 13.616709759118683 0.13968644188312418 19.827324569336838
Cs 0.11673876826683066 2.191077718327878 6.490356362842876
Cs 11.131035090599509 18.895064907731463 19.467008637305195
Cs 17.758264528995984 14.934624442434123 22.941200190575795
Cs 12.705114471881537 14.516457714833557 21.91371506977537
Cs 18.287615299680912 19.46962527531299 3.101848834586043
Cs 21.895469519613155 20.23096557085172 7.265736143910345
Cs 15.155447274581434 1.2859716534477743 1.6848311275451522
Cs 20.20097966179522 14.761262695138761 4.42808767300767
Cs 13.748293789716216 19.456835274047787 0.39408685504807056
Cs 18.25461054903656 0.5254391277669019 6.095348761148729
Cs 14.745532372107386 15.672348582758099 4.021085838252735
Cs 17.36812220926826 17.87085186987834 8.307712583699264
Cs 13.731126857991045 20.987245185595274 5.47265265657807
