5
Energy = -1.96017297 eV
Cs 11.749233222762317 2.025616929200971 16.639818548625314
Cs 15.911524378351722 0.2438542686989344 17.221636434630152
Cs 18.986876922068078 15.698488852844523 16.857592681104524
Cs 4.46063725131807 15.554404731037534 16.711209237000137
Cs 14.684157701460343 14.8066631456911 18.662107098740645
