53
Energy = -38.45214773 eV
Cs 7.6352493143690205 20.842222531795198 15.09867983174958
Cs 7.874832449826496 1.1702917940966597 17.913594974016092
Cs 7.335348611204198 20.959970921358252 22.20872383005706
Cs 6.155338289845748 16.974402343842744 18.587879299352743
Cs 4.263611252219126 21.88577143678246 2.5384424716489042
Cs 5.60042955425166 1.7439060198380856 23.128582641995976
Cs 3.469449602683759 0.3932557723618064 14.813259801715322
Cs 2.9466716203237753 17.88925612916367 22.71005710310594
Cs 3.0670950530894547 22.307040318818867 19.6378086709576
Cs 2.5296943432234413 19.24493411193602 15.23208853376147
Cs 3.46231153487327 4.1293563596969065 18.70350055552139
Cs 0.4578319100523307 13.341049911589764 24.028737429180552
Cs 20.71952828266367 12.289989226020168 16.053711517605734
Cs 0.40727289096571656 17.62572093114767 3.470800377788237
Cs 0.40929331087894505 15.596114303925834 18.55091604063604
Cs 23.76627109773596 21.651401712927495 0.11694698758354262
Cs 1.7481237830246354 2.3987278747200578 3.369850715015616
Cs -0.02276909043507148 22.43604047140046 6.311343019522509
Cs 22.05013457350526 16.842256495722562 13.624130547131248
Cs 20.157400396193122 12.01088493208518 21.2643674031421
Cs 0.38816619137685027 2.2664218548506208 22.429759824813125
Cs 22.987495084854007 1.7419832641086543 17.099202221867394
Cs 20.02238830593565 14.710040533064516 2.491812373708788
Cs 22.56164816245729 22.16726830961133 12.5808846445074
Cs 21.48777178419546 17.357663391638294 22.17311299120765
Cs 22.314709680012434 20.703187936372398 18.161722582853415
Cs 21.927016904968234 3.4751015188045478 6.9582258007545965
Cs 19.907514610943274 19.245865094392745 5.905169834736282
Cs 15.629624290437619 12.704176702964443 17.939583942647044
Cs 17.102748535338904 14.56566223391924 12.964258467880144
Cs 20.3414459166875 0.39615771455331844 2.8296007082930705
Cs 18.546983038226884 17.19246199709761 17.602895020197323
Cs 21.628257032043724 5.471341065958747 1.7542333066737532
Cs 18.852318458684287 23.801884764567312 8.76571682864952
Cs 18.321557746250786 20.05746453207902 0.7880132847256406
Cs 16.1472367143659 15.784162069953886 22.448395865111973
Cs 18.411604151346467 23.620569098999816 15.898083050266582
Cs 19.792832632374722 0.26879425666188755 21.370014705455688
Cs 20.83053655767543 5.746020940337441 20.194744011949933
Cs 15.365909684751438 16.97906465819009 3.86168203234395
Cs 17.511691580725625 19.88665688407143 12.42944570729508
Cs 11.36271566640939 15.2320395881887 20.063832256163415
Cs 13.499280574147022 17.52590572933132 15.50714297358757
Cs 15.348645538854901 22.166289343957747 5.08035309164012
Cs 15.90281465700785 20.978739048677692 19.91404625264403
Cs 16.89851989325001 3.479454625727579 5.070809721901558
Cs 15.499808754980664 0.40806415338969426 0.414506781550031
Cs 16.974230667922242 5.337201860683686 23.77385499846659
Cs 12.696964634467143 19.777572925025794 0.01364685277127941
Cs 15.634754554513668 2.675752414190579 19.240182566042936
Cs 13.087924387026177 23.376885639030338 15.766908952514605
Cs 10.843313053728812 20.180454327623675 18.976293264797334
Cs 11.356265823854768 0.6634684151957773 21.53356521848322
