55
Energy = -39.74152809 eV
Cs 3.8632333195522914 9.682835104075457 7.723201298761493
Cs 21.55870300074371 14.749512677582446 10.52266441841494
Cs 16.026996466648914 7.464609032005545 16.179202110911426
Cs 8.715171840866805 2.8634527795297418 11.066921869445702
Cs 17.045509472113586 14.415180246837233 15.415551900309001
Cs 9.112554318466913 8.290842853996573 19.890039992482368
Cs 13.396206753164732 11.864319032302735 7.057178197826181
Cs 11.59076391844509 16.58515912633257 19.782989498218576
Cs 16.69672723939526 6.217746646774213 11.087247516198067
Cs 8.31266657642843 11.472816347474595 10.344170711229106
Cs 8.275480320228558 11.189534974541445 4.963388125444615
Cs 10.657803792133278 7.981701428817754 14.647512602201946
Cs 3.2042383401470467 14.654759284271318 16.854083151656678
Cs 2.8923686752957765 12.188093077468253 12.300292602051849
Cs 4.8857040516275445 9.329681304876132 16.795682421971236
Cs 12.85630381126977 20.20005039046227 7.789248497218659
Cs 7.311152144035566 19.779849716817772 7.8559193221105135
Cs 19.762406137520507 14.938246390955868 5.670475779940904
Cs 9.803555737521103 21.20198065794201 12.181059364294477
Cs 13.102357875625682 2.8925765447721767 13.688306503374601
Cs 16.04024444453053 15.491046997632449 10.138974616050424
Cs 12.57712287198085 4.581337801601954 18.78534591157215
Cs 7.7434032114154885 4.253213957097706 16.363057154855678
Cs 11.922905025830921 16.358189577170137 14.388544254012343
Cs 19.763638553948972 10.232109965226853 13.439955292324665
Cs 18.497613896698304 10.672588152004138 8.426955907926141
Cs 7.347638154859541 18.11914751767648 17.149056369715915
Cs 13.011181173939372 11.76564718409052 17.58987111309411
Cs 14.19343173108069 11.16615348925286 12.369755854279628
Cs 15.18896336361243 8.592851207874649 21.437388722996022
Cs 7.0537306625446625 13.404849688445818 20.164109902845308
Cs 8.284697393596291 12.84578557215041 15.218611447238697
Cs 23.067881694524544 13.952171283960341 15.354104686916804
Cs 19.891919415291106 18.51584853260662 13.963808153135432
Cs 18.40388103995543 19.480151203318734 8.443820902828092
Cs 16.031278343615337 14.368011429141063 21.578432750217523
Cs 16.033903107238753 18.914798619420267 17.97385819817737
Cs 15.065870071554377 20.467353947805655 12.727272028170423
Cs 9.562089373841214 16.46807545559169 4.478341297554401
Cs 11.725047068489982 7.576434616531379 9.520659522224898
Cs 11.564240005697943 21.402400108668967 16.93278645415797
Cs 11.774000489541336 7.620692734359182 3.7265323621273665
Cs 5.941844264827524 7.178492544744541 12.017922316628228
Cs 19.207673053151133 11.053509939599076 18.797235759122366
Cs 16.287666189000642 6.632714826968233 5.934283380902389
Cs 15.069268842126426 16.589738501898577 4.724262761635928
Cs 11.338252182945306 11.888719961946626 22.536631318667844
Cs 12.574759402306352 12.998776037196517 2.056664136145578
Cs 10.719265980591594 15.846607895024388 9.474589279356767
Cs 20.45739156798009 16.30821940768158 19.200921744728273
Cs 17.013575134685862 11.042973268354705 3.1698238223501822
Cs 6.214165866269662 16.84257427961942 12.298716812551046
Cs 7.614264703948681 6.078442923299412 6.787487076682549
Cs 12.992349074865254 3.013110196272858 8.012766995381941
Cs 5.235560133059317 14.79493483870674 7.482937090140031
