5
Energy = -1.94679208 eV
Cs 16.21083958518874 15.28340349703103 0.8355979667900898
Cs 1.5240835390415883 11.994346203149975 1.3567362776794907
Cs 14.950577957816245 17.417984638949985 14.231089928461643
Cs 13.166675727314177 1.1873664687126222 0.6165105193320326
Cs 16.013912901220014 16.90272305313447 9.88179470339915
