51
Energy = -37.11682274 eV
Cs 12.109463720534714 15.318713487609948 3.257415873050166
Cs 8.839493584427885 18.497240222845708 0.6706863417858204
Cs 11.826247250192926 20.839302368292465 4.808368541994524
Cs 13.794538301579639 14.924622960530991 21.75735543463446
Cs 16.39714756836731 17.63280804638459 5.1298937188155485
Cs 11.060918335395233 20.040198793842553 19.602512861349187
Cs 17.563496045421157 13.31641852291303 1.8513058063147512
Cs 10.652891488727084 0.28380315816424007 0.14045445816205349
Cs 16.398246866651924 18.23330133391271 18.837528293629838
Cs 14.607474792269517 19.688406132856063 0.566441774319771
Cs 19.271150457337175 13.692135717731881 19.907836342910585
Cs 16.818761720569224 4.575253838577845 17.13650938804978
Cs 15.3476498644268 1.0852029643590146 2.845251345750995
Cs 15.777514032480392 23.426852476852353 20.34772646593289
Cs 19.056081624111503 22.08496654820814 6.1511585676932965
Cs 21.657001630506773 17.300695429266234 4.969203917420141
Cs 20.654986017125943 21.372869748008572 19.283090796313562
Cs 19.28864127461296 17.842901655295055 23.317719739487288
Cs 17.204659937230133 22.22513342684507 15.271922368042201
Cs 22.936559952071242 13.950688452985714 1.0277976245245644
Cs 14.998830731258337 4.784800670891917 22.189550193384772
Cs -0.445323429791794 12.764717370309747 15.667316669627958
Cs 1.0169529818013998 11.099457977887019 20.290878432208043
Cs 20.417724963954186 17.520543181414304 15.428846348273229
Cs 19.929081696786064 22.873554440735997 1.0290371099531683
Cs 18.93083852097256 8.494910857183156 21.288915785746696
Cs 4.291285232225643 17.606468710962126 4.410273924077102
Cs 4.6195519416619355 14.59897604160112 -0.005189794969722789
Cs 20.448716679281578 3.1178978569572973 20.70247855077708
Cs 22.003781198208358 21.38027956967725 11.763670719501002
Cs 19.138716755294134 4.976464440102706 2.2117470767708025
Cs 1.9833567831953318 17.17392468013041 13.876253763918207
Cs 21.167203503383227 2.072845897771698 15.552563462902155
Cs 4.638567150934504 14.722350337391765 17.930143947376045
Cs 0.9361794083183561 21.736143729639487 6.268018240271025
Cs 0.12139145169782817 16.819383071293338 19.682304450800725
Cs 0.8819572236208496 19.390856864910518 0.9684135230985342
Cs 1.7492247389564208 21.76311177230836 16.568224286214246
Cs 21.75540437960097 7.4369618766202725 16.992354765601778
Cs 1.4710779434997057 0.13445495520366335 21.5978457704792
Cs 0.13423215569430252 6.723723922403021 22.915087336468183
Cs 4.715924480754137 19.19650891115749 20.863700256133683
Cs 3.821400622039874 21.469520920790682 11.2184506455654
Cs 2.240838915866223 3.787212114308769 18.08109755906158
Cs 1.7124983142183172 2.736563640074026 12.454993384810797
Cs 0.41115303829820155 2.4121586535358928 2.74438589724866
Cs 6.543933716870664 19.430565072454417 15.810541368663998
Cs 5.324142285846536 22.518392912836248 2.146891737004828
Cs 6.762760567437195 0.2639816094191716 19.931668742613393
Cs 6.120945650922073 1.3037257235110773 14.931888494578391
Cs 4.820364114796365 4.04162382194165 23.152644291210137
