5
Energy = -2.30314789 eV
Cs 2.0591762721629405 -0.6874528920952564 11.614524918424953
Cs 10.187776979605193 11.408251911743687 14.42371173101349
Cs 14.919319139790403 12.930343477047638 13.190786777877323
Cs 0.1425410014525992 0.387387575187827 16.154661234665088
Cs 12.440853158131242 14.589511210303648 0.9851632197479455
