5
Energy = -2.18447499 eV
Cs 6.899529004064152 7.810119712668073 6.54158504476914
Cs 7.690146547219929 10.342996816710539 10.616459236519754
Cs 11.269566048237486 7.674754181405745 8.678796359048764
Cs 9.81403691026425 11.88149945370019 6.203423911302253
Cs 7.388288444680906 5.352197881048612 11.021302402826937
