5
Energy = -2.26845922 eV
Cs 14.608502019721211 14.978426033920547 1.8829408665545229
Cs 15.362074014178148 12.605473467286679 13.561892994323705
Cs 11.045200539675061 12.566154569397277 16.309492680794293
Cs 15.34944481051969 0.9085225278975698 14.632921035464232
Cs 1.0226730968913849 16.012483385745373 10.743288372355414
