54
Energy = -39.61846358 eV
Cs 2.5946458388695204 2.5896760109101455 10.92003638387639
Cs 20.689924191379045 3.079031738729207 10.792988447823639
Cs 22.31592468281129 5.841193540404925 15.446561445661425
Cs 3.4944810591202256 3.5231469199584096 16.902006757220974
Cs 22.930410181412302 21.595491941495453 10.63662173561725
Cs 0.6079782886124234 7.3898464460286295 20.409221163950154
Cs 4.38417537202542 22.07287796936494 14.213157155404076
Cs 17.441073973533726 2.7481743034073705 15.002507100987982
Cs 18.91444627819768 5.5843973205160395 19.810100949031785
Cs 22.63254676314994 0.5510296162430572 15.481469470613888
Cs 17.363238137512543 22.074557397076475 10.713524413278522
Cs 4.296358675868778 3.98462133894071 22.866290379165427
Cs 23.29010615786349 1.993327263454891 20.626293886113693
Cs 1.5878127919728722 20.517291832041387 19.232873577750333
Cs 5.844843988302853 23.093182099838224 20.009590016982056
Cs 0.6731520402765595 18.101727103164492 14.538946461432008
Cs -0.555056897516472 4.89763798940524 1.7155054654079336
Cs 14.055330920547597 3.0207808916203147 19.759554113263682
Cs 17.755204908706766 3.805239207111108 1.1865864180710897
Cs 19.983475167081632 17.24465736462878 10.807706194267837
Cs 14.261574235958971 22.132266034069012 16.415959987549723
Cs 18.52836163299892 0.40794872345258865 19.570131861844594
Cs 4.522757905337597 2.6415412761084514 4.664027610790467
Cs 15.110835432561522 17.673758372416156 13.386719183422331
Cs 19.175984911181974 20.46323153169399 15.410745331524142
Cs 7.599824763984341 21.94273235085682 1.9887148037226712
Cs 20.333944083726603 19.192041484958004 20.22363147490414
Cs 22.757103662789493 1.3996069771341972 6.083495574357883
Cs 3.7229256984797834 21.412393179294153 7.276051173764837
Cs 15.205951706952305 22.651488234000045 23.2170050630931
Cs 20.797519125430163 22.793901116587374 1.1373249557484375
Cs 19.718515196246226 15.422630826995887 16.108487939725038
Cs 15.4770125958007 17.849879475516076 19.510570977659775
Cs 2.4136100405936447 22.222677532054103 1.260582673550448
Cs 0.5164849166965784 15.163736222778397 19.28297239883721
Cs 5.848076984707142 18.022979631434335 21.725717807741393
Cs 0.021155323192701952 17.42553299156254 0.5970117699962689
Cs 17.510595903165974 22.96204123333877 5.275414540862518
Cs 21.8207361673964 19.394901388421058 5.616379510637651
Cs 15.201812594813553 13.122137304142948 16.250561605616017
Cs 11.034957566861362 16.46432245142023 17.65473068518989
Cs 18.863293580088857 14.434583815074225 21.689778360320307
Cs 10.834283813596057 20.90365632497306 20.819533183384188
Cs 17.825483706493067 18.55275332930924 1.6622328709399115
Cs 19.981203917891676 10.548960511815391 18.560855054636182
Cs 4.296766611200613 17.57429517923197 3.5968736293033285
Cs 23.20285029137783 11.905442305432542 0.03616451412080509
Cs 16.388133533851807 17.796186860685328 6.994021267498286
Cs 13.973537536559357 11.961679065841642 21.085266715553495
Cs 12.748621111748605 19.59041603233894 3.2829064106680157
Cs 10.739121741329127 16.076567653223382 23.029468917538434
Cs 20.168162800726314 14.293801913875283 4.066662322525501
Cs 18.48162471088813 9.393704229341049 0.5470540118795449
Cs 14.911390841064318 14.196572133858767 2.56960524969513
