51
Energy = -37.02830371 eV
Cs 6.4952239712999225 18.875795633080934 18.71891859340776
Cs 7.491811090941888 1.6192460304938572 18.962229570780092
Cs 6.2995684603581115 20.68173475838087 0.2662679675844748
Cs 3.5505801220375215 1.7044604355900197 0.2355933304913084
Cs 3.518378593536351 3.295948642336095 15.728655094659743
Cs 3.1360385852976234 22.277506253653108 4.458844062313508
Cs 6.064680745075349 22.265536449307973 14.639116150400971
Cs 3.6304107759148914 5.552573107719924 20.408499676552708
Cs 3.257422221749411 17.134135077985302 3.5749721045875678
Cs 4.598900095252123 15.539377826204976 22.386327121957216
Cs 2.885447294841694 22.660478339547467 19.370593211163243
Cs 2.87070197340599 17.93201139805131 14.379295292799908
Cs 22.66658278688985 2.8786365343823923 18.951526751561556
Cs 22.364899202422798 3.946948808877625 13.566245572489345
Cs -0.1386363360249615 5.676357121333625 0.3875218277062688
Cs 22.653869978217426 2.0796149841660796 4.583452307278163
Cs 22.124220798673125 0.39211498386609484 -0.1421840543246026
Cs 23.41638371683653 7.779911864004055 16.963332801782197
Cs 21.995206697833066 20.043395146554676 4.596545437615913
Cs 23.20190861998448 14.905588478378792 0.5151923999128406
Cs 0.3604411888981128 22.63765960701586 14.727506860223947
Cs 1.1524929279006608 19.89201967175323 23.44512231160768
Cs 0.8179631015700316 17.10336408665081 18.975240296351444
Cs 22.93998875383088 11.32046848926534 20.555363826780372
Cs 22.266153497650215 13.30679900129361 15.413526974642346
Cs 20.835266090686662 18.333576291498627 14.367168870207493
Cs 21.491274452447005 21.20469751546139 19.212799717887076
Cs 19.56158261379396 18.648148629264178 0.12495253451372756
Cs 18.548013576519526 4.46187798364047 1.8176900812356314
Cs 18.735663162403988 0.12322847441004862 14.896717787713161
Cs 19.649242925246906 15.674226927445526 19.62440557241865
Cs 18.046204243272523 5.145944908358 16.471717390818284
Cs 18.4338708222979 12.23186925625076 23.557247560478388
Cs 17.004641501238474 19.736129251330137 17.917453847726904
Cs 19.500864454596275 6.971709975837344 21.175382228766956
Cs 17.901999794299847 1.1656436366983534 20.548866562271137
Cs 19.607452927303846 15.047859958837464 4.334421983020992
Cs 18.178464042557252 10.727189861961863 17.887938505228764
Cs 17.63080278763507 23.045435251967685 2.2587000557722816
Cs 15.147708067153198 20.14986752034862 13.16952690184344
Cs 16.57542859565028 19.21890846169503 5.511404004848424
Cs 16.485946260688202 15.153270386979257 15.166574437340099
Cs 14.983538459114635 19.910334704656968 22.266689770783078
Cs 14.753195066909718 15.799557254938781 1.857424656704912
Cs 13.65936959529606 0.15290878738628905 17.390291295457153
Cs 14.496413467186677 14.515306324848408 20.284653267761787
Cs 13.686440091053854 1.7038557997252357 23.426484636773107
Cs 11.960016271562223 18.434011461610826 17.273870864703717
Cs 12.106142695045108 20.786663970396358 2.7588800945462855
Cs 10.119653068987656 16.853112258938317 22.658708261407945
Cs 10.411948086335672 21.86167686151969 21.191515615114557
