52
Energy = -37.80346908 eV
Cs 4.712132881513597 18.90691050334473 15.641344577223483
Cs 3.656421538803634 0.49684156438720534 17.707276581746736
Cs 8.163205665315806 21.55293324624736 19.28993840233639
Cs 1.424878257543305 22.450833357097686 12.879923005564148
Cs 2.33850627427458 4.86062131580267 20.08811141701748
Cs -0.00904619996477189 17.22332253829828 13.385540002651345
Cs 22.45612364965874 2.7462882904109667 16.164334474835748
Cs 5.767880181086066 1.4613641375294992 22.700878533792633
Cs 6.695452685617452 16.554558276590644 19.93365468566325
Cs 20.34471585655745 20.59384643540309 10.497356988615183
Cs 21.209353042441258 1.9878777459747103 10.827444262723967
Cs 3.1350115204297944 20.480139856374567 22.161558578993073
Cs 8.011871655310719 19.970819862237402 0.9108401593976551
Cs 1.3214513018352296 14.828582931784293 18.628333582358515
Cs 22.458288919805707 0.37326365910123727 20.86419101478024
Cs 4.049183804353981 23.374496150148435 3.7946556588121676
Cs 19.43388387676254 22.071720209603406 15.35519732748802
Cs 21.388723797625502 12.83761865298814 14.988740820285729
Cs 0.7857657502094895 3.0498889476544218 1.1686212672387197
Cs 21.252868287972763 6.441976984759373 21.81222216572946
Cs 0.12693226864705096 20.20551085218968 17.763998370236862
Cs 17.203902613402796 3.14281892919075 13.83113276539589
Cs 18.095427987664365 16.555857566921418 12.588704887188614
Cs 15.619047716158105 22.306750746324045 11.465153887219119
Cs 3.277800494968109 15.207647106330459 -0.010306551179682
Cs 3.6695983714609373 18.31845830337372 3.903192548828768
Cs 16.017566978168674 13.39671351228211 16.150922807935302
Cs 22.960099647217397 11.691331378903522 0.14350657908939488
Cs 17.718482836124554 3.260092920155464 19.188980291734953
Cs 22.174158338422398 17.45957453541108 22.413295403603705
Cs 19.583861929178546 11.921474339411972 19.99321037202931
Cs 23.485480614316483 2.2116100635241764 6.17313468180553
Cs 16.29217952014097 6.443767136176137 23.371688775349543
Cs 22.60713358423705 21.52965754106015 2.1067102394159076
Cs 19.661992086864842 17.06624655882364 17.848619043464698
Cs 18.516819690007964 1.1842434002805555 0.7956155305558232
Cs 13.776965700060197 0.24884663740295074 16.831041365019818
Cs 22.560896258986496 16.026962500811837 3.899348155733275
Cs 19.82277799237265 5.364863779717657 3.7852690141381395
Cs 14.732790254999172 18.771837217288557 16.154311111462746
Cs 17.521681278866055 21.64593811297409 20.034097236491668
Cs 0.02100857125879064 20.616988733417667 6.964874485752715
Cs 18.245414904479947 14.024306989008235 1.4580126012419934
Cs 17.787350005218496 19.413072328172042 0.7724679381863598
Cs 15.404048446899202 15.621858036806406 20.884484028937067
Cs 13.379682401871163 1.463015637661703 22.339588741396174
Cs 18.38380891246308 0.2458932537102859 6.395087868986984
Cs 14.686786299289235 3.4128811752943107 3.669221005754319
Cs 17.970685329087647 18.5173735986814 5.7957743517751465
Cs 12.49669964192317 19.943948847299783 21.648923817492822
Cs 13.788669702081103 21.816179871793747 3.275451827440236
Cs 13.529427011521836 16.558763402343956 2.234065083937936
