50
Energy = -36.55331929 eV
Cs 20.121157632729858 14.651704538721157 15.437768837822606
Cs 16.880694316182932 16.936069758352307 11.739047344784272
Cs 22.71823121812164 17.7966335588452 11.348830771637374
Cs 17.800008478608714 11.883416072504046 20.38306672707213
Cs 11.33448227367748 17.807657090728163 14.801956693585373
Cs 22.84680448853041 12.187222966050241 19.71634932945196
Cs 15.109124166059784 14.76970952515769 16.890208195734388
Cs 13.553993989422297 21.211368666941812 11.204794160975421
Cs 1.93069130838813 16.279285002561913 16.957913223549024
Cs 5.341768791678545 13.286579641840381 20.254211444555395
Cs 19.005082713741793 22.03616218514479 11.502709771884042
Cs 21.425941366712813 20.34362640146171 15.689394992038673
Cs 20.20615967521457 17.478446986870217 19.916507277235386
Cs 3.8257530611146513 20.38991835552557 14.242520022404463
Cs 15.995402215108099 20.119973183336676 16.261844248018413
Cs 20.38132266914272 14.203297204367209 1.6300082610488729
Cs 10.793717046132556 22.988446520613973 15.442401247312493
Cs 1.2046888534814864 0.5433918715817275 10.810015579581119
Cs 2.45934848787803 12.045015071523498 1.3791747711486424
Cs 15.430461570733039 16.711661090981192 21.867674857533192
Cs 6.710628154903167 18.191485880658565 18.874728309770582
Cs 11.364921330402742 20.12225661573245 19.99540800789945
Cs 1.7703556149798183 16.85126853548167 22.42919516071123
Cs 15.083444608590993 2.9856581132138 12.995584349724247
Cs 6.55439657890297 16.291028700734746 1.625130932505133
Cs 2.3342865799047177 21.060809855562518 19.426179763391545
Cs 1.0172921579969774 2.0869037914846924 16.250295892189268
Cs 18.455896083277565 1.7702697996253645 16.81300916890282
Cs 1.6409065404534755 16.04341930436118 4.796076561951412
Cs 20.51050279109797 4.3723620201339255 12.729890114780982
Cs 15.874057441815067 22.302759479016107 21.177020720383403
Cs 19.203064735443682 19.394507240872393 2.0467820711456035
Cs 13.298404048836177 3.260901727585696 18.331120672710334
Cs 15.668847879668574 15.887858320882424 4.155734010616882
Cs 13.257531605452671 20.28555787543206 2.3114314750170566
Cs 20.7937732948313 0.2723713870485996 21.08089197862134
Cs 4.780954428878042 20.112096415537476 5.744589735514122
Cs 17.111698945715098 6.97473287762174 16.76922820121591
Cs 19.844157672719835 15.726531086055955 7.1324074517957925
Cs 6.183134386379209 21.46013470267276 0.5178240012400148
Cs 0.9535805985894497 21.358291705408224 1.8905394885686457
Cs 21.638391683285505 5.890128836981718 19.43516729950769
Cs 2.502511926928858 2.714294795136318 21.957526724863538
Cs 17.130146064974976 4.655715953541298 21.64705510765053
Cs 17.142337712897042 1.08997780807705 3.004980934644041
Cs 22.13325985070068 20.553003596680792 6.7143450290879
Cs 16.796925581036053 20.48041114247661 6.878155913215001
Cs 21.43158864710584 3.7739247629114123 2.112267793081039
Cs 2.440119011526197 1.919674887687875 5.341442723251842
Cs 20.107486979497235 2.456697532768761 7.389608239745469
