5
Energy = -2.23595986 eV
Cs 2.244483710164231 2.1736098654430096 0.368914447940678
Cs 16.411096908877266 14.042256411966534 16.92132658035465
Cs 18.184487374920792 18.773794568010935 17.341333938160513
Cs 17.35798436024235 4.808421963229178 17.581968181541374
Cs 14.695511525214116 9.24395586402215 17.183744654973342
