52
Energy = -37.74356698 eV
Cs 21.968545634839757 19.823202149330147 10.112081953813776
Cs 2.552314865536807 19.128578304089 12.671621928350534
Cs 0.4108982525592302 23.872451085909873 12.397213450456507
Cs 22.941828321232208 15.257785661858248 13.235783979305658
Cs 7.440163576048031 19.80354937587399 17.397613518031175
Cs 6.733765792494071 0.26832125340283836 19.70602532738474
Cs 19.127330133101957 23.604267523297203 12.678116026761314
Cs 2.2833783630572815 22.384037764762482 17.132994385885777
Cs 17.31383892715227 18.471474326320216 12.119636870153515
Cs 7.163801358401574 15.78293054182605 20.627576648832665
Cs 22.236717181641563 19.843316973374616 15.647450562795356
Cs 2.6993196831216606 16.83791512212693 17.42308603923804
Cs 8.080909189162472 20.61538444264621 22.94755766230972
Cs 22.63953678671795 13.629623982604452 18.602899745557828
Cs 18.468795509018896 15.269403859231215 15.914409146167579
Cs 21.888211803248954 1.453530308061484 16.533210614430725
Cs 1.5968600020326975 2.0087998801296085 20.504531071956855
Cs 3.2765393151887667 20.34836265185473 21.72934034064935
Cs 2.1855828429728392 14.569584079373309 22.494390053974314
Cs 16.463247010589832 1.6046841539501508 17.136333812620173
Cs 5.124439283566779 1.4861874507336459 0.2717092002883112
Cs 17.771923513907907 17.009173094072096 20.781179999848337
Cs 13.994254835431082 22.25108193131331 13.754535872010287
Cs 17.686482673308316 20.886965579824523 17.417367835761596
Cs 5.812310536444894 16.72863733943376 1.3434699925973315
Cs 13.337180776014415 17.814275356757555 16.850251667917668
Cs 21.71488307619171 22.813325139657998 20.582477281233533
Cs 22.92668015258264 18.215070987949474 20.72677460931719
Cs 0.3279475836090669 23.261641263146767 0.4740250538165164
Cs 12.127226935931603 22.92364071096692 18.790228295206564
Cs 23.729273834588003 4.3112449238733435 0.5427907668730657
Cs 21.12350352817988 14.820817315330714 0.1387576743677286
Cs 0.5617448157979271 18.182765781312565 1.774593916557327
Cs 19.56478804420934 2.9612984710154016 21.594160825517964
Cs 4.727447924259799 21.573873473124017 3.2278382791290254
Cs 16.0656659467509 15.922532140647172 1.3399103893369475
Cs 1.633548730858362 1.8720816350002012 4.8441108700949185
Cs 16.452766441918108 22.79555305772717 22.11937805926577
Cs 12.825474160155796 18.738484797331548 22.117992407195853
Cs 14.158194459381402 3.5088578170564215 21.464583609193227
Cs 19.84960863897541 20.121745245334115 0.6781204486240224
Cs 20.349859555657098 0.8046278688850664 2.7184379973397075
Cs 23.3356591473716 21.458811475096912 5.396176794912176
Cs 19.691513127353296 17.528490895833436 5.262116020627197
Cs 18.494675224687978 5.920695134264073 1.5061695544593918
Cs 11.184586388733273 0.008898440867844132 23.994621599734867
Cs 22.11628023386735 5.663597861025402 5.40620247663975
Cs 15.371612563683811 1.7730028983474295 2.144471957594941
Cs 14.829025485786426 20.79908886887079 2.535003871296256
Cs 21.847359773888243 1.4211786244620925 8.431931319381043
Cs 17.951617417595514 22.26083546988965 6.892332980779522
Cs 17.41423531284813 3.516158102676122 6.616478929435188
