53
Energy = -38.92720726 eV
Cs 15.710568570310036 6.89952239975187 17.898503996863486
Cs 16.40883614321974 2.742280689828606 14.730638354307592
Cs 13.073887470501123 2.0773208944983557 19.938857302490195
Cs 21.089850192619913 6.035508228475124 16.51513732685398
Cs 14.753775193947046 6.3542985454947605 -0.15117906882853577
Cs 19.770748788644564 7.522861384365103 21.62506164760637
Cs 11.577570850769538 18.715439343929436 18.824541897818314
Cs 17.49354227659827 20.924125584241416 12.37983613658376
Cs 10.799813419003874 21.63068614212156 0.08969026017498771
Cs 21.20862549059114 0.5655077351127058 15.708370157821252
Cs 18.327294069880022 2.614255628241534 19.938744974342725
Cs 16.257752829224316 21.33267998517566 17.501665369080385
Cs 22.569767940255172 19.81869854551006 11.585698633664677
Cs 15.85094148555742 16.24277902181615 15.534238409416078
Cs 14.183859946670989 2.196151528646418 2.7433465021506533
Cs 16.40191290076783 21.46603363890096 22.68399819816214
Cs 0.5417634804482514 4.237336195976039 20.913838838481453
Cs 3.1054567007233413 3.0180041215849074 16.534680086561487
Cs 18.201652720197124 7.434107550737349 3.8291086290573646
Cs 16.93534804954925 16.807491210810074 20.517849979694738
Cs 19.53043353295815 2.7792203202618273 1.7845492356497052
Cs 12.53731269759315 16.389071451732892 0.27983277378148247
Cs 19.679122469789444 15.416105053879424 12.123247333975803
Cs 20.782913316253143 18.417796075334433 16.812631970612475
Cs 14.720637599879106 20.36358557736011 4.262449662799466
Cs 1.909997626017063 1.3717460421420395 11.739911056578963
Cs 17.917607898494282 0.9688569522331631 6.889675613600468
Cs 0.3904894359375942 7.157026890906521 2.3390287853028395
Cs 22.024001048667742 4.261721441571469 6.610959059045241
Cs 4.7738817307735495 19.620601313187766 12.102388688601659
Cs 22.137039865046937 21.9922294442922 20.933512794639434
Cs 20.515303826948085 20.895071458087376 2.8668681742707727
Cs 1.650696466170346 15.560643981161197 14.026722179813202
Cs 2.47540971597334 20.769926132706452 16.66010780214431
Cs 17.623693523575444 16.119952444406735 3.008292276582385
Cs 1.5122839249439943 1.7743755728019972 2.447271764685829
Cs 21.60691023294569 16.488681454692784 22.86617053951938
Cs 4.402770315678537 0.39294452493894083 21.08367518021136
Cs 18.99883232350628 18.858264247474565 7.590750309288997
Cs 20.493969126273196 12.960021130763293 17.48690711287374
Cs 17.86861018009809 12.103675577246609 22.586651459345916
Cs 0.5324780781697527 22.148936506227976 6.990868626929719
Cs 7.587861289350067 22.025127589745257 16.944704405630404
Cs 2.075845316138204 16.267719037792926 19.432344362174607
Cs 2.54017766053775 19.782488037605578 1.5084683207710379
Cs 6.607245259355162 16.519295541973428 16.23186362598304
Cs 0.2622228537532607 16.804642144074652 5.4830136607050015
Cs 2.8803426220338753 11.421206585700807 16.930661623892984
Cs 6.605936595893244 18.580386332641222 21.22381621308423
Cs 21.47902063962794 12.112532315421197 3.4316041747093586
Cs 0.4288685870103656 11.167782296732893 21.61114177856555
Cs 3.2816793241962117 14.449148439615291 1.5318040806298394
Cs 6.469684734481756 13.334074944626199 20.51412442412554
