6
Energy = -3.00574266 eV
Cs 0.5670763431972621 17.483491550732523 12.335595664500255
Cs 14.174379939082232 14.702724251859369 12.094238021145419
Cs 16.508856595719582 17.463059937116036 0.699598908673207
Cs 9.850062166177706 13.285001364180244 14.106460783693755
Cs 0.6445970166179289 13.831637486639739 15.787173080535702
Cs 13.312630484942211 13.60527648869719 17.66094937699401
