6
Energy = -2.99740277 eV
Cs 0.7545112785030448 14.106458688830294 0.3799909090143235
Cs 3.0055704701165227 15.856136606632171 13.692175501916775
Cs 14.453153721103297 11.162258598928615 16.596585498926185
Cs 15.81114294059736 -0.10306023213168937 14.418186756781779
Cs 11.945950032792958 15.370070501869245 17.472718220443937
Cs 11.011836374252242 1.270186818114768 13.750278998845104
