6
Energy = -3.02941181 eV
Cs 12.156874262338889 0.42095829039474797 11.61738983599638
Cs 16.125626127877883 15.025052608866767 13.011548424284367
Cs 12.494626464751782 16.696415208565153 16.591572544226526
Cs 17.237683281383063 13.927024173947276 0.8989847400057097
Cs 16.394073460020486 1.4884646881992791 1.516839645384072
Cs 0.8625300344704029 10.697002980982306 14.403140660747566
