6
Energy = -3.06696124 eV
Cs 5.582652805370669 7.96443212880898 9.688231810588436
Cs 13.782938367885885 9.434469936896907 6.302707493084906
Cs 5.230739538226824 4.094960368182111 6.435633980083688
Cs 9.636657529971739 6.613474064860003 6.17615472909093
Cs 6.413236990390604 11.92316218797452 12.712717652991525
Cs 10.296217499299667 10.911946313277362 9.626999334160631
