6
Energy = -3.04990285 eV
Cs 0.9865613983831278 -0.2867214725114834 18.253320234813653
Cs 0.6473733794278681 16.46431326288635 13.112451215768706
Cs 17.61411827539001 14.566229354242251 1.8658915071633186
Cs 15.084950845591614 17.230964406226153 10.028049972459465
Cs 15.373207294739407 17.886756875529866 15.37978835587371
Cs 15.24962793425032 17.503875944324943 5.066294010021551
