6
Energy = -2.99257576 eV
Cs 1.3285945926130691 17.550231485010947 16.005563895961433
Cs 15.901273093477666 13.481296549153942 0.7599516602491356
Cs 15.543662424677397 13.498151520408724 12.357362087715504
Cs 11.871949355300405 13.026787319198831 15.66409832993199
Cs 15.52681724232372 0.6311611983462332 12.604351059780525
Cs 14.826965862913644 0.4637181793625073 0.42550604530744485
