7
Energy = -3.75567073 eV
Cs 2.7500258853871418 12.155368514735986 12.864490805823065
Cs 0.2662055509791612 13.157173077216191 0.2662460326658666
Cs 15.909262502836874 1.1934181773614905 1.0774838248035452
Cs 12.084071056703378 14.204229492340806 0.00466436857728968
Cs 13.5345763179925 0.7865300718064633 13.547760216859396
Cs 1.7533536059282866 0.12002481701558056 14.002089557402604
Cs 14.586492672828886 12.720541607170905 12.75002119395196
