7
Energy = -3.77051817 eV
Cs 15.876292541973662 0.31296852729680635 13.008748024298466
Cs 12.716476822884543 17.98993831539489 17.311788075822136
Cs 17.867372796085924 0.38863214443536687 17.832798018701816
Cs 0.7232645389346126 15.713095909238845 14.348713498585356
Cs 15.711500540017264 14.468910728699983 0.696155140674526
Cs 14.38487831532578 14.267904013124316 14.354187894207383
Cs 1.9803847690868652 15.263408473976812 0.6132591251441871
