7
Energy = -3.6233674 eV
Cs 16.38779453611848 0.5438352702245997 16.753552245049555
Cs -0.992749943036243 13.210356072899788 0.9596693476333104
Cs 12.25367188663169 1.6394903356616977 13.641016752617965
Cs 13.49544147406076 14.16720096316116 14.189470264120184
Cs 16.482973498694925 17.327708946665208 11.354610081145806
Cs 12.803181765853372 10.066315929287876 17.037225304124778
Cs 1.8155941737105965 14.557370349979765 14.502305252567972
