7
Energy = -3.69804165 eV
Cs 8.6694505 11.95852161591023 9.840126046419297
Cs 5.820210967314438 7.025181964476652 9.839903901626663
Cs 5.9480455183345775 10.239980508772522 5.772478512228754
Cs 8.6694505 5.527943344931158 5.77222097884667
Cs 11.390855481665422 10.239980508772522 5.772478512228754
Cs 11.518690032685559 7.025181964476652 9.839903901626663
Cs 8.6694505 8.669363592660758 13.849041647023073
