7
Energy = -3.65802222 eV
Cs 3.9032959601478736 16.375924444849836 15.708071509322503
Cs 0.04772007355792909 -0.5700112406115844 0.5855544569605725
Cs 15.834261050517163 17.40870631441691 14.492056555472177
Cs 13.46887375377105 12.963983051808276 13.5392801621304
Cs 0.2040711568178515 12.98914186728526 14.53913583851485
Cs 9.677939163337976 16.12089660143004 15.174498150133601
Cs 13.197070273481813 17.159492262810982 0.4852615440623278
