8
Energy = -4.35841707 eV
Cs 17.225360374182426 11.28322282385203 16.634637626962032
Cs 12.448833756399749 12.60624938153533 15.646875695742477
Cs 1.4797641439828317 14.024815544934615 2.5770732090082533
Cs -0.7560048937873257 13.763633296137156 12.219902643623206
Cs 16.25780864265286 16.69266742894744 -0.27872537842015493
Cs 12.366208335628063 15.624267345033973 11.498242132551098
Cs 16.145044488067636 1.0445042491141974 12.848262555598778
Cs 11.454677574775365 17.680359821970907 16.164714275223474
