8
Energy = -4.27609018 eV
Cs 1.0696137569102555 14.100446957989677 12.447167727524057
Cs 2.4445970522937985 17.008435349741195 15.890645209512599
Cs 14.051696776619071 12.764067859442529 12.12038226506878
Cs 16.072552160730968 13.390049286507805 17.380963047216092
Cs 16.979178759799794 1.0768866812929252 1.6320851352020247
Cs 11.022536813663297 14.312497420732619 15.453728035505332
Cs 14.915623558115097 0.48299050052530357 13.928476548728849
Cs 12.3733113877191 17.360642071989357 1.2953497760942287
