8
Energy = -4.55740286 eV
Cs 0.1283066956371247 14.215880370490899 11.823774781162452
Cs 1.0398038136989463 12.315472687061632 16.508340778369273
Cs -0.07841360996763794 2.130894653822231 11.668081696080783
Cs 13.61313811841333 11.68331874373057 14.093081661922227
Cs 9.886191730445224 14.56860213164144 16.47489984022276
Cs 14.448454981757264 14.891212827159448 1.5055772871466697
Cs 13.259080673286913 -0.1478433748270732 13.841251568229051
Cs 0.8055952101417612 0.3795057995862108 16.499914418313057
