8
Energy = -4.7042836 eV
Cs 11.46191588617759 11.572640640026494 11.598215999112444
Cs 12.14218435265459 6.438849802950545 12.014513451460763
Cs 6.6914128503355474 9.233412694278435 6.67104736979129
Cs 8.538435497819588 4.765762312295551 8.287316932490716
Cs 10.28155569773088 13.114394923069037 6.678988453166845
Cs 12.018211665324293 8.46472394394644 7.216542182673076
Cs 6.435547146797196 12.964210331416968 10.41306627660367
Cs 7.236860903160174 8.25212880648324 11.92643333470133
