8
Energy = -4.51766718 eV
Cs 9.27767308659371 11.39120987446704 9.644077504162182
Cs 13.071452390710762 7.977228470470002 10.305417530590447
Cs 5.009547736124011 8.520656234495647 7.953157707197206
Cs 7.3311005019738475 11.880217091742876 4.823556448692303
Cs 6.924056604977974 4.5872273647807456 5.3305609406663725
Cs 8.626619093380368 5.484683557206462 10.16902699647268
Cs 6.045162725988419 9.01703082380716 12.933471608008292
Cs 10.63723299467815 8.064587179748111 5.763575264211011
