8
Energy = -4.32891064 eV
Cs 17.195487440635425 2.681691907135514 1.7957607505856898
Cs 15.79813287079022 15.700843374405713 0.6389891335759583
Cs 16.937913878105235 10.839442710385097 17.177096340668754
Cs 16.95671670216955 1.4164134100346557 14.858796696427245
Cs 11.702072997008782 12.977090363839988 17.15333842799572
Cs 16.66001150682944 17.430387187635098 10.195709094680677
Cs 12.866617772184329 16.076518451466058 13.511766713084358
Cs 0.3895435883620144 13.884033033914017 13.508451630089631
