8
Energy = -4.33847035 eV
Cs 0.7420507484991107 14.313660122626697 15.331372175793028
Cs 3.2288845655048948 0.5384247027346889 14.185135273758942
Cs 11.341793496907036 8.751104522700574 0.7613506099582139
Cs 16.862338034603205 1.0652027304578775 16.526502163000412
Cs 13.522313805481582 14.563340098539316 14.960277754936733
Cs 15.73021460292726 10.805919819903066 -0.2925462951828654
Cs 13.547070697086522 5.159589918929384 -1.9389459321064872
Cs 13.581961790340827 1.026998560782133 12.71563884662868
