8
Energy = -4.59249771 eV
Cs 11.326776702239327 -0.13308583870578256 16.63685163330802
Cs 1.4321084235920658 16.614234968675152 13.891481270678222
Cs 12.888364908720442 13.12614394805072 15.863173748663007
Cs 17.674457036322494 11.84438106135033 17.195248209163953
Cs 16.131291275794098 17.029496428998403 17.77332984874161
Cs 14.72669246192183 17.645518444974396 12.612347121733187
Cs 16.526018436778163 12.746279900086872 12.21217044784725
Cs 2.6093176586710927 15.596919886172723 0.7591011382894394
