9
Energy = -5.02049999 eV
Cs 0.8988044361424167 0.19878369363650433 15.37993135501642
Cs 17.364027823387037 16.6866313084576 10.883466174291412
Cs 17.86703550683293 9.05919943890581 17.60817442434262
Cs 0.9007418662350615 4.337264244089645 0.37083263470870353
Cs 0.4533727260133138 13.30831747370285 14.614463902270005
Cs 15.675282125319294 0.5473479925183773 0.4526339522697506
Cs 14.871979127670805 13.392611585741415 17.538064707882874
Cs 13.688392120954369 17.461557257256082 14.065353015484721
Cs 11.069347054475521 16.66961131683822 0.0748615614199077
