9
Energy = -5.13107526 eV
Cs 4.996225028471235 15.465833699518482 16.24500555366127
Cs 1.537580443623773 16.56207138802493 1.6668296009022134
Cs 0.011626865669012809 -0.1365645911500395 15.219210721963048
Cs -0.018473843311187406 13.237223955120092 16.391865598356848
Cs 15.350307395042837 11.42228153391398 12.830993215033828
Cs 14.755964386831797 16.419555563308325 0.7799520878490293
Cs 13.006596841118753 15.603941382995036 14.281979537757127
Cs 13.774174583988748 2.0830946745505874 16.00797342457304
Cs 9.20209453269528 -0.4033574650998007 17.17561467418638
