9
Energy = -5.30764153 eV
Cs 5.084782273823335 16.97122662728468 16.93213111622301
Cs 1.1902489083601238 13.568608994391282 14.876508859452386
Cs 0.4075339527079484 16.09036410506619 0.9572535033403844
Cs 18.18442648768489 0.5075014873753814 14.788556071221924
Cs 14.867524470887645 12.404803483556087 -0.638078832624489
Cs 13.150717990726866 1.4379688767807839 13.568028927240146
Cs 13.700949432604613 -0.7751858538547628 18.123346653766035
Cs 14.730350892515753 14.884748643229134 13.279458773249928
Cs 9.793490504370748 14.895592903022427 16.16006593149123
