9
Energy = -5.05089535 eV
Cs 0.23965634677487213 2.6242915580259556 14.098299989153718
Cs 15.980156481856387 3.4963459581521286 18.215280017228302
Cs 2.1683653107249423 18.55757882202485 18.069937454803984
Cs 18.205196177984337 1.0570830652013674 3.452140656029971
Cs 14.208023810661713 0.5893161144074135 14.39745520441115
Cs 15.982430159793461 16.772557984623063 -0.015712233867457497
Cs 0.2482194499688573 16.079359818434842 14.069075902225729
Cs 14.06987396012162 14.08238689342578 14.880219021449589
Cs 17.99951001342363 10.841825089287997 14.516042235152181
