9
Energy = -5.2665066 eV
Cs -0.5343770048791393 9.660271185888554 16.68318698754233
Cs 14.071365301016922 13.424925925142535 1.179146075003369
Cs 0.6743239428900509 13.15583701551843 12.174505539501538
Cs 13.697255295681568 12.195538678968196 13.714547903283185
Cs 0.2634857090503056 15.757156580012097 16.478111271715484
Cs 10.928851568453727 15.921214227235323 15.619821572246456
Cs 14.290115498028431 1.415147025276822 0.033595106404527904
Cs 15.085247436227725 17.433890198874746 12.615698973453066
Cs -0.441909111957334 4.508660002325167 14.97291954776237
