9
Energy = -5.19177915 eV
Cs 1.250150952197421 14.925173908211294 18.218397142641813
Cs 15.460966331568692 14.229306501055646 16.97120745434904
Cs 19.022029890856757 15.1430130380277 13.265321943071749
Cs 2.8967410621323366 18.948159683754895 15.346417896369786
Cs 13.689364776619028 18.913089546555085 -0.16174080568517002
Cs 11.180525710841186 16.851864647138807 15.170383992009784
Cs 16.394759872869386 19.238934179764794 14.751898446984933
Cs 16.990614747234545 15.738749010584975 2.46005035141745
Cs 18.900466187334874 0.6778133072851302 19.202260653962757
