9
Energy = -5.10307457 eV
Cs 0.38020869681628044 -0.25636307568327454 0.13178827131117352
Cs -0.23926187926908601 16.365548870076818 12.366183214898337
Cs 2.481539752942549 13.090314737414412 15.15235812182386
Cs 15.570627928150722 11.948728369159522 0.5020341890452462
Cs 13.96426572920148 3.2507082134713707 0.5318131775531244
Cs 15.178372936634418 10.51540878654563 13.103676138249952
Cs 12.77740799011311 15.358256537832105 14.682998930997186
Cs 14.355570254434427 3.4419837637416117 13.000810930569951
Cs 13.029251064207237 15.889179666997968 2.4532174496037267
