45
Energy = -97.22527782 eV
Ag 8.82810849102883 11.765659918445138 14.594744878140057
Ag 10.97030328616829 10.863482912140157 16.31602329129641
Ag 8.84374235871382 9.186419831003558 15.563850149947774
Ag 7.148037947361962 9.82462141285944 13.084513257285396
Ag 10.813222746860381 13.710059513517619 15.336146306694966
Ag 8.948049443571714 7.539078699431557 13.294628858078823
Ag 11.349498223802112 8.856494293146438 14.311928184462033
Ag 7.161050896236319 12.637229904639907 12.384666745796915
Ag 8.442139179861465 14.56410116374425 14.227597381644735
Ag 13.152734065631334 12.6618375925293 16.463088598438766
Ag 8.636490749726388 8.183057840612442 10.60732650297678
Ag 9.8310198424952 13.089698222423005 12.232197835908085
Ag 7.454613253378504 10.773233301933173 10.323048139140125
Ag 10.091843806218007 11.411556772259837 9.76226388217449
Ag 9.69113223997836 10.189416803954032 12.311733029680733
Ag 13.867449113952867 8.709718410095448 12.842012847359296
Ag 8.360354489498745 13.659013643653722 9.848896901288096
Ag 13.74527734915783 10.236401904866662 15.237376364170615
Ag 11.254824430615892 7.670093315739218 11.7095781528031
Ag 13.362428371965684 14.019020686795642 13.97541605116956
Ag 11.125849982189607 15.484691499651078 13.047689491001039
Ag 8.619551431512406 15.72304391586242 11.7183084338588
Ag 11.772273726446326 11.626372702297578 13.718685745909438
Ag 8.550124024943111 9.28993264436897 8.067020507593632
Ag 8.254653262686459 11.964630794581172 7.641059433812481
Ag 11.10694278822238 8.815305317024741 9.009011901130881
Ag 15.559386728189397 12.491847278904348 15.116762749352139
Ag 16.25361980736342 9.941102541071189 13.963805688473974
Ag 13.54730923367611 7.97727060856797 10.071865030997833
Ag 12.437232842981599 13.045395877234759 11.294933329535818
Ag 12.284901818073493 10.269072029089415 11.238980604838714
Ag 13.606729319024524 15.472280846497068 11.411665511090836
Ag 12.695419644193967 11.694459112819787 8.850406283533186
Ag 15.004461006248938 10.357107557154588 10.052132564242765
Ag 10.897692655043285 15.211990424596362 10.208564172431519
Ag 15.847803092648222 14.055124867229031 12.755020383840053
Ag 14.45354136686323 11.566049329550122 12.644098036342726
Ag 10.778590851809541 10.741507658639994 6.935828980992507
Ag 13.522421797093878 9.440005374155023 7.571154197941211
Ag 17.02253975580986 11.611329109549052 11.638750901995314
Ag 15.11959870440526 13.173891846241734 10.224654681946566
Ag 13.178979107083249 14.440677397568972 8.662436067845736
Ag 15.160842332409034 11.921779145663102 7.665749554757239
Ag 12.81519965240694 12.737423731336223 6.320751779443797
Ag 10.577005150450729 13.54250261455412 7.88861697663425
