25
Energy = -50.37447460 eV
Ag 10.121973819207408 8.085626980821667 8.082105829964082
Ag 12.282474745057364 12.377494530968939 8.2507866014511
Ag 10.070946786930879 10.876113085799718 7.386195526936636
Ag 11.7800300808348 9.854610708684529 9.395076061551471
Ag 10.060850341275877 13.721675883830999 7.160169945910036
Ag 10.48828607095992 7.861655395827865 10.934733182127363
Ag 8.8746472773795 9.852506792619993 9.74685986532047
Ag 12.285792366038702 15.181294800924436 7.734392088487089
Ag 13.881165511987822 11.369123097404044 10.33908884242972
Ag 8.780621012568425 12.601881067578084 9.334509314767217
Ag 13.922797488500551 14.16094706114181 9.706853965062795
Ag 12.744193855544994 9.295968786711727 11.92148868681845
Ag 8.165659182443376 8.781202311175916 12.294774826095766
Ag 9.250053402177652 6.376987438590754 12.96250781688415
Ag 7.478127838597396 11.388567005248547 11.523364641327506
Ag 15.572512762588456 13.157445584164323 11.659820178432957
Ag 13.285094662724651 9.001197652863915 14.640825183071247
Ag 11.039258071395611 14.152192517371699 10.049278534738114
Ag 6.2766415753756 10.251393510273243 13.724600061307179
Ag 10.655866500093806 8.607849088377726 13.73147978801852
Ag 10.36876606040268 11.757041848432891 11.506078984687793
Ag 14.412297248400758 11.16196615684741 13.192163524397465
Ag 8.97598657378555 10.917465341355262 13.913328960851425
Ag 11.70675467253273 11.191314313934946 13.881271608784841
Ag 12.696893196279904 13.210878458100122 12.117790943138084
