51
Energy = -111.72692723 eV
Ag 17.280087950918738 9.859460115163222 8.677613344645327
Ag 17.230653964705972 12.46255359288896 9.669954364133858
Ag 17.035047070456688 10.280371464139932 11.458564467683749
Ag 17.101375427955507 15.148981647288403 10.712460089883622
Ag 16.44586000185922 12.925030599160824 12.382163952307293
Ag 14.88434058502064 15.286607818133831 12.56121243327812
Ag 15.714121528690708 10.696202185601292 13.955572341816893
Ag 15.786072612244611 8.18228694205844 12.821715163391373
Ag 14.55163551601018 13.245517328989138 14.483349269606666
Ag 14.241792561615151 11.117128511907781 16.34058462035799
Ag 15.151469324082663 8.663990925808001 10.030834711734933
Ag 14.848048811585732 11.273209353655654 8.538480205840537
Ag 14.822545091656782 13.810797761908903 10.079853823351636
Ag 14.686128400902602 16.616102221898025 10.088972726399795
Ag 14.265287414914532 11.206567347873738 11.462805888247697
Ag 12.585378133222239 13.427190514496935 12.353653747185618
Ag 12.757710849197407 17.1247870464932 12.156580349101413
Ag 13.830758564638414 8.654671747491234 14.87720847989408
Ag 13.147103356180418 8.585174980996428 12.048745507926641
Ag 12.778848769236733 11.031320448320157 13.904209591605953
Ag 13.632031095745404 13.802199941493459 7.576979928070274
Ag 12.734497951052166 15.396437597298524 14.451867532790716
Ag 12.066215451705114 12.961563913931741 15.823450389363982
Ag 11.54278131556755 10.134790807929628 16.286825104782622
Ag 12.761319732516716 6.983821460930304 9.621290252406208
Ag 10.893811012816228 17.501974913313926 14.391143164580464
Ag 11.065824877896866 8.746139136284123 13.846503799513442
Ag 12.591105537754874 9.652716651068765 9.38570209399487
Ag 12.237035137156473 15.215168319632152 10.05357896396162
Ag 10.08077294808231 14.86378018346067 15.41652071303117
Ag 12.47619556334602 12.389362551247777 9.662496962378112
Ag 9.369780924799526 12.043958194312928 16.096120497438793
Ag 12.190204565022963 11.255386430661538 7.135463493028091
Ag 10.4929939205367 15.554322316956048 12.455419273196043
Ag 10.55348836819011 8.155616019121535 10.987058313262485
Ag 11.071373478548438 10.846256029453208 11.726664625496129
Ag 8.96884813671593 9.282226512206256 15.586176160210035
Ag 10.032021188086386 12.74516075500526 13.499397710643432
Ag 10.780317074690807 13.718687477333686 7.9087927530068765
Ag 10.357733689639266 8.493543494270662 8.203864287990017
Ag 8.29055145762906 16.45044244666608 14.012925777976355
Ag 9.97379226703276 11.126507742738466 9.054468191744395
Ag 8.554147119451656 9.030040230183701 12.766623888343899
Ag 7.570620492677013 13.772834013000283 14.761893688119967
Ag 10.090321174369363 13.477312090838115 10.661611231388736
Ag 7.33087999316553 11.038278427279359 14.291430149211822
Ag 8.101011034394386 9.245893771363349 9.952995274319113
Ag 7.8980251228374465 14.444311105748467 12.072327999470154
Ag 8.18651386590944 11.634969403531406 11.429197103004913
Ag 5.832617423991059 12.705120374340092 12.684953360841003
Ag 6.0718365421198826 9.945937488938236 11.920412141459531
