53
Energy = -118.32354858 eV
Ag 9.885008678529609 11.617334956084015 5.442064678945725
Ag 11.846890469200321 9.675737191849446 6.280790757034657
Ag 13.765722682365402 7.76984917397866 7.379500595679715
Ag 8.955356949920246 9.170721295022744 6.669128036828051
Ag 12.349463053143127 12.531161305711375 6.606548429509046
Ag 7.00624305364796 14.289524387366113 6.642114197386961
Ag 10.9401183050329 7.230025645958101 7.655402229727085
Ag 14.331609837360245 10.607633002936703 7.6468950535537745
Ag 7.600180597528498 11.668404642281676 7.225237029769509
Ag 9.706909799197602 13.878341339028212 7.236035285952631
Ag 8.088236142825759 6.82235821662892 8.124478222901766
Ag 14.70379750029 13.438645133611148 8.016110644678763
Ag 10.317735616766265 11.243758528976855 8.132683888994274
Ag 12.278996770568686 9.311814039664212 9.099890683844597
Ag 6.739215860973734 9.307919170996541 8.662610892839632
Ag 12.152012925316136 14.788486773921527 8.46931453991877
Ag 15.48784659509903 11.497597077075135 10.143139643173573
Ag 14.974927528775657 8.65656341892291 9.824233984592786
Ag 9.414266467566659 8.825178246343901 9.46795984069197
Ag 12.758261929219355 12.195952989543652 9.459541053402027
Ag 12.883675505180468 6.607887532310028 9.859114475005375
Ag 7.440662589480818 14.039391204161001 9.30109225328884
Ag 5.569364863490856 11.886770882042997 9.25439515013343
Ag 9.539620558948185 15.950796070787389 9.148647946073083
Ag 8.15689804514345 11.374223704406766 10.084181834778569
Ag 10.270447885553443 13.536545418848913 10.154348827271987
Ag 10.770833467102637 10.881773949986627 10.860864518984984
Ag 9.972521905444074 6.126474682292082 10.230232830430596
Ag 8.390052795017386 14.99187089813054 11.729311151534894
Ag 7.3252910055199205 7.449418686635349 10.841002290465779
Ag 6.039332256224332 10.019364873254629 11.453591530883088
Ag 6.511108508159746 12.831404884772432 11.862726271270835
Ag 13.394244389438056 10.24591363868097 11.61070589230672
Ag 12.19194400384446 12.921513960918139 12.293302012125398
Ag 11.318355018201228 8.222860485470296 11.630771605132486
Ag 8.766760600267018 9.496737895240733 12.222997338687922
Ag 9.330105890178462 12.470107363366226 12.642861076833904
Ag 15.975429315036148 9.6319992205077 12.34757267808676
Ag 14.819464194239927 12.24332489841503 13.011228099099844
Ag 14.028567442669798 7.5110545288112 12.38027742672752
Ag 11.846347538282645 5.633382002427698 12.369097537733364
Ag 14.351799771693335 14.034084983231411 10.839728542706192
Ag 9.265066201004206 6.796274679252311 13.03040173283213
Ag 11.197545300091408 10.405907188457027 13.562229130834647
Ag 7.65108881630127 13.789137554367775 14.31683547297179
Ag 6.790727060584078 8.181922399491524 13.583987754874334
Ag 7.201547800274088 10.995846037774543 14.00738618041571
Ag 13.901495458455807 9.697345203902003 14.361869934472761
Ag 12.743101571816181 12.227102634668945 14.987477274008025
Ag 11.788862080533319 7.694146047398001 14.377642218418943
Ag 9.641631710268706 11.860735593653743 15.388949183460138
Ag 9.158267946924445 8.981017768098408 15.019959398495939
Ag 11.6259072744569 9.897526125489799 16.212400273383313
