32
Energy = -66.55845160 eV
Ag 16.470809154510867 12.376513814627437 15.682130735841925
Ag 10.320337268881941 10.229189526637157 13.6218516398167
Ag 6.923284866037534 13.835792337169638 9.127337629554926
Ag 9.774304120586011 15.597939233364784 12.409595307060433
Ag 13.052181665864017 7.1026724590915125 10.33661397668498
Ag 9.902439351259508 12.999486686451966 13.495195048550084
Ag 11.912435769896168 14.377200048318587 11.018707344107442
Ag 14.30055534815672 13.80816932564511 15.091448260214573
Ag 12.080486050954658 14.69797285556807 13.77245310506703
Ag 10.192594661391913 11.960350614148474 10.717156634337275
Ag 12.066445560770775 12.077635807523725 15.067351640794298
Ag 13.38654669331291 12.326917084160952 9.798702262620994
Ag 9.152632060575591 12.406835020454851 8.0926260401027
Ag 10.215395478937467 7.104647942800493 10.03547056776888
Ag 11.838939183390814 8.212559952837056 8.01222738639286
Ag 14.063032070552046 9.639608066995171 9.275667080078783
Ag 13.998633898709771 9.00195095781299 12.143181318017982
Ag 11.356921365924412 7.7980558019225485 12.63855093782297
Ag 12.75016136080084 9.30500764857635 14.593067291971474
Ag 7.788193360632997 11.195858102323244 12.98012013610114
Ag 9.351705545976067 9.599876676242426 8.758579133792775
Ag 11.69898089697664 11.011076021608794 8.006050916564353
Ag 7.476037357784167 11.251670005949338 10.20102538150349
Ag 14.349525062384128 13.631727949485121 12.241678859045507
Ag 11.583717947317927 9.555168866159375 10.509673509517253
Ag 15.463694675907481 11.164914668090205 11.226059446505428
Ag 11.58478258531411 13.795966447692189 8.262305851916496
Ag 9.441154606018516 14.772086824260256 9.719232569426289
Ag 14.730215893955823 11.211922208824149 13.956595894732452
Ag 12.435213518795528 11.561350642567819 12.32838898033291
Ag 8.892878075706724 9.0825278714118 11.511358160487772
Ag 7.8045326904218895 13.666116678984515 11.728365100974079
