35
Energy = -72.76598657 eV
Ag 13.525689719483768 16.693072546052345 12.165199040169504
Ag 9.916053485258075 13.83778236980554 11.853509132117848
Ag 11.252197900444628 12.214777645065695 14.700550056740274
Ag 14.325285959168903 16.205168989179306 14.809360340849944
Ag 10.213917155586502 14.467845324310137 15.949634338005387
Ag 9.05332465626535 9.846199164616277 10.093169092219279
Ag 15.755810527248418 13.735235230301788 15.496574479931345
Ag 11.152375633402572 9.807461977296457 8.149196629722752
Ag 16.170182115182545 9.699238162515044 9.915057177956987
Ag 13.054926890660962 13.927597365504676 15.855862603494206
Ag 12.488216202419185 12.052195677365138 12.187557502963799
Ag 12.010052726108766 9.693109466277406 13.804876394954789
Ag 14.358270376493525 14.054576250747704 13.075236313172487
Ag 12.761259617036158 7.332622033481997 12.596669071798162
Ag 9.074960079110868 15.796360218360478 13.696221795142133
Ag 8.592659673001068 12.752957780310936 14.201302224502385
Ag 13.296883776014491 13.174732691771073 8.565002177736954
Ag 7.432109834623907 14.760220104838314 15.654738743964327
Ag 6.964204289356766 14.321271401255048 12.655364256791561
Ag 14.184227986434848 11.568097955865335 14.477699351634673
Ag 11.796562861573534 15.22703528418712 13.753336737665657
Ag 14.46963723056867 8.638139576186704 14.513004572869995
Ag 17.934675108442917 10.183672492155525 7.944112047339709
Ag 10.722902360301894 16.551662341876064 11.53779625667309
Ag 11.708483603320595 9.345621372788761 10.85004264126675
Ag 14.90649662722293 12.46445187103036 10.859729030091145
Ag 14.402988050200916 9.880715865066753 12.080772255804526
Ag 9.922940381473792 8.121908118798059 12.441251574386504
Ag 15.82211425697777 11.892037437115826 8.231508260451376
Ag 10.927883730744876 12.084094766146064 9.851627207736556
Ag 9.886235848195067 10.949886132978163 12.518984592664776
Ag 14.002767076233464 7.884038403290488 10.111764549602452
Ag 13.569342045978528 10.553258495528267 9.266284960526496
Ag 7.802918733688514 12.145913998024554 11.179753055022715
Ag 12.487681514522068 14.484176731521872 10.837493279172921
