38
Energy = -80.72379397 eV
Ag 14.149157799955399 13.513045139794775 13.609607960973044
Ag 6.7196189290013475 12.147071062761036 10.438505511863621
Ag 11.628472651870334 9.864269140171192 10.151622414315852
Ag 13.64187395686688 8.302702747169702 8.947352507943107
Ag 10.80741230924518 9.7650084539857 15.89351817204839
Ag 8.858527593811536 13.060123924457464 8.89477535907743
Ag 11.6581458061058 6.787180816575403 10.41898157702387
Ag 9.374972847742745 11.61344611678655 14.395812981822196
Ag 16.094029691189785 12.392723844565591 11.822484923155569
Ag 8.064496091644179 13.35864588028821 12.686372601740633
Ag 9.42288210208065 8.301230746563974 11.332352232075126
Ag 11.223901547802487 7.117167187985343 13.222946735188637
Ag 7.767674345894132 10.438422660315439 12.365103693119398
Ag 13.454065878603128 8.40075396945545 11.903291386682511
Ag 12.775026783248975 11.938893832881773 11.705679636106469
Ag 13.309017367635818 11.136918360146714 8.12381167687712
Ag 14.673938049593138 10.593059465546995 13.3725977512408
Ag 11.18942001622629 9.928081643754933 12.99525044753256
Ag 15.520554459876337 15.075175867625298 11.629038869637416
Ag 11.077608830973737 13.655533233032708 13.351483574687197
Ag 9.990504211157386 11.871286735642736 11.271342380295987
Ag 13.119640924356373 8.734740468381696 14.687224345637272
Ag 14.771610697843515 10.382139383951767 10.426997399038642
Ag 8.46525739348882 10.198339284157413 9.52523045651849
Ag 12.125896129838571 9.029063318013398 6.687386281294293
Ag 8.938127474293749 8.654564969645183 14.113328471790371
Ag 14.452945965102687 13.183366168251096 9.688744785396862
Ag 12.486355029695293 11.670840326580551 14.82919935138462
Ag 10.104571192496861 8.189909938836434 8.453874032178014
Ag 10.484033882840208 11.061935160193357 7.756466306457528
Ag 11.674359152623303 13.219965980397813 9.158946579270953
Ag 7.170600747517976 14.866122830844434 10.418668405551962
Ag 9.97678851155363 14.80512241639531 10.83649800654391
Ag 12.743223838526522 14.87485060380718 11.209964586786588
Ag 12.095060516774534 6.396861445867606 7.630726068788253
Ag 8.312216091202776 16.12550101927778 12.626667874167794
Ag 11.033605985904432 16.39482367577035 12.952858253297494
Ag 13.738943701511221 16.247298540546883 13.411923528605078
