10
Energy = -642.0
W -2.660743 0.412179 -1.327905
W -0.590767 -0.888939 -1.631379
W -1.763671 -0.35488 0.82009
W -0.683746 1.717828 -0.700355
W 1.340217 0.68123 -1.748729
W -0.314805 1.445584 1.747072
W 2.001516 -1.194907 -0.207355
W -0.192832 -2.261226 0.409787
W 0.944538 -0.714844 2.006305
W 1.920295 1.157976 0.632469
