13
Energy = -639.0
W -1.27642 2.520189 -0.402307
W -2.26353 0.111268 -0.102636
W -1.933499 -2.357959 0.028992
W -1.473567 1.034912 -2.361385
W 0.03727 -0.859102 -1.049608
W 0.257554 -2.148889 1.289117
W 1.015124 2.78989 0.06686
W 0.003609 0.518706 1.253791
W -1.954508 -1.12718 2.066515
W 0.768023 1.721352 -2.142228
W 2.186065 0.535037 -0.285086
W 2.307392 -0.761708 1.84251
W 2.326485 -1.976517 -0.204534
