14
Energy = -638.0
W 2.063989 -1.930261 -1.407831
W 0.956349 -1.500043 1.24196
W 1.263643 0.824552 -1.683634
W 0.006071 -1.171386 -2.513043
W 2.927601 -0.284828 0.101597
W -0.943509 -0.215147 -0.249387
W 1.00089 1.194034 0.872588
W -1.366105 2.23993 0.71546
W 0.685312 3.201606 -0.662371
W -0.179681 -2.727243 -0.509765
W -1.024339 1.990509 -1.77296
W -0.843225 0.00297 2.706264
W -1.676693 -1.945431 1.798036
W -2.870303 0.320739 1.363087
