20
Energy = -208.19946553 Dir = /p/work1/plile1/GA_structures/W/20/all_candidates/3032/
W 10.109624840526916 11.217240461883527 5.80407575064669
W 8.418998293398454 9.662049167815477 7.0131286721534964
W 7.41596678788508 7.7494642262845845 5.771833103874017
W 10.781115459716743 9.406628079801116 8.06105488702833
W 9.396730381446229 12.287809727781417 7.790866391957384
W 8.872299843302743 7.064889004227025 7.845411019881194
W 11.979594771692081 11.445335279183736 7.193204035371684
W 5.78881099812702 8.788596798690257 7.132324585737686
W 6.885564109022453 10.614971542503609 8.673887740072663
W 6.20300292058705 6.457000949564218 7.7628996630279135
W 11.306854665964668 7.042019286085558 8.822642932627977
W 5.337872697964584 6.823543127713624 9.973825942699186
W 7.507789714386352 5.160942578903458 9.573438952656213
W 7.353887668770546 8.25649814772923 9.565867475467078
W 9.168296178548022 10.330983507731654 9.76530802392533
W 9.518211882271151 6.584631950376771 10.443651281762964
W 11.140536072724466 11.917391693627042 9.360778649942555
W 11.194868947317365 8.653721685929991 10.632833365663268
W 8.940664582999576 8.650717525030107 11.657513994786836
W 7.058542130178853 6.264798205968547 11.534686477547982
