20
Energy = -208.6737653 Dir = /p/work1/plile1/GA_structures/W/20/all_candidates/2805/
W 8.822600915215967 7.894394834814789 5.440749049788325
W 6.787000858703768 9.109662211552466 7.393871799805467
W 10.853001492273778 7.806617010252672 6.567895179518304
W 9.092225188437371 10.135929108749503 6.598931076220016
W 9.386276156399463 5.80071049852939 7.002332235545352
W 6.898084266473009 6.486466488179611 7.137866358024558
W 7.039170740223294 11.551966196977528 8.129481787734377
W 9.315706965449008 12.312960242921156 7.8634233578905866
W 8.923345740715366 7.954576777100804 8.348949127980761
W 10.949510702414468 10.049827837722708 8.244519356731708
W 9.956485417969258 5.557559877231698 9.514434188201962
W 5.299727309638776 7.573866392185754 8.81334435207499
W 7.23977423416615 9.360677679496806 9.939029958147133
W 7.384793237332243 5.675125516608341 9.267094371413862
W 8.096395286369669 11.767133728438493 10.267167066410465
W 11.199507824261312 7.742441244690159 9.465099437183763
W 9.757953735244085 9.4794921678161 10.571437847387324
W 10.55229729838414 11.833880020762072 9.92429375442247
W 8.730147054593063 7.129749523343483 11.0007648049902
W 6.171445760174307 7.232412827065562 10.96476507496696
