20
Energy = -208.7380746 Dir = /p/work1/plile1/GA_structures/W/20/all_candidates/3153/
W 8.06736059975406 9.499521123443694 5.570960077787146
W 7.9345384923057125 5.682993518885281 6.0350172291498945
W 8.070682203126681 8.068839633477783 7.885683486120901
W 9.512275488810541 7.500850467534994 5.664493807492601
W 8.02786033121973 10.874565622987488 7.842217463501754
W 10.24010569243278 10.05307989475496 6.714404214187381
W 6.666486840229256 5.798333119431239 8.181331090799352
W 9.471590616009067 5.760157101217687 7.990441494619672
W 5.706548931366967 10.081891865061289 7.06491336149569
W -4.623312027297438 8.50295035343367 9.852475321473335
W 11.124943944309234 7.889842658960245 7.718425796359555
W 6.36764953778514 7.6733631487682405 5.809109197176189
W 5.114890873486259 7.969650051575046 7.885812562521087
W 6.28263411216882 9.727535821958352 9.570102428294257
W 8.19809968619824 5.195690310021982 10.032027582109526
W 9.927643854842907 9.819676177725814 9.345464328655396
W 8.020068886946634 11.311148266596229 10.374340122238225
W 6.973674128418357 7.412351684306164 10.27423192815813
W 9.59235107160158 7.409584275693607 10.159919484986403
W 8.245550359678706 9.236467819048135 11.497121937754876
