20
Energy = -209.61807282 Dir = /p/work1/plile1/GA_structures/W/20/all_candidates/3222/
W 9.361776188736966 9.935924849921568 5.383428002540908
W 7.515194179735527 8.358050915728874 5.776869819004881
W 7.573645584826603 10.781508223117939 6.933540115313825
W 8.283710294677228 5.969185322174401 6.0199982404981345
W 9.966703414625915 7.851116203781101 6.693492810459849
W 6.416959441546475 6.651896547702178 7.550545666606726
W 10.007391500653878 10.311999764118507 7.870384748400281
W 12.23077949805704 8.947644641904404 8.034783180803045
W 8.023070268034935 8.580537974419826 8.386147824297025
W 10.641383328529816 7.751455433726241 9.389637061813017
W 8.804318938831752 5.959182832973051 8.466769913915481
W 6.548246530529144 10.554815569277558 9.434324486751708
W 8.43209601552689 12.1097052951598 8.88096068233306
W 5.855617453507185 7.985265416374851 9.820789407853868
W 11.809655149718198 10.090869143941312 10.071496041779254
W 10.764011121008954 8.626918787063996 11.623027074055527
W 6.725443156684514 5.618446580975435 9.814172155955317
W 8.968987372470606 10.076790333920385 10.398030871716534
W 8.27305226724132 7.473043417956769 10.815908356918651
W 6.794396272992305 9.362080723696812 11.632131516917939
