20
Energy = -208.23662585 Dir = /p/work1/plile1/GA_structures/W/20/all_candidates/3242/
W 6.107150135759931 8.79151782989813 5.478667531378073
W 8.242451683935716 9.690972925242114 6.279256199353437
W 7.655562463000705 6.890126109029216 5.4928382996985885
W 9.083071450313945 4.844234819920401 6.38593520321024
W 9.4432857974983 7.546626961365247 7.076887148325078
W 8.893250682292827 11.967697420126603 7.545025497888044
W 6.574022099387522 11.313118057174007 7.409769649113165
W 5.359261157559318 7.170666760585683 7.037034839997612
W 7.379884634683249 5.81720792301733 7.842548739577247
W 6.8896854253929 8.711106717700996 8.214961069957754
W 10.261544204564323 5.503433288620589 8.308459022009266
W 9.617932607254037 9.824046736358161 8.783130734141434
W 11.454740840856001 7.973442299467068 8.8329146695922
W 8.806749213578534 7.185465812976974 9.634547935545148
W 5.924579215667243 10.591787125333639 9.656137865932504
W 7.931595316490548 11.900789852949726 9.752897907433498
W 11.208564599470677 6.754676282845036 10.769946047621392
W 8.104534817969213 9.542845691907054 10.748607840236621
W 10.645276785342915 9.119168332080475 11.330764084050884
W 9.151268771354538 7.595480955774218 12.154081617310727
