20
Energy = -208.25827313 Dir = /p/work1/plile1/GA_structures/W/20/all_candidates/3043/
W 9.194123222001163 9.962350030339406 6.154086583822321
W 10.412479057079151 7.984236790369235 6.331075848190817
W 7.084319589089698 6.046582472858055 8.560364485837429
W 9.844707034629643 6.256964420446216 8.330321184815451
W 8.098899618468202 8.29177037408084 7.825923302137106
W 7.874431269109461 11.032540684230968 8.210151845384614
W 10.508450517998426 9.9284456303999 8.313440876020536
W 5.895139868517396 7.3975386160796655 6.730712141282929
W 5.728818087570603 9.508193498561646 8.236668715440231
W 11.987703447610164 7.874455269424543 8.185763906705263
W 11.578697080991043 11.972164449418912 9.331145728221362
W 6.633431045179249 10.814604581294933 10.229969618462933
W 4.716863696393641 7.1166002150502665 8.668344886353937
W 9.357492838959683 11.807390105080044 10.21853019650262
W 8.829585753312818 6.431920937786745 10.421653179147663
W 12.804520387263523 10.009378760899505 9.94305818839919
W 8.8084478535103 9.293679479628857 10.292482968609834
W 10.963780939801492 7.916617227314451 10.401231524414188
W 6.5658033491074965 8.047382663218128 10.13782068437647
W 11.10490426565164 10.299782715762616 11.469853058120181
