20
Energy = -208.5997725 Dir = /p/work1/plile1/GA_structures/W/20/all_candidates/3276/
W 9.417532956710904 8.625667505588984 9.511295489659597
W 9.548246841855088 8.598197431408355 5.264699824258381
W 6.8194274678838225 8.850510500356052 9.898292519440286
W 10.193691411414814 6.202023449982175 5.570993904423102
W 5.947069075150021 8.098875048747463 7.530582881228535
W 7.861877293939407 6.198709274552974 9.824169340927543
W 5.111586909179404 6.5374002030838065 9.595814410522767
W 9.370993895563712 5.178316541611061 7.597629569861887
W 6.220287364160508 7.014374904000417 11.50554054723623
W 8.369849991369769 7.5369204480953 7.305891189537472
W 9.418654768071715 11.465576850563505 9.416627892105073
W 7.06720071549261 11.457179100647764 10.027098277451783
W 6.620551768238065 5.5067640573226795 7.905945400980502
W 8.637094344903678 10.20695590446494 11.333872809346596
W 11.2196091752596 7.309312214562967 7.350297425970165
W 8.280914967188457 10.885528007556893 5.505822345570712
W 10.429216936357054 6.250375914244343 9.494779923959673
W 7.027444670318021 8.942928424462004 5.278788216817307
W 7.483240664965163 10.306597965216497 7.736243441828659
W 10.019971082661968 9.892248554214879 7.410076889557279
