20
Energy = -208.26384477 Dir = /p/work1/plile1/GA_structures/W/20/all_candidates/3288/
W 6.448793773495378 8.437602935370297 5.235256329412199
W 8.762840090236116 9.180806242634281 5.533842731794837
W 10.395592737945845 7.247750289754141 5.740965558461294
W 6.108314986196636 8.70170418217744 7.71996410923768
W 9.348865374226813 11.317066420346887 7.861136537079594
W 7.864930243780049 6.974814155525152 6.735159031978395
W 7.24046817494331 10.847747392561837 6.648951600296726
W 11.079385115364984 9.092712823873962 7.010174611071193
W 8.635441283922425 8.995098359377126 8.2643224751626
W 10.194271522837989 6.678454639156458 8.102577748148065
W 8.253045061343899 5.271584784228299 8.896502344596428
W 6.359893000888116 6.568005086210067 9.17567731529526
W 10.78114555803364 8.7652222899206 9.68938888250387
W 6.661763002863797 11.063673894238624 8.975627113712003
W 8.845197241664323 7.104141626381371 10.495879715117725
W 7.0677901382790225 8.851937921338203 10.362118044312233
W 8.861450087931779 10.839484769596375 10.302898519869782
W 10.729043315304393 7.805652447115926 12.088285188989726
W 10.76896544704464 10.306867029527211 11.895649600149989
W 8.826086056697282 9.182954923666806 12.498904755811276
