20
Energy = -207.87828855 Dir = /p/work1/plile1/GA_structures/W/20/all_candidates/3139/
W 9.12014134551777 8.911682464320428 5.777086531028923
W 7.092086658366054 7.592175145892283 5.184905923017411
W 8.700648392224144 11.049422111919737 6.809532675403943
W 6.552258227749117 9.379955246841273 6.533444599295915
W 10.719645823741134 8.990576718367237 7.895293150068513
W 8.61124051367933 6.781332041191602 7.282768912512186
W 6.219399998175746 7.202503227409075 7.759737364593479
W 11.145824078614824 11.213288866276079 7.026835870638337
W 8.169454014352826 8.968747087204331 8.700524436684498
W 9.463629824005555 4.987810268676461 8.797988677966133
W 9.33565620441623 11.298587589026889 9.217177566562738
W 11.81643757455241 11.015221088037173 9.437841483980376
W 5.974753472912249 8.695494129587182 9.843628123258826
W 7.46174111167492 5.787581400920883 9.61260186267777
W 9.82605927090082 7.19740398956221 9.822918457848717
W 12.125442775244787 8.66364489058292 9.92862945532329
W 7.3130019319878485 10.647592182549332 10.897500136568045
W 9.969485028526845 9.614968017499057 10.999684392379056
W 7.781112680625729 7.88323814989016 11.317148738491287
W 8.272294825893464 9.789089137407405 12.825065394861886
