20
Energy = -208.85351558 Dir = /p/work1/plile1/GA_structures/W/20/all_candidates/3409/
W 7.181737830476384 7.2043823076020015 4.847241335825094
W 9.260989398195562 8.189424381124148 5.982948799703379
W 6.118034139592692 5.759232340927866 6.337614132717454
W 7.1134664838988115 9.714883151218373 5.906771798457451
W 9.094926750102374 10.8340714209342 6.688218719942009
W 10.922411975896571 6.714329076884338 7.71253270791666
W 8.610530566468496 5.957678860392944 6.897959748539826
W 5.5831685312949855 8.101430848183673 7.023865914093722
W 10.719884610486941 9.271982264824986 7.899469245386525
W 8.177653502402228 8.492036944456938 8.356450506909466
W 6.554801073183583 10.51509880998975 8.256696528221143
W 5.500431389668995 8.7178170481985 9.421207771214261
W 6.700562663865913 6.35550720368655 8.79175310222958
W 8.997516977175287 10.893660385312886 9.380018560046045
W 10.525043544284483 7.564272148286806 10.00833897584658
W 9.087876362839824 5.493071530249999 9.37956652510452
W 11.254854859417959 10.10270512200443 10.240019397206277
W 7.39163997478284 9.833201601154974 10.881960106650977
W 8.10668901923304 7.3776639590510955 10.745347953680698
W 9.635036074498098 9.44480632328059 11.779273898073514
