20
Energy = -207.99294263 Dir = /p/work1/plile1/GA_structures/W/20/all_candidates/2894/
W 6.109111118404887 7.691561954741748 8.224508722693022
W 8.331686887997808 8.433489575451656 6.795780020001641
W 9.920268802421454 7.6559933431525256 11.275110736348182
W 8.11507805117474 11.33808480359709 10.46143654732056
W 5.979371459731245 10.25581618728014 9.003387722451015
W 10.277342588731592 10.15171358006267 10.894452636307093
W 10.196045060517326 7.139380642926676 8.477025135912106
W 8.299681585869093 8.900773820961264 9.496841628408752
W 8.250662666118744 11.07944595308664 7.7861180159721135
W 6.139706830317035 9.883272556404393 6.776198993009
W 9.70750935730047 10.312395284762308 5.808232395152953
W 9.671386396586906 6.3916941714676625 6.086359012872786
W 9.991923881193507 12.126119103067104 9.2810614583733
W 11.839676578130124 8.22459885410262 10.069977733641329
W 5.671918116364016 5.248082156430797 9.0922285376925
W 10.631917474641497 9.768850608972995 8.313695832407973
W 8.149664877184456 6.242073303113571 9.870838164692989
W 7.7030734182058165 5.724785024552586 7.529356158856564
W 11.055387333369245 8.419615391756588 6.115194511266424
W 5.895927794513126 6.949593962882045 10.579536315393385
