25
Energy = -264.073775 Dir = /p/work1/plile1/GA_structures/W/25/all_candidates/2059/
W 10.047594423626375 8.091161753728588 7.1660896908904395
W 10.152441727728709 10.902763768497293 6.827589081186786
W 12.284984135828001 9.183768866844034 7.462836547862734
W 8.297103523066724 10.082387361838828 8.429452771873759
W 8.629417848501792 7.600810916817288 9.11653450242669
W 9.308370482603085 12.469809005333179 8.798347170361032
W 11.947517698235375 11.81165804227626 7.884303361559936
W 13.771927566922006 7.8482801486467855 8.959236769793115
W 13.419829191055136 10.35960167502513 9.727866184522831
W 6.476278710600195 12.081770509227173 9.02144595166835
W 11.503204301152948 7.0182134339356805 9.019141747868229
W 10.686643744313475 9.624895081619341 9.474273268284609
W 7.716063653912694 13.532026029757706 10.506184392943318
W 4.778276037729005 11.033122462073067 10.367718145177898
W 9.995547659999277 7.544363662354636 11.248206452806457
W 11.482622725584482 11.89109857629368 10.461170996045828
W 6.787177393134068 9.508945745621157 10.416054933171226
W 12.677457725461503 8.400390582385395 11.22905549729496
W 7.554086865072501 7.305914494310566 11.463763596516038
W 6.333184158694171 11.983046600056543 11.77070298575557
W 14.726968945346844 9.746480579834701 11.708338226873664
W 10.729834158612139 9.78325993320099 12.187213464025533
W 8.778984472812349 11.178612600491542 10.927247691167931
W 13.0204199274023 11.035917623054056 12.470868236210826
W 8.203282862253197 9.290920486424875 12.665578273360858
