25
Energy = -264.72746169 Dir = /p/work1/plile1/GA_structures/W/25/all_candidates/1194/
W 9.620172490634229 11.027959177224963 5.303364403266031
W 11.258214437060655 6.6299190292467225 6.562439525950612
W 9.468636369948255 8.637921407411367 5.088270391941603
W 7.024129696607731 8.858210611738158 5.903588894847899
W 11.260377162933457 9.15821146069422 6.6738476597317336
W 8.442417093597577 10.324600618465032 7.364213215527789
W 4.900458811913241 8.352260204438025 7.151279408273828
W 10.931875128329652 11.53703293604142 7.407908976598597
W 6.715658211495577 6.654701431029813 6.946386732834932
W 9.11035977776061 7.681819104858793 7.572920150604245
W 11.958202647494097 7.287795299932281 8.678859651305423
W 6.048418855016607 10.14659749434544 8.291298751829954
W 10.230561640826858 5.571638170497069 8.809245489968177
W 5.746496736841457 7.833051473775226 9.468791627620812
W 7.695262747834547 6.28801433444018 9.283084993350833
W 9.227935327592876 11.703396803308124 9.43427416666681
W 10.71755995131586 9.690984597834388 9.28431457352827
W 8.010922516664696 9.165601885079864 9.830564238439914
W 9.885327274234239 7.400382870674747 10.544273335363002
W 6.170248320926524 9.051713904441511 11.660835857711442
W 7.548739004887149 7.1375453243027485 11.84771369482721
W 7.948255638735023 11.036382499086757 11.678035013029895
W 10.408505383310718 11.307991808395512 11.617130592634876
W 11.377770747552685 9.10729939177841 11.696088906809008
W 8.97488990038831 9.090364034861958 12.58266562123907
