25
Energy = -264.19977562 Dir = /p/work1/plile1/GA_structures/W/25/all_candidates/1601/
W 11.119371738464878 9.130427850316858 6.000414725505183
W 9.323268557929765 7.671616194704819 5.624266919473743
W 8.67299556993764 9.713279043871296 7.173025409438786
W 7.813791416912815 11.72752653511025 5.887587185989284
W 6.15232300885636 9.590594224149774 6.70334175457671
W 12.572789795383056 8.424368614805811 7.745832520942007
W 10.886065241933604 10.208309442128565 8.542874163214924
W 10.362110365077712 7.185585874691186 7.848848850837882
W 7.4847488607714014 7.2885405321712415 7.4197736084173
W 9.345281234312285 12.267913159556516 7.865429235767769
W 6.541683167289501 11.751262657999584 7.778692269315414
W 6.404093234252563 9.209124217986687 9.191313786323336
W 5.547750984734814 6.9112502602775 8.844168670797043
W 11.77806248409583 8.268344579472005 10.233915387824995
W 8.285043384268558 11.064360379571793 9.821560413106148
W 8.959722567568152 8.388193896277704 9.698661513748773
W 8.160378497970047 5.826956959531979 9.338477462866534
W 10.554188490617518 12.368916955975312 10.152002797806077
W 12.287946340782328 10.792666548152273 10.56018139829166
W 10.129689852933994 6.329923935725396 10.964980247302654
W 7.338852742862694 9.722400128693637 11.714163084335867
W 6.821087981284887 7.12659870215895 10.940731714739755
W 10.08881167580187 10.001209415791388 11.578514857785029
W 11.261327287875204 7.963209888086399 12.602946291879782
W 8.784022368547818 7.742826853258056 12.443702580178321
