25
Energy = -263.68552438 Dir = /p/work1/plile1/GA_structures/W/25/all_candidates/1532/
W 11.455731933553036 8.510934099625075 5.392463224447629
W 7.3677536236860846 9.412617134262973 5.611357607964459
W 9.089325095524273 7.611250746562197 5.69785525154637
W 9.657727431505942 9.907464387901934 6.7467294790369206
W 11.344011463590402 6.424728892343735 6.592639065920401
W 7.212047047431261 11.21195815745411 7.376384809508817
W 9.315295799592159 12.235891867658347 7.864556400132123
W 11.876305126820611 8.915544029158717 7.787899716540201
W 7.327408152915224 8.381751455841982 7.853894308805837
W 9.760252995152694 7.500614798244358 8.256810803064761
W 5.052427119321556 9.312949956160585 7.912336611578544
W 12.58118425937132 6.668999902999834 8.773291834076378
W 5.418583463803897 7.568033833754228 9.516937768651369
W 10.512298382720394 5.686970908316903 9.766148049111926
W 9.259999354290056 10.165696898131909 9.49457891572396
W 11.367060701393056 8.209039068362694 10.312610561113951
W 6.4269966627588735 10.087677793014144 9.809712471470629
W 7.786264569549659 12.319218568201126 9.82419739694236
W 8.29813245678554 7.875572021949327 10.663975927549396
W 11.394263760158413 10.703549333687812 10.804752392910483
W 6.061298607932696 8.37905048961052 11.695984308116952
W 10.1233864655371 6.832817738268946 11.992017793503683
W 9.438484049894209 12.046671895677669 11.62038512955637
W 7.716903195700224 10.422575913584101 12.087207320571245
W 9.952978118143792 9.404539946358366 12.34139268928732
