25
Energy = -264.67328419 Dir = /p/work1/plile1/GA_structures/W/25/all_candidates/1565/
W 9.041328627193982 8.469804045610507 5.723077961475799
W 8.19194025838021 6.573881824586541 6.651188450873769
W 11.143559446761126 6.806359397919226 6.621538469431039
W 8.273770877849566 10.646802318449762 6.982130036667161
W 13.045418148363987 8.213067358858947 7.297521037661021
W 10.833505029942216 9.54522967304685 7.445708586120395
W 7.034137755436179 8.541885089066968 7.8240290179298135
W 10.286100295214933 12.032937246569459 7.76930772785051
W 10.765948698691485 5.331487575911467 8.570124959569696
W 9.515495522141771 7.54095250844392 8.542111552461506
W 12.919410812726463 6.281149546191881 8.678789327867992
W 6.407779810534869 11.295482484999406 8.755999789137855
W 8.319906851066333 12.75000272876334 9.337730985227614
W 4.884193537582815 9.21118694657569 9.081319575358718
W 8.838429817452761 10.090238176320144 9.445668613082862
W 12.036730868631837 8.795940988851136 9.604539613174042
W 10.985748447800217 11.260363404538767 9.959963346258737
W 5.892271758062308 7.491630774055266 10.031933336850134
W 6.54952398834154 12.527886587451007 10.976997250631564
W 10.995212422081705 6.8703327100581175 10.60690769683437
W 8.347695830455589 7.895232372253889 10.880410674010449
W 6.668262067611855 9.939104973656558 11.05319874327063
W 8.712243713798115 11.491230203839951 11.746753380272025
W 10.35467259602201 9.351731245722991 11.730730086561929
W 8.271980855702276 9.36134785610433 12.997587819266759
