30
Energy = -322.17345811 Dir = /p/work1/plile1/GA_structures/W/30/all_candidates/434/
W 9.493973389533487 9.464331819452406 6.037352942907087
W 11.857889262216148 10.08435602994061 5.338565792372879
W 7.317102947627562 7.937284397322863 5.79284163592195
W 8.586461922158215 11.203487300514894 7.925325079460428
W 11.249132579741667 11.32383463209352 7.313593735640434
W 6.3603112066884195 10.052078491075815 6.721974034804461
W 11.868612187444748 7.8823289780056465 6.501573088585017
W 9.285608598034038 6.9298237029769405 6.753063892851453
W 13.097837528366155 9.774258193220236 7.750934218202884
W 10.615809112993286 8.906724781444256 8.495727047648398
W 7.084371807577154 6.142513890908723 8.043006297526642
W 5.391314839769246 8.232369144538566 8.25156074321414
W 7.869534144758767 8.716409694499687 8.376880430814131
W 6.173635390481248 12.163103212058777 8.075278517590714
W 13.103965541228032 7.627361395873332 9.368790991066481
W 11.384299115250808 6.285224191904397 8.38490247623851
W 4.823874177123672 10.489652452721188 9.095454717384339
W 9.069955001590285 6.588389271683083 9.589785083382743
W 6.201128078819767 6.440364878037574 10.237522297458401
W 10.355192039080679 11.634757802813787 9.87110480777979
W 7.366454149100462 11.333405356131358 10.187923589580686
W 12.289577396941935 9.942545940967781 10.19958686009115
W 9.211498071849087 9.45154313896024 10.689397989091452
W 6.3006269690073635 9.070567090040479 10.679518710718003
W 11.029219294358168 7.65769026452867 11.019939165616432
W 9.08426717813074 12.034912440792475 12.048815606330454
W 8.017153038043112 7.249584477074697 11.767155406331156
W 10.849468694057183 10.29580253519314 12.463125642762307
W 7.9703377384204375 9.934815475033679 12.81758198155245
W 9.775022558483009 8.23411297906596 13.285351175950007
