30
Energy = -318.99100002 Dir = /p/work1/plile1/GA_structures/W/30/all_candidates/950/
W 9.85184135432229 10.987181981072048 5.139332729836796
W 9.427321966773292 12.88330034622108 6.536668851030575
W 8.365699586381918 8.953306142164642 5.5446050188110885
W 9.456254472639566 7.168046478137459 6.8928618788121785
W 5.726744888628084 9.144233557206002 6.127294582414839
W 7.5532012027402375 10.987444696404475 6.718091951799033
W 11.08259889909293 9.17224627368906 6.3219175943153045
W 10.95244733039686 11.1856060736981 7.733335697415384
W 6.912641900287545 7.452318087096521 7.614161517012097
W 9.066203091655868 9.289148685592767 8.449387521140304
W 10.650639679484208 5.411108765817552 8.096187281131225
W 8.185855023130316 5.383184052959395 8.6515036981178
W 4.349141138427475 8.662272873454363 8.001940144452854
W 11.415985389335367 7.832393976604317 8.805107708866661
W 6.366710033750216 9.95717766952701 8.845330721398245
W 13.028890948093718 9.92156746186454 8.282109997280505
W 5.4206148960127205 7.325677081704037 9.644927116290186
W 8.490651467116221 11.997912012394421 8.752435168452193
W 9.987118886070943 5.70786323960592 10.392361451788506
W 13.047617292630008 9.123436674600901 10.56592031346948
W 8.33706101529559 10.349258578863596 10.909736366645566
W 6.452641016491387 11.853630342450316 10.39486568131758
W 12.179462076480302 6.761344820641553 11.059948213449555
W 11.043897204512406 10.582111874111225 10.306426425529713
W 7.857481562340885 7.479755023616338 10.275484487211862
W 10.202462184514157 8.279951823914796 11.150082270173847
W 6.07965204973627 9.25683015490294 11.441604717133517
W 11.82181272462835 9.261710608736703 12.7884118090095
W 9.778722591041422 10.393588882006043 12.950345222375836
W 8.011957056905445 8.33972068985768 12.710942792233713
