30
Energy = -320.38198083 Dir = /p/work1/plile1/GA_structures/W/30/all_candidates/84/
W 8.539411291989548 7.148100383370205 10.113531156942283
W 10.657936837391526 11.518286875255177 4.823972004654363
W 6.747437610379776 5.798971889447763 11.179175691702268
W 10.756547725012224 7.981586858550813 5.346675530130237
W 11.551828085861642 10.43646597937105 10.025133346024782
W 12.40518695072579 9.666339163116874 5.6687880929500665
W 10.570888277158437 13.380600187070844 6.292851546890929
W 9.30065980886109 9.629021100538784 11.75524643168097
W 9.045817491988815 4.862617284289817 11.712139625736112
W 8.000514888623094 5.577955009549911 13.598611479201127
W 7.639890468005678 5.632067234681643 8.353347559023605
W 9.846856419432633 7.207417935634138 7.596278513398227
W 8.374655966285037 12.153667366029751 5.835296083202883
W 11.567672192258074 11.376842776471335 7.391863093327294
W 5.805067576900656 6.951021718885827 8.945115635262816
W 9.313743888248847 9.664827701270418 9.13096770793879
W 6.959224063614266 10.888848970514552 7.8976457488532565
W 7.255720349681383 7.804330788277856 12.595484550777178
W 9.317154203087176 12.144442574955887 8.335992211092282
W 6.97896093466235 10.04115374495086 5.720897183878521
W 6.74462750592945 9.030742050355027 10.286939116678342
W 7.011003643697655 10.3561689666546 12.549003419783318
W 11.75761139179972 8.73231334625246 7.88829797925131
W 9.923312036130957 7.033887652191793 12.466415721926444
W 9.497647559614261 9.866492343085028 6.410671122951645
W 11.771118031602313 9.067700226589013 12.158462931443692
W 9.88850396425171 12.040024263942056 10.966680381052338
W 11.196590507847679 7.64436941674615 10.31559641612544
W 7.594532330845376 11.568110866636614 10.490714459252292
W 7.441007469284762 8.256754796485595 7.609334730039119
