30
Energy = -321.51472375 Dir = /p/work1/plile1/GA_structures/W/30/all_candidates/771/
W 11.181554212150008 9.496654774873026 5.913231962453134
W 6.40923928729135 11.183434346534453 6.310978137998172
W 8.924377191193226 11.096313496286955 6.31043271053247
W 9.01909328779064 8.597316000698838 6.058325173689909
W 7.498134917013588 13.151118744020438 7.099864118908363
W 8.750769077550371 7.264283589812548 8.340057323197799
W 12.936065427687769 8.264596834766277 8.793960894631354
W 11.21727886354308 7.319163284971144 7.218689875034863
W 11.456518306491473 11.744787752220386 7.354298295997063
W 7.730962930551956 9.725361905738142 8.391726103986835
W 10.143634736576791 5.199816825606857 8.288183717184657
W 10.606320554714754 9.533375622910206 8.532874792803392
W 9.142177677740724 12.017294100760791 8.804918179352159
W 6.2986790412729725 12.117225857881035 8.949314000890418
W 11.848669094726187 6.767591854387788 12.427353440053546
W 5.286062028006549 10.072056016577246 8.1932139665049
W 6.239322789862387 9.601575745424498 10.67210800902482
W 12.757066036946977 10.848554373109115 9.26465396432682
W 11.43536192439178 13.040621168435912 9.38509657741633
W 8.721301129296194 5.123645669186289 10.19168746324164
W 7.837434098355847 11.384861786195815 11.120422610842091
W 7.29710538606787 7.250057834936701 10.428802730086987
W 10.961889115574946 6.87244030022793 10.043662375157748
W 9.142877767770278 8.994385956212696 10.791611387866453
W 12.159676142505978 8.932314601395419 11.167270839513131
W 10.650983075278806 11.181404607437093 10.934761115617919
W 7.522883920620979 9.018905509084354 12.80559348109674
W 9.350334009495604 6.708082930141899 12.119854675997253
W 9.115613926486652 10.847101896406361 13.136280689900712
W 10.528063496620105 8.815106067336101 13.120220840269281
