30
Energy = -321.63485816 Dir = /p/work1/plile1/GA_structures/W/30/all_candidates/830/
W 7.954825135773221 8.08919576267196 4.932019762485144
W 11.806960266852768 6.990118999756867 6.190041946766904
W 6.835246971115084 6.7817168838637 6.547898896919208
W 10.369127227741178 9.02406615032669 5.696802817201089
W 9.256837007037028 11.224524146837442 5.508073477549402
W 5.423439788284129 8.643537237039126 7.489337437434083
W 9.317876509922801 6.539654065712394 6.684455242098661
W 12.554868944238988 8.908408013575375 7.731024372108097
W 10.552419284424085 10.931195352603723 7.657643096244576
W 7.935441881750574 9.497760426064795 6.97612889404582
W 11.657703581381352 6.213626853913143 8.530653697752516
W 6.159774209935125 10.606714219105365 8.768222233551597
W 7.594652455787232 7.622857090829203 9.009114389450948
W 8.188330227501426 12.135157328800945 7.635194515635513
W 10.253682792020035 8.305697600013296 8.29335140778671
W 9.886266128931855 12.509760495492978 9.76927694448681
W 8.65329185999892 10.157888971064255 9.770895429345867
W 12.603643776087818 7.977578630926694 10.076893694428167
W 9.16925079542835 5.513176350357317 9.179420950385449
W 11.334954634899853 10.111512039523204 10.216723628961102
W 7.336656402560707 12.657160575420178 9.851119224378511
W 10.090099899934136 7.499438329440644 10.716794835761672
W 6.788700679151403 5.677997912636278 10.395816968698558
W 6.401655449185368 9.959533826433253 11.156738946916091
W 5.24847767618586 8.124001676210005 9.937484164614288
W 10.794763929627464 11.955203988185493 11.972484909959713
W 7.686543187091672 7.861078548403895 11.705858461387951
W 8.389144492324112 11.771768791971851 12.070375603935483
W 8.683882284449632 5.527768857013351 11.706042639299929
W 9.532609297301356 9.643027652729801 12.285238187333384
