40
Energy = -85.88282012 eV
Ag 8.45017268622601 12.886324478205678 10.137361937379467
Ag 11.883303343024227 16.342288347417472 13.04614241923281
Ag 9.955315604965802 14.914017965055661 11.537141463349617
Ag 6.227070582589193 11.71011010663203 11.48870950186313
Ag 8.363514444913063 13.111856559407663 12.964405616237208
Ag 12.495859632308882 15.646294807987616 10.394933024683496
Ag 7.335282444073356 10.277560343826464 9.278965412885041
Ag 10.204416087844892 14.625750153935247 14.492111012712257
Ag 10.075770863860209 10.746013105153411 9.11815381862613
Ag 11.00277234874673 13.454686315333205 9.375181551085417
Ag 13.309651459083296 14.32277666954648 8.011407151922326
Ag 13.088463948477864 14.769586860327014 15.1292043810312
Ag 14.453367547975459 15.325008158138122 12.431334998584452
Ag 8.895911700297999 10.569648837676 11.72031445071891
Ag 8.69185142632487 12.536332200322702 15.638519034211384
Ag 12.208261682995213 13.536523844587824 12.805447825345208
Ag 15.625206695361436 14.901326096223046 9.814687091399778
Ag 6.477263902028822 8.941343392283729 11.572110029448789
Ag 7.153663624599754 10.679221526092883 13.923413975867716
Ag 11.796968103701985 11.167246362943708 11.434014436759835
Ag 15.817055981878962 14.314447543690695 14.615332097919783
Ag 17.139686511168346 14.555988393160627 12.17622303831909
Ag 15.301363733135389 12.356281762469193 8.232128017800758
Ag 13.685505847483444 13.052737448187614 10.447100275618773
Ag 11.536596704026191 12.434424756609117 15.631284028583767
Ag 9.182790046977251 8.240667051648483 10.306738657962148
Ag 9.947502958856196 10.45043218990453 14.378780739600264
Ag 8.445928861279029 8.197038328842757 13.293604973309511
Ag 12.648447340526314 11.381066775888089 8.336085045018994
Ag 11.074096313020416 8.69397364998485 12.486715226420285
Ag 12.080700047646374 8.893637274032995 9.831211196523135
Ag 14.379213076520571 11.6453783571535 12.745340294910262
Ag 14.287026562162978 12.19025241174428 15.544525583667086
Ag 16.571443048127765 12.296734901790145 10.745384290360994
Ag 17.08903343474327 12.072637980130963 13.559813289736823
Ag 12.652028611268026 10.072361711603323 14.509385962030942
Ag 14.607298351647911 10.263738792968509 9.993205922915578
Ag 15.414281618908682 9.785438315517279 14.55296979858363
Ag 13.86735293154679 8.79339111469104 12.26361609223964
Ag 16.5272488620728 9.794144081281436 11.985685307529579
