8
Energy = -13.55190433 eV
Ag 9.963108888553807 11.69550932854261 11.383695446009433
Ag 9.167369595383912 9.223290787807924 10.654709323850978
Ag 9.776778263658711 6.612145808002163 10.124220919628943
Ag 9.91856934672722 11.091534469261143 8.774472308652628
Ag 7.089622961674654 7.565263052889422 9.994528216123669
Ag 9.626378402886802 9.891730382201837 6.338444709566026
Ag 7.663665482338372 9.462465970945965 8.203836962394668
Ag 10.736842024694836 8.41617903128729 8.381308136415726
