44
Energy = -95.00848458 eV
Ag 13.831668246351102 12.193563045227641 14.870897356172934
Ag 11.688299071462579 13.027749139758688 16.600220004474757
Ag 11.867200150990493 7.956337404616044 14.836298519734973
Ag 14.756781075835391 9.369617868382326 14.975258653183364
Ag 10.354906846434533 11.09107148373401 18.11101186143008
Ag 9.751292631844123 9.536224642012339 15.892688885761684
Ag 13.887748446996632 7.471032795426977 12.930162695711772
Ag 12.370777857957655 10.285823849640764 16.263208323525205
Ag 15.469748032490642 14.184425416410283 13.727348420305338
Ag 16.09740557801499 11.413142484313884 13.416181503796665
Ag 11.211795905687065 6.967589747666554 12.210823065625346
Ag 12.961513694462937 14.859899065346129 14.954437592639547
Ag 10.193356919070704 14.639630999592027 14.68163433715416
Ag 10.068249252196635 9.344458966624757 13.104181883082699
Ag 11.42946589282358 14.063482139520067 11.974567257328522
Ag 17.843696752346524 13.431813313167766 12.44219123813982
Ag 12.914474817116307 10.093168063421759 13.156979848204209
Ag 9.022527398620214 12.346983175306246 15.969604160785025
Ag 15.26158809384951 9.534810214903025 11.573673651811522
Ag 12.737308423452138 8.758971182267446 10.586762340039325
Ag 7.791823844787634 10.640662408018432 14.168700796152937
Ag 15.815344556234674 14.67505858817815 10.954772673547016
Ag 8.63720525418641 13.114918772574962 12.989038505537401
Ag 16.38505032862837 11.9412373836659 10.618412116185418
Ag 13.648287767538449 15.845642213185224 12.452120594512829
Ag 13.799809338834645 12.555503538226615 11.881895548529744
Ag 11.361813312664804 16.90329025473958 13.777214248243483
Ag 11.058517858536103 11.964390125219031 13.98324097575206
Ag 11.204598465579979 11.216701488299735 11.20491062974552
Ag 9.97979494631368 8.770861129317023 10.258893579683031
Ag 11.592647654198398 10.316468912420676 8.465263505716846
Ag 12.386832634130435 13.045636159793075 9.464063384613103
Ag 9.29731909690355 15.724123315982679 11.990204836598307
Ag 14.170969220927894 10.795108284764172 9.309356671409718
Ag 8.32020919143869 10.818111507420667 11.420622321132019
Ag 14.97560314187787 13.461386573789255 8.579306848797307
Ag 13.490171281298888 15.705983520155161 9.683819339638417
Ag 11.60830793778846 17.218929661285845 11.078517814984322
Ag 9.284902897912012 13.219876746986959 10.22929403072466
Ag 13.162535695157992 11.971818096264075 6.895514573325374
Ag 8.869802760048891 10.878314499593218 8.669187676457188
Ag 12.676996892433259 14.71096548807111 7.20469341416013
Ag 10.709200641335764 15.3497905426816 9.231945852174581
Ag 10.390656531703762 12.923632130492193 7.5490848019358605
