17
Energy = -32.93926604 eV
Ag 11.821338780050937 8.056973254884996 11.182878884973965
Ag 8.007260665429026 11.929966723036186 8.794561181250728
Ag 10.869726674552835 10.265097515538201 6.579765898708498
Ag 11.846394840794977 10.828345361056565 11.20209342776693
Ag 9.435727 7.779436449692253 6.579896400983557
Ag 7.025059159205024 10.828345361056565 11.20209342776693
Ag 9.435727 9.435877705152025 11.859126819099611
Ag 10.879146675190134 6.94981178854211 8.79464675170137
Ag 7.050115219949062 8.056973254884996 11.182878884973965
Ag 9.435727 6.6496486910913735 11.202412460259017
Ag 9.435727 9.435480222995666 8.885675927816816
Ag 9.435727 12.19319688367558 11.183097227240218
Ag 8.001727325447163 10.265097515538201 6.579765898708498
Ag 7.992307324809869 6.94981178854211 8.79464675170137
Ag 6.563465839207577 9.42666488063829 8.794628937898835
Ag 12.307988160792425 9.42666488063829 8.794628937898835
Ag 10.86419333457097 11.929966723036186 8.794561181250728
