24
Energy = -48.70106273 eV
Ag 12.268362767096798 7.4705030039880445 10.846574465083675
Ag 12.0706719553422 10.280548466061937 11.310483249559677
Ag 12.103415480981903 8.502936641023613 13.472449486168042
Ag 12.878123406517945 11.949569018654264 9.2050630456434
Ag 12.115268477317196 9.185387133713819 8.652218568356497
Ag 13.572137700005184 14.59651011192501 9.763413672954995
Ag 12.229010494426898 13.866031705419049 7.358831632897958
Ag 12.637140924771256 13.057278131807617 11.85974159544671
Ag 11.60981702677918 11.137179726271336 6.712307971223469
Ag 11.616614379662835 11.307527671994379 13.888279346857857
Ag 10.597581752534602 6.786209164492946 8.65792813485295
Ag 10.063328780867357 6.827643454673218 12.569918980754679
Ag 9.525561452127155 9.5648757364746 13.13123916155597
Ag 7.78666326276459 7.439292553677343 9.05934470941652
Ag 10.138209065029919 11.316045420683864 9.02984408971179
Ag 9.627309875154062 9.103528943977624 7.364715446945561
Ag 9.744004702526674 8.838398490470325 10.403006492774189
Ag 7.585965309606736 7.82063294688283 11.959668284038534
Ag 9.902763630818287 12.036440391849295 11.822503494161934
Ag 10.817489407688875 13.885426609133763 9.836736961158197
Ag 7.422762745997545 10.672799060341845 11.626196992965655
Ag 5.658043400644023 8.857154006512364 10.305915421200991
Ag 8.0756625193732 12.909871593563514 9.948280608479276
Ag 7.563524087790092 10.276028699743351 8.876066168682325
