21
Energy = -42.03991962 eV
Ag 13.705333119749467 9.373949191685245 10.47765022310228
Ag 13.333814672341195 11.937259834958052 9.49255090941712
Ag 12.833217637031437 11.515855492910195 12.537066546572072
Ag 12.234100355486897 8.55390914551225 12.601485538204914
Ag 11.47341931847137 13.517317191295627 10.726574552863235
Ag 12.056811146915674 9.758772890081675 8.216434125895704
Ag 10.973691625719757 10.594837475445415 10.874098527079601
Ag 11.49250255123731 7.6858048551118126 10.0276267823132
Ag 10.36079691149155 10.120762476393564 13.850702157133119
Ag 10.01170403145842 12.676670793930738 12.844304708682538
Ag 10.781055031259786 12.23229556699077 8.316896913728698
Ag 9.50681690163953 8.182628233216944 12.00092471007819
Ag 10.29660961206983 7.6956363588614325 7.489770275033534
Ag 8.80167516743236 12.730563389899874 10.299050883814457
Ag 8.21617567692949 10.642688259085713 12.08415338660549
Ag 9.023511381752925 9.6623188875001 9.171525481893116
Ag 9.942006752155201 10.305607883172172 6.457098949087858
Ag 8.849874984322607 6.802902180220146 9.663307267506914
Ag 8.06803863795732 11.963042648464347 7.703719354561012
Ag 6.957090758091336 8.451938891191352 10.859655124963636
Ag 6.583115189158641 11.058051780565098 9.840865877910073
