33
Energy = -69.87038358 eV
Ag 11.637877114595767 16.695304943578225 10.188615865343294
Ag 9.904191571086642 14.932766335957055 11.447792467915976
Ag 12.764685582099675 14.830062904677314 11.976756369198
Ag 10.904549910768383 14.356340163750534 8.783663244835509
Ag 8.084444190735343 13.244020069272466 12.761635144978328
Ag 10.912551674857566 13.441758556843894 13.64446120545653
Ag 13.611571011481507 14.984445091165941 9.30562805039994
Ag 8.833121033609505 12.756951934957579 9.950178751132215
Ag 13.062455334258244 12.480684492277327 8.213316652778863
Ag 11.650514934646614 12.495165168318268 10.81663843549358
Ag 13.558466844774415 12.533745942000726 13.301030348503373
Ag 9.133504116741976 11.76002582688324 15.029555707316861
Ag 10.317261959233557 11.81291867776725 7.774880886545556
Ag 6.855052173334534 11.195344017296636 11.175111271551451
Ag 9.670013994132693 11.059401683537153 12.257429154355014
Ag 11.70482673640397 10.926534214876845 14.859843692559682
Ag 14.529874247116025 12.72980100444481 10.632128521289308
Ag 14.296735862198394 10.130729058588923 14.509661289639732
Ag 7.320285756228369 10.187714909561672 13.706386984513902
Ag 12.418660076310003 10.143517061431265 12.198910047284507
Ag 8.075656382136977 10.132812926197216 8.96485652634101
Ag 15.27049995224836 10.390877882251507 11.94892990267571
Ag 10.763111888355507 9.950079815047403 9.867703460132637
Ag 9.95743844248578 9.074503553835964 7.2398720572261634
Ag 12.535234371056204 9.952652252348424 7.2373221494429965
Ag 13.93089832047479 10.10208053965801 9.579981058465796
Ag 9.795497370857808 8.889125960576648 14.03582191425637
Ag 12.444093771470305 8.039191307346055 14.02820374592287
Ag 8.215908965605479 8.675817046484497 11.51707574894828
Ag 10.936739007320005 7.6336904215985895 11.695965488328314
Ag 9.382878972069628 7.420691689941234 9.385784506647886
Ag 13.782566066937061 7.857022658101136 11.400331674606916
Ag 12.2194417927657 7.750991064276104 9.056196310756757
