12
Energy = -34.63313861 eV
Te 15.987118749450056 13.711076179705485 11.078152326990304
Te 14.782021127676387 9.460453102489952 11.463939477058556
Te 12.107251107473733 13.56104431133731 16.000443054002204
Te 11.248925048103867 11.052364659539483 15.597677602234736
Te 10.390142675424908 10.405364062627006 11.11736336648029
Te 11.807087465991074 14.400927671489628 10.079427218402573
Te 13.495872872202495 14.318912930994381 12.257194459399795
Te 10.81827286508329 15.28726880699606 14.1633853192643
Te 10.949153334639314 17.61807141767554 15.362075684840194
Te 16.42935810303041 11.363390079950271 12.417741391760352
Te 12.338403195160332 9.915507976590579 13.109970774342326
Te 11.822095685468083 11.772490280004495 9.27044107828306
