14
Energy = -41.08294646 eV
Te 7.6401750639251755 9.728823330158288 11.621262995946239
Te 12.170995897768693 15.578093745817014 10.903142831546157
Te 9.795309052640658 11.822099883135333 12.048193309406063
Te 8.902587719791418 12.8268261035017 9.511976511103889
Te 13.1749482161839 13.629512860540315 9.248160489431596
Te 11.775506147880865 13.815570538427508 13.051938131676177
Te 15.487625252422273 13.539110185596732 10.738804480896844
Te 14.329760262849607 12.413124620506009 12.989985040395508
Te 11.59293627462678 10.86236548826536 14.602187508113145
Te 8.32808233709629 8.604119513205145 9.307230157956731
Te 9.851198584330183 10.773538429968001 8.070538401140682
Te 10.95849024036436 7.429484859018732 12.602683041465085
Te 12.856950006013225 9.575888477647096 12.541099355574683
Te 10.617965765801562 6.8372688989219315 10.032140041905446
