13
Energy = -37.25397507 eV
Te 15.161148979705729 10.699139352740413 11.165879535590232
Te 12.748711411109076 11.880952606265554 12.581830678790125
Te 14.860944655041937 11.758585726518833 8.827910827128044
Te 11.89113447400537 13.3208780653903 10.555657415033517
Te 10.851336350281674 11.855436051206377 8.14978814431182
Te 13.075548507816125 8.238706345329598 10.50488365363624
Te 12.627681985101354 9.282670892754538 8.162972204837025
Te 8.280930677221383 11.437110936536277 8.130079325209358
Te 7.433672256521093 12.033219209232035 12.062676671896579
Te 8.380255482997388 10.196027198108737 13.92362631784248
Te 9.48202654150833 8.571934931272915 12.054629329669767
Te 7.2874135430766485 8.23734004886048 10.292539142510343
Te 5.600651168312055 10.169454668482022 11.268982786242944
