12
Energy = -34.91657011 eV
Te 12.264356015878029 9.596446670521557 10.106822808964507
Te 12.203908328789415 7.593896778610865 8.065469977117102
Te 10.097555706860762 11.039238685047488 9.281828448704688
Te 9.329523181933416 8.081606267281 12.300623300699588
Te 7.911729578495816 9.977967829324612 10.693784727419656
Te 10.09458878754469 8.58748089041249 6.659195778446705
Te 7.824152440752135 7.193735065727032 7.546921155265181
Te 7.039662115162186 12.399824599638302 8.858500082238109
Te 7.015902256458915 9.428552082269608 5.482899707369169
Te 9.1464019624958 5.204596053907953 9.119909717251726
Te 7.95867845051871 5.864605873415762 11.488416960749491
Te 5.518321187006067 11.00509781822583 7.104653831445538
