13
Energy = -37.96429648 eV
Te 10.212784143536055 6.367062328480904 11.715344732433167
Te 11.636105264270286 8.55665209338087 10.74402976698811
Te 11.058026014126732 8.413199004420255 7.824250393938171
Te 7.835131541874119 7.561182752473936 12.57752108675284
Te 8.810035841772692 6.399948850991926 6.795815349734869
Te 8.963291457732192 10.088920616415182 10.919803279734744
Te 9.685691043254613 8.347838529953124 5.110315504297129
Te 12.290488215811006 10.951706618947654 8.260309719173849
Te 9.955403664162713 12.195313680679247 9.316654323391537
Te 6.188941108984353 10.225702881593906 9.579276450400185
Te 5.71347943406148 7.753225840810944 10.76820208617636
Te 7.663950641722107 9.412286375963253 7.106272313079059
Te 7.957823317036251 12.227117279768155 7.261628422759917
