11
Energy = -31.27286573 eV
Te 13.314644210285174 9.440607271253489 7.03817112220763
Te 14.737668465851396 11.232596716931825 10.530826671075065
Te 13.218379536539663 11.898899642509383 8.195642694569495
Te 13.55987504164914 12.382087618487748 12.58296464575522
Te 10.85501413067924 8.367415903168878 7.861802071433626
Te 10.934849214584803 9.204238075598115 10.430755305467516
Te 10.863978109420257 12.58517116289022 15.174945682627992
Te 10.271026954595534 11.869002577433028 10.087763347640974
Te 9.206824753163106 10.648186145220963 13.955622634266554
Te 8.075102054010372 11.913546156106339 11.836387813540819
Te 9.363424496743255 14.518074192715941 16.140301720189456
