14
Energy = -40.90510307 eV
Te 14.583571982708266 9.359025880394036 9.639561341289847
Te 13.887010604537577 11.486006986777314 7.980690809119178
Te 12.905965460137812 9.507445681114342 6.246072493728798
Te 12.067273697650974 8.532558810971805 10.322415934320757
Te 11.674694033942103 12.549428291517316 10.416703794032307
Te 9.73343833441291 12.544306785201575 8.35132030781967
Te 10.818899259039348 8.656284533813368 7.728725302803741
Te 8.871256280736768 7.401497488982741 10.845090054327219
Te 10.049903856183153 12.949183507177503 12.614106292636391
Te 9.927904814410473 10.568792603971286 13.938138177801902
Te 7.267314731222973 8.768718236958385 9.196572363946354
Te 7.661773178004157 11.521033426102699 9.771476111102277
Te 7.703341186072509 8.807797648849142 13.366902185691306
Te 5.6717644620485155 10.032599101932071 12.25561432694401
