11
Energy = -28.58821788 eV
Te 11.685952774461656 7.08757830365269 12.361402974135483
Te 10.582894864664405 11.930496623947507 13.39079896219998
Te 13.926081672580283 8.251593251151462 12.449423840092486
Te 9.21053765447091 9.365959247021815 12.219091933010267
Te 13.514402397649267 11.446558923979698 12.329934688836019
Te 13.178322830478857 10.062948792929731 9.698156254555814
Te 10.747832346922044 8.700507721380825 9.695742291658622
Te 9.696079616320244 13.757559055184807 11.719510758612909
Te 8.263338298071492 12.157705659620706 9.31187663204486
Te 11.096312836074654 13.301318367806768 8.803931100626372
Te 8.76238974313133 14.918983101134561 8.805689905490519
