13
Energy = -38.06365979 eV
Te 11.031428654427929 14.289652366445129 11.167848226853822
Te 9.951404601876897 13.190749794668527 13.499054644525774
Te 7.996178932688045 13.573622716966229 10.61346956002476
Te 12.099825625875795 12.4274071050869 15.083172586759796
Te 13.900951386662364 14.150410353432058 11.565727965657935
Te 11.84290493789453 9.697113374576315 15.12292810684978
Te 13.359509369307071 8.653889353068484 13.067710890251412
Te 14.304400160047312 10.466686950864577 9.278792436740577
Te 14.613444700183962 13.185393000880786 9.137386051951177
Te 8.244423913307498 10.940192630381425 11.107736960576782
Te 11.521689278031216 8.155307378691806 11.116868686636737
Te 8.624157683009127 9.59370808641316 8.787908202345394
Te 11.456770656182004 10.48125047094038 9.54776143651156
