5
Energy = -13.42458268 eV
Te 10.91526136777238 9.79552728258237 8.601439970283645
Te 9.721785648037974 10.341588776811282 11.044005352558534
Te 9.679835593466564 13.364410357843301 14.029774471338566
Te 11.036671725956735 12.699919394379593 11.886338550730791
Te 13.049119302935777 8.268633669915197 8.910381855269929
