5
Energy = -12.68034339 eV
Te 13.464921252630731 9.120437620629735 12.853535131468185
Te 14.024374534044014 9.167862721963752 10.140651967866908
Te 11.632256191171976 10.184717950271391 11.07785267953588
Te 11.292486533759009 15.163152811751072 14.088212512392841
Te 11.202980336118467 17.66178813364708 13.431333861146339
