6
Energy = -16.54057034 eV
Te 9.066012323661598 7.84479484455377 11.290741828143153
Te 11.142281854324105 12.65128832156601 10.452800832367569
Te 11.28949991289039 9.934764991202725 8.383405012393181
Te 8.574668787163349 12.414281379847692 10.542839488651198
Te 11.636732428404672 7.813584959157075 11.06634922870754
Te 8.736139698601143 9.720597602489399 8.620072187532829
