7
Energy = -17.23456245 eV
Te 13.80789779065958 11.193578203402016 9.837339947892625
Te 14.510634480288193 10.709654503806126 13.07279031213713
Te 14.866970203663643 13.373879252043354 11.093530480941569
Te 6.370131618140522 10.689987286088657 9.736931521339763
Te 12.18346977350639 12.0783654203039 12.61639372815285
Te 7.8359221268490975 11.146760576846406 12.050054657498574
Te 8.81018617851614 9.433727274438679 10.112665508879052
