8
Energy = -22.60899426 eV
Te 9.312193339443596 13.800199228721324 11.983342311151402
Te 7.995739180986781 9.635206793624036 11.607500084977065
Te 7.369608154811406 12.1100583220492 10.908621364692547
Te 12.660778810129655 11.101200194355712 12.62807829703877
Te 11.796513086261944 8.739915340661318 11.691511910250105
Te 11.600339353964582 12.820698096835617 10.733464506326074
Te 14.110607675872178 11.24155633471974 9.056098127550067
Te 13.348600029134584 8.732498452863245 9.257052399012226
