8
Energy = -21.30991918 eV
Te 11.522707612851248 10.271996402410583 13.389355911172355
Te 13.648440809679073 12.608000487888614 10.913607995144545
Te 8.122704340683306 11.561097379255672 9.566672865259088
Te 8.363466140325762 10.93224921669848 7.066768421887354
Te 10.972999119196052 7.887190660889425 14.322243861490183
Te 14.050352300136977 10.211169578873559 12.072796499861706
Te 14.35717190981386 14.33594300968896 13.058316122850636
Te 12.753382683964288 16.389739993623433 12.769402255434029
