8
Energy = -20.81962033 eV
Te 10.883522082910204 14.962964163143731 12.76518359894277
Te 13.950891170661102 11.4354364731289 11.801911077917278
Te 8.637423645673309 8.307761981028344 12.040266882293073
Te 11.07872969684634 7.489029477253032 11.90189128198534
Te 10.054468767960959 16.504357103219032 10.818417278961283
Te 13.555510695848977 13.017405447712095 14.993111806648333
Te 13.712255918709822 14.280636071104093 12.678240657725436
Te 14.776871353618548 10.52195364874913 9.487165274919304
