38
Energy = -81.52376363 eV
Ag 15.213303639445453 11.201236577034033 9.58499550148769
Ag 15.29509245949052 9.434680899865064 11.820953755531349
Ag 13.91387092421683 12.752772126805644 7.543505183475184
Ag 14.529115014010964 8.455396279731033 9.279841114722165
Ag 14.846674511941112 12.342962426190587 12.231685486982325
Ag 14.277455513195974 14.035040742144956 10.060709208039773
Ag 12.83518165088181 10.260019947911763 8.011765671609188
Ag 15.059240935701776 10.578994766955045 14.515824767699623
Ag 12.940155636418476 7.832837149290993 11.44074632364726
Ag 13.858933731933234 8.067850028955895 14.134776517742434
Ag 12.839866490916213 10.354422079702498 12.755873438436446
Ag 11.696643756818426 13.874863092391369 8.746237064162436
Ag 12.647102180555175 11.753793551463993 10.391466323140435
Ag 11.304408047773888 12.224784424845339 6.52476276773987
Ag 10.77200341407099 9.707730562427006 10.838417017492398
Ag 13.233932929622542 12.735228489114528 14.5249968193949
Ag 12.20878103541517 10.031090756689085 15.40815022763207
Ag 12.41683183008339 16.176821319393497 10.207695178804173
Ag 11.65848232690795 7.8963707014088635 8.854660790373233
Ag 10.047020141652762 12.458247892919063 10.77176370966211
Ag 11.005140332194893 8.297007038231241 13.527914771755576
Ag 12.232937297491908 14.047924295619527 12.07705692333092
Ag 11.005876485547311 12.37083673635084 16.29530903480097
Ag 11.067934722990028 14.64374506389658 14.640689266224049
Ag 10.037974548983975 10.221915607974362 8.051935193243917
Ag 9.719002818980865 15.214116621611659 10.151441722337095
Ag 10.738474154185582 12.008000513487477 13.457855158144321
Ag 10.788599702762165 16.483863624225407 12.455015628073351
Ag 9.095340109202537 12.87693996033387 8.206932459001944
Ag 10.289057981261195 6.887880009003888 11.240468399409524
Ag 8.774737104379268 8.081781140733234 9.298950686263256
Ag 8.470333411827319 8.846404013985223 12.262384641826008
Ag 9.030949061967425 14.29787625371498 12.71558901831578
Ag 9.285940354669505 10.071851722507036 14.7937177545493
Ag 7.977836997677959 10.665100217204117 9.971872672988432
Ag 8.582890975469589 12.9071333149144 15.116952264736707
Ag 7.440432293138385 13.412068560880197 10.508421939286933
Ag 7.959287340401019 11.587253354269016 12.675507462120112
