12
Energy = -22.20112961 eV
Ag 9.399257410130783 10.547810709677279 7.455307125488719
Ag 10.700256565173525 8.15572173653158 7.351744621638737
Ag 9.529979843512912 8.803966034013007 9.810747275374538
Ag 11.79314450428733 10.201552500744773 8.856099846914223
Ag 11.030849459750549 12.737846656605461 7.843610856351229
Ag 9.466523621760073 11.782487899944055 9.979138310711196
Ag 12.156837644460342 12.39027596236997 10.483846562288694
Ag 11.442582929734884 9.954249859919816 11.64812374451127
Ag 8.60602955625378 10.232010040102443 12.033236002218228
Ag 9.90840916412761 7.81783471766731 12.479274114470622
Ag 10.398669531207885 12.287309351548075 12.749895090745301
Ag 10.292444295778594 9.937780742594365 14.25891018319135
