36
Energy = -76.95640237 eV
Ag 16.59584984315375 10.989928903152137 8.525677324665745
Ag 15.248152936283223 9.57120807897931 10.48540618457839
Ag 13.970645991881211 8.087967037700126 12.431035012403438
Ag 12.776108875691007 6.529558085520867 14.373311464136895
Ag 13.844157284609599 10.359038996014865 8.111245731527939
Ag 12.545342482476062 8.71324390180476 10.038252199451826
Ag 11.220961180851308 7.321593247577121 12.132058703436654
Ag 11.059554243507247 10.322104268456012 8.24894078328548
Ag 9.713749236214383 8.756125474632947 10.285971005498876
Ag 8.290457920566276 10.247982945482477 8.431796773176739
Ag 15.764006131259505 12.355051855997369 10.870608037357094
Ag 13.120484600954788 9.306971126236922 14.889028568726113
Ag 14.579120410509422 10.823357308353303 12.971393260254848
Ag 14.718382826366229 13.032212103751322 8.341031194707519
Ag 11.94842847055314 13.001283423273323 8.267774765867951
Ag 10.551294190138037 8.17788352122589 14.738819275870771
Ag 13.01310782676183 11.610367513268065 10.541474668956258
Ag 11.701060862663637 10.111249320258988 12.546804005186234
Ag 14.288927007453482 13.630340946471875 12.849938444274084
Ag 10.093681294212287 11.574468831860576 10.623410736203498
Ag 13.376832856076293 14.4458168412013 10.312082924758354
Ag 8.928894879080506 9.47776944565199 12.892973027206578
Ag 12.92224913718794 12.084626585157338 14.887949068702811
Ag 9.16679396819689 12.912095182947676 8.279768672852367
Ag 11.502738334546521 13.0132756663465 12.588227806068168
Ag 10.34773464679086 10.944172516006606 14.927987660568196
Ag 7.362591623123264 10.82414834303561 11.033432122580269
Ag 10.543052508042477 14.52189837531624 10.189756867789079
Ag 6.4392618851496 12.299990403821488 8.785112725347604
Ag 8.630741894630546 12.288503701020622 13.131473062469654
Ag 12.778240925034892 14.853534368456145 14.823606676874462
Ag 11.996841643969612 15.810014231243398 12.292024626435254
Ag 7.874670525486705 13.632363283118533 10.738577196303373
Ag 10.206030505045382 13.723102050943746 15.037876250554973
Ag 9.259265300357123 15.041008121180147 12.677278519335063
Ag 10.551956409774446 16.522951703391684 14.62477713066288
