27
Energy = -55.28218719 eV
Ag 15.456486942932074 8.726512702557804 11.187516931214041
Ag 14.82625659679728 11.069836632498188 9.91866421158125
Ag 12.967849621043642 11.662685275651278 7.898626100536379
Ag 13.084992371990959 8.97516978265245 9.202539901068894
Ag 10.235947567594913 8.783367798956528 8.448745571511951
Ag 11.190773437923655 10.970454251561547 9.906886611597104
Ag 13.730368877681848 13.585514418706044 9.841462504645618
Ag 13.09428185179462 9.959703471620395 11.8250389067087
Ag 10.262594974024534 11.362241285709699 7.209976893684656
Ag 7.8547107241117295 9.923709617631372 7.669516725127119
Ag 10.944317835943604 8.22825050858646 11.065416026217875
Ag 14.59785837002405 12.325704474980927 12.499471622727308
Ag 14.901358815645477 9.740064825416423 13.822386528913244
Ag 10.45647769028573 10.644652465934335 12.584105832752721
Ag 10.969014850172947 13.552358263725717 8.993787558682723
Ag 11.76325333828418 8.532480796591678 13.81408242126752
Ag 12.57716042678976 11.30033342182953 14.292836076935059
Ag 8.22899168165732 12.45271011911096 8.70410907904373
Ag 11.968649970050578 12.97667497455933 11.82243116155518
Ag 8.89031771553776 8.460548259854315 12.945667487905295
Ag 8.418295268077738 10.02935465757672 10.450426196854448
Ag 9.25954878551778 12.93600991556606 11.240884082712988
Ag 12.935183074948837 13.99944475552842 14.21693667506006
Ag 6.559922390699538 12.435861108842273 10.889158287961248
Ag 10.175346064376926 13.114202832055334 13.976551804907842
Ag 7.516422109979638 13.826197638137481 13.22789651803936
Ag 7.817112763224956 11.109449861270843 13.028372397899492
