18
Energy = -35.76891236 eV
Ag 11.865377791588854 7.133977322798626 9.679765052444026
Ag 12.238646650927487 9.120873531902692 7.777894053723887
Ag 9.474355157643453 8.553236654938985 8.425912782761655
Ag 11.761336929960935 8.012395341531953 12.461121609745991
Ag 10.392397035601975 11.181048234150559 7.789440687991559
Ag 13.388197623826983 10.527536584923142 11.609347365981408
Ag 9.431270982446737 7.233106268492606 10.900994176557528
Ag 12.994684184303175 11.496109370443634 9.018107777121122
Ag 11.066298895953302 9.72263886116729 10.377104116974234
Ag 11.283857827189145 12.50637604817636 11.089626352862936
Ag 7.676630637517562 9.31451991138112 10.592332072148283
Ag 11.311869537776037 13.669909265371873 8.558797914615182
Ag 11.109502044020761 10.643384726572293 13.167039273067623
Ag 7.7003813918699935 10.720982422230664 8.201495895349462
Ag 9.008684341656572 8.898663067413445 13.050911747765987
Ag 8.755132196150658 11.543747594541818 12.057200582828846
Ag 8.891199164529308 12.848193934029409 9.59318696587482
Ag 6.4758351643753995 11.808543870479832 10.506260376455266
