51
Energy = -162.45754499 eV
Al 12.811237454778864 16.391461004428844 11.437279888263577
Al 10.128533721778462 15.86073261356062 11.764150503258906
Al 9.466792581138886 13.14116873132672 11.421073719023058
Al 11.32693136428467 15.330700874866332 9.095542805609576
Al 8.673031452778206 14.77683724608163 9.39205310395991
Al 8.920283132149136 11.395380501382084 6.632126954454861
Al 7.513211888534393 14.931387994732978 11.912568508236253
Al 10.42125533678819 12.754519513687342 8.664500870994237
Al 9.675721678100883 10.191536441367363 9.07743372531566
Al 9.570552345149977 8.61459635394783 6.835798313522728
Al 7.284505073799045 9.552016016408695 8.000800692373948
Al 7.740510453454439 12.150021048964467 9.202991291170285
Al 12.07569597491987 13.758553803901917 11.353292670839759
Al 11.889470114376987 15.235469315113045 13.910942997996184
Al 11.051360627414311 12.543930521888532 13.713287780402752
Al 10.763058606583257 13.773637003520228 16.209969621803182
Al 9.2747456639403 10.704003505910906 12.5837723747655
Al 9.134094370142792 14.37732600890379 13.9895760317939
Al 7.459168078155614 9.769709733508176 10.713805296548362
Al 8.462435488365127 7.8318985481859915 12.422147441423245
Al 6.97158549687672 9.968855619796626 13.59243259203368
Al 6.975771926885079 12.214010746041513 11.938961280967112
Al 8.797814709459871 11.802360503575388 15.05442336535321
Al 8.796619809501834 7.582344841177441 9.44097514976813
Al 11.547139899188325 8.110843121797267 8.710649194290996
Al 10.585045160215333 8.751462778444006 11.15931189061465
Al 11.246255532539303 11.279877405371268 10.916036249970615
Al 11.632701959153355 9.946463745132524 13.599103480910076
Al 9.350295373266272 9.129453277681131 14.98620331806024
Al 10.950748195928812 7.239704348162215 13.431643980873408
Al 13.884963340704715 10.41137863368199 15.173504879055779
Al 11.373273011138144 11.089010684401748 16.257040841346907
Al 15.615320050622177 10.210473312160357 9.836879786903067
Al 13.27444810950889 13.11921521878779 15.166853903907077
Al 11.98950187415204 8.39314350966123 15.920227281574016
Al 13.63295867731859 8.084393479074665 13.598678443293755
Al 12.51437198366623 6.863580897280465 11.130481554588547
Al 13.330310710677209 11.784117531399477 12.702474243066709
Al 15.386666968929076 10.03750983445666 12.6400457688356
Al 15.643110899000927 12.366197147375917 13.981413616522204
Al 13.193096716496717 9.507174679338235 10.887819383708349
Al 13.821328460346413 9.354880721556377 8.077305126450279
Al 15.182698589446854 7.704045020602535 11.306309826802268
Al 14.128323303260448 11.555349864277066 6.448135933305663
Al 12.609825942390383 13.641266817461076 7.353565257381279
Al 13.236504890222186 11.80072928736862 9.298728253667052
Al 14.30274854667258 14.514592887596327 12.821259531612418
Al 15.391856964306154 12.598705291259844 11.142082990531215
Al 15.588465869192202 12.77682571556107 8.411355643118897
Al 11.58809504568797 10.720048027153378 7.2399854966690596
Al 14.058290102345133 14.599831719210606 9.68573069452987
