51
Energy = -163.11837175 eV
Al 14.119846908889908 12.4883141167681 16.25973602415834
Al 11.414485327413127 8.09711122828206 16.079657679328434
Al 12.916237790215959 10.2191901292462 16.203972573116733
Al 9.68014935305518 10.152639579228605 15.672284478987194
Al 12.620258479507953 14.659118475661446 16.169428523735498
Al 9.167737633958172 7.4644506145697775 14.583425376577713
Al 15.41784065594511 10.553429052318425 14.444219941452195
Al 11.262019216851062 12.342447370422546 15.68936547140188
Al 13.68570722266203 8.50671685629769 14.100695642787183
Al 14.924459696946037 13.298933724660463 13.888028442006295
Al 12.31855067176977 16.623252744948587 14.468904984992546
Al 8.44486830402267 12.413915750189334 14.963361520686986
Al 10.027740810308318 14.69312042690956 15.215865622851112
Al 11.077553397428957 9.137359547702117 13.504173969795223
Al 11.946457609281643 6.5256980549999115 14.038126754041295
Al 8.332106640733347 9.809686942421905 13.352505502722002
Al 12.909065058918424 11.30364622113982 13.636981157616098
Al 16.422733400899695 11.642388892498891 11.992721809456734
Al 12.226956904914651 13.89286507046689 13.412061222129156
Al 14.369976089341497 9.743713139053419 11.846283923065013
Al 9.986195679235191 6.080674313673432 12.378102944256417
Al 10.35239818995054 11.770159190850398 13.084605245425202
Al 14.37070490177533 15.846162997495624 12.98171703761269
Al 12.316479769072522 7.727978296292045 11.57176954724862
Al 9.622061236625923 14.280301043111066 12.48159843729877
Al 9.626594433715969 8.444510876692657 11.346545240627053
Al 15.59372456929923 10.59988160656872 9.602203415881078
Al 16.20404705859324 14.367220558713479 11.66006835288346
Al 13.897056242324947 12.522465466992557 11.422422111751525
Al 9.776623690356283 16.869634901834416 13.564077331196119
Al 7.531424060311325 12.344365256392829 12.437807012538464
Al 7.558897359377986 10.145574537750841 10.723165087866766
Al 11.683890013156496 13.532980956832821 10.499019359792378
Al 11.875494341409196 16.079811364935097 11.792446632137214
Al 13.172224521092554 11.529606221111415 8.897350144800184
Al 11.714560421727583 10.527534667030153 11.088914513288865
Al 7.5159662202788695 14.356319629492928 10.683471376186462
Al 13.417445754073425 8.838023326114534 9.470261437110414
Al 13.920143623229354 15.252543256602754 10.29529132349104
Al 15.22980962248197 12.175038565312768 7.021565362421675
Al 15.529235635643944 13.324933162169204 9.31002425374914
Al 9.418322222115844 12.162724010884132 10.449622524935602
Al 9.322005145933735 16.449451900669693 10.90441650494528
Al 10.817233401203362 12.345674517726389 7.929122224043219
Al 9.455012400733542 14.373657839891589 8.866250279506959
Al 13.114748400599073 14.03208030670913 7.92128828383022
Al 9.828243016276588 9.891314903538555 9.139763740639397
Al 11.582757962382951 15.978321308227107 9.116913076437852
Al 12.773532933214009 11.841800414351958 6.034438566758115
Al 11.733774042181725 9.730987885878926 7.368156619635254
Al 14.409241894162541 9.64486871396546 7.07040132639654
