51
Energy = -162.72860439 eV
Al 16.526971210179383 9.939035121820472 8.557529378475195
Al 16.271333410163518 12.188281910101477 9.912052441269482
Al 16.469412927535156 9.989671629525455 11.414088566994552
Al 16.456836204307386 14.657640938773808 10.679957267932801
Al 16.36457470119807 12.456684962351396 12.625449432491191
Al 14.788448734564916 14.77761893905169 12.737085190894282
Al 15.094785942120684 10.29531617715282 13.682991106072981
Al 15.216531918987833 7.812443464832917 12.46723135248584
Al 14.376880603395358 12.736019824002467 14.443697717170151
Al 13.996991660382017 10.569718378568066 16.212682609773026
Al 14.5679743717067 8.656945830084855 9.824795647235979
Al 14.12197950177677 11.393763940339836 8.426109176022882
Al 13.909617587122597 13.608037354499706 10.208269214850924
Al 14.367178266839106 16.234400060695112 10.002872079579861
Al 13.8976381418776 11.20567630290433 11.389174844493015
Al 12.348468178055267 13.398589677168548 12.445405833880415
Al 12.631008172927675 16.195612992794924 11.966299000201369
Al 13.370736224604993 8.368760788050235 14.53322802707369
Al 12.747034448376764 8.732283162996055 11.874578541833452
Al 12.295044199411945 10.945848490746734 13.59933563851273
Al 12.960745898208845 13.682404951374858 7.491543604896004
Al 12.997027550514975 15.119526301571339 14.727506973497231
Al 12.118755833190882 12.66958729077762 15.864235784400798
Al 11.429333384732386 9.884642523927338 16.062412695399683
Al 12.410060910228205 7.102407757804393 9.495241715444545
Al 10.863136963150598 16.806579961583548 13.829932127540475
Al 10.766236815886526 8.588402788383192 13.710191053283149
Al 12.172089790561902 9.815105877825145 9.373831019353267
Al 11.769522166671326 15.199984732765087 9.41604106266358
Al 10.422091055020836 14.21655635440861 14.38717201063389
Al 11.564681372079598 12.399050563748952 9.66833476496068
Al 9.715093584338673 11.731361425964915 15.123646731641315
Al 11.816001429367272 11.114048934373567 6.975025433774841
Al 10.188801044777279 15.272198573047028 11.60147137703609
Al 10.396256784973069 7.500661808442304 11.18551580132827
Al 10.453819539973605 10.334850290093087 11.33508084081154
Al 8.724638370562086 9.117634351764263 15.492988521190123
Al 9.779860331177527 12.689198063260127 12.204758697673022
Al 10.23916549937449 13.278805823491302 7.133876712872922
Al 10.207717235020596 8.293930455804347 8.388920883287337
Al 8.395946901053552 15.954936292552256 13.563750789849813
Al 9.484705578137868 10.981431328038417 8.454091816650102
Al 8.293902772815827 7.952400488968487 12.843189269421837
Al 7.806327873990901 13.328757936953636 14.16568578887547
Al 9.215131202030989 13.780293483352937 9.487956232708646
Al 8.297709346184407 10.631598671489764 13.160994091356201
Al 8.314183052402782 8.971850033994507 10.101971559322322
Al 7.573562593019359 14.312348243118038 11.51942565834156
Al 7.844569826659419 11.635144283474402 10.458288675197702
Al 6.077037489931081 12.187984017281613 12.450212774732877
Al 6.242822622807407 9.644347668282201 11.684253688988557
