24
Energy = -48.54180623 eV
Ag 13.045331225768654 7.876911212114864 9.272913079224196
Ag 11.781454480510442 12.234750208770373 6.214833649574387
Ag 12.368144101945495 9.988467941686238 7.74308673713052
Ag 10.510614674843925 7.77159769706723 7.911885657061593
Ag 13.016482012473592 10.380880258359705 10.642248746262513
Ag 10.899362487657482 6.358373082239738 10.347681238044173
Ag 12.400685572732264 8.030241176229989 12.044717702817398
Ag 10.032175935323641 9.890691846127307 6.100292467315286
Ag 12.61854310457934 12.5656189415477 8.891515593943673
Ag 10.427234096175537 9.294002886057443 10.275635422289088
Ag 13.282392101147138 13.002947491964784 11.564208779930699
Ag 10.001979313758579 11.644032935101015 8.270451628583704
Ag 10.706482749398866 10.044529769944486 12.997414348937953
Ag 7.290667882906192 11.869696835190172 7.638975339362212
Ag 11.275386934204905 12.701085263560795 13.628889852205281
Ag 9.70731837123608 7.395785061711617 12.702666188473554
Ag 10.72647340432163 12.110893980025356 10.981010854541003
Ag 8.216930602951521 9.33589076479617 8.161496659795851
Ag 8.280879624985577 7.461099535473287 10.21398047161295
Ag 8.08837610985517 11.369841182844208 10.25762361965835
Ag 8.66637666804891 11.997906988854242 12.959185483682967
Ag 7.879937424369271 9.345652635121292 12.372964889529705
Ag 6.175759957410502 9.344602237255378 10.08177177387747
Ag 6.031838975986961 11.41489214126202 12.135171815391947
