30
Energy = -61.34485323 eV
Ag 11.976286195140258 7.437067375696467 8.308201762979584
Ag 13.029307221339726 7.578601090524638 10.867845154936798
Ag 9.237551414111847 7.49632370225879 8.075213280825947
Ag 10.320077123742758 6.812134848820101 10.53529252386773
Ag 11.486891689333962 6.963583772610263 13.08898659208481
Ag 13.186265560871016 9.792561729270993 9.105806092015136
Ag 16.828821093990598 11.579118577580143 11.392503452821709
Ag 10.7794861008369 9.931491741158036 7.801932867263829
Ag 15.079639740291029 9.449488691472277 11.158227845608684
Ag 14.512853948990704 12.07579413908291 10.013176278097879
Ag 12.974356821030472 9.307085632764087 13.067748587481534
Ag 8.012463653530405 9.938598006179582 7.865892543151162
Ag 8.010084606723908 8.522393686945572 10.337571556308118
Ag 8.79136025230226 7.4907491175506244 12.745699684808553
Ag 12.097415497232042 12.349492447766627 8.663841029193852
Ag 10.393770017089881 9.349986205057927 14.104625191183912
Ag 14.431862498020374 11.667794256187115 12.773868343472026
Ag 13.239219374662175 14.47202220880754 10.087889544727023
Ag 9.365737525663445 12.370079903890662 8.162584663511602
Ag 8.106550399241664 10.165082490960794 12.690340962781946
Ag 11.919584252829825 11.777305483007309 13.910356864056315
Ag 13.135722841708311 14.060067358297312 12.856025675154168
Ag 10.541510199626055 14.577317133326844 9.476022496372224
Ag 7.577946675199219 11.31457168262791 10.221277144424926
Ag 9.24803034374017 11.859157309222345 14.619279680529498
Ag 11.582786485681876 15.997854881172028 11.67893560602238
Ag 7.8615241825175115 14.016134118359563 9.813460363408723
Ag 10.429713710834362 14.15554284057433 13.567299588964797
Ag 8.109375323325914 13.022255275131828 12.396835241608137
Ag 8.876782964606623 15.62194067573857 11.762679032304662
