48
Energy = -103.71923170 eV
Ag 12.939259425932645 5.027073004814335 12.151666406713746
Ag 13.300333527808746 9.856550560392506 12.11276524096646
Ag 7.055891037729877 12.752295742228949 13.225770689254663
Ag 12.93794384819659 14.118119998061532 16.72830816462817
Ag 8.751990996414623 12.065248567277482 11.20401035644945
Ag 13.638904327936128 17.12320383627688 11.214721752124433
Ag 13.269728124996806 11.146633999861427 8.097715913157879
Ag 11.327987154361592 16.888355677712866 12.855415885612315
Ag 13.506206304299711 7.237093767349474 13.816101482949044
Ag 12.142159662145625 8.98319207397212 9.623976416231491
Ag 11.433784501676593 7.394356785820264 11.967089062009418
Ag 17.487254301014538 12.923549479404791 16.11061215922018
Ag 9.123997648254072 16.495838194722854 14.58350663077412
Ag 12.196859771951802 14.603928404221591 11.211146371893111
Ag 11.122065929314763 16.782620427224728 9.940276722688315
Ag 14.118405546069564 9.719549202843238 14.904926633153545
Ag 15.26700335172891 14.589691905488053 15.158546674929047
Ag 9.783632000378525 14.266783966923741 9.825421791269386
Ag 15.853647557209484 8.672974146016797 12.798929658072213
Ag 11.404278679217787 9.368864893117452 14.111458144195733
Ag 9.443317695014796 11.536203169029976 14.092761240070493
Ag 14.854398444309187 12.058709933955628 16.273278723894393
Ag 14.529347260526903 14.967040819860943 9.50339252099157
Ag 16.723887848145846 13.731455060201059 10.682813704865916
Ag 9.614850105823784 14.240261708597362 12.862696451126803
Ag 10.32785177652852 13.934610888217492 15.664377257793124
Ag 10.177907968691997 9.788180266185174 11.638609347085179
Ag 7.600654625498106 14.253378315306648 15.492394788038231
Ag 14.204533710812182 7.230605203319106 11.064861399148587
Ag 12.224842887846815 13.84960032688155 8.459412848796164
Ag 6.821384166868396 15.727908750037583 13.27350274544741
Ag 11.044117795297746 11.623198517472192 9.661767228256636
Ag 11.610574888506216 12.137273009494342 12.463660254588808
Ag 12.162445925792703 6.139348709221496 9.613824395249207
Ag 14.38842619640454 12.213124390180148 13.408434951834183
Ag 13.916338767582511 16.891200502741963 14.059908042109068
Ag 8.836384836575366 16.671214330592363 11.62357192657727
Ag 17.091310973780967 13.329701412918975 13.411431299140308
Ag 16.7788870367275 10.733595041500863 14.466452345245735
Ag 15.973409890006865 11.910120682479786 8.772977745204994
Ag 14.916706086170112 14.90240124333879 12.36005728057681
Ag 14.980718610140586 9.570356437879692 9.860817424397556
Ag 16.47255425881915 11.121436033856853 11.622046706452972
Ag 12.536156997945517 14.416899546545126 13.995386958902396
Ag 11.644642512356587 16.50650961946835 15.72779865521791
Ag 12.132729948498358 11.76675390566715 15.346787576526129
Ag 13.89282025746964 12.326425581037052 10.59070896603391
Ag 7.1836275330269705 14.405711740807517 10.897720117962036
