47
Energy = -101.86824126 eV
Ag 12.667084560024342 9.419467773454748 7.451133716089881
Ag 11.920584995975277 12.015356648743447 6.489334440788861
Ag 14.487736082198225 9.15891176850075 9.628857642552436
Ag 11.150516914064669 14.720356037993552 5.7947193976261175
Ag 9.965416114248445 13.475612102346474 7.9259268164532655
Ag 11.752033948647822 8.534670544660578 10.031329293975524
Ag 16.26856134472763 9.110223120577535 11.8300091097956
Ag 12.860871654414998 14.29197516190255 7.902939026991014
Ag 13.647735252726918 11.722119290736503 8.742825279838979
Ag 10.720456191821727 10.839687711244991 8.809739113974576
Ag 8.604591356163343 12.191471260254902 9.9856386466309
Ag 10.016340356562115 10.21759132304682 11.657522886892027
Ag 9.13238106952955 14.96813240040814 10.232802860554266
Ag 13.667050699810893 8.131487567182345 12.182150518863898
Ag 10.892190721082965 16.16196209427923 8.40849526129781
Ag 15.084114051778977 14.079849501909916 9.53034680618403
Ag 15.66043610817978 11.543151098477418 10.707740941840807
Ag 9.37370740728294 10.895618362466838 14.431486345707357
Ag 12.7548913040553 10.756120748118704 11.377815862820013
Ag 7.438938601760455 11.203210012604135 12.409319453230184
Ag 11.757973149591088 9.429092450879326 13.865516537913521
Ag 11.476878105965026 13.17476984060485 10.333425646419322
Ag 7.007287319493547 13.894390678773023 11.71035559745803
Ag 14.429200118747758 10.787595429401572 13.595898760562065
Ag 11.023984072206328 8.114566357988238 16.188777227397214
Ag 12.964375489291621 15.734706582799493 10.350881162486925
Ag 7.637168364574483 13.293390835839343 14.45933593489193
Ag 13.105060766993786 7.005467764817552 14.698173792073758
Ag 13.80046150679037 13.2758024689034 11.928477417082364
Ag 8.89075169813884 15.679560173549705 12.991194019431314
Ag 9.632075323742445 13.001407399237456 12.496061348435646
Ag 15.565898397559776 8.329194060434768 14.419517902411616
Ag 10.607255743381925 17.105952891806936 11.12852106044078
Ag 17.136725987102604 11.430174576211622 13.176278929165056
Ag 11.268517330606878 10.842072211366428 16.50092780620895
Ag 11.993365389706806 12.249377749185205 13.841575089652036
Ag 11.638168479209478 15.036226213039667 12.757701850901588
Ag 16.56992866652017 13.961103635354883 11.901428146409183
Ag 13.625953836323934 9.34472416490971 16.140812520538972
Ag 16.146226025097768 10.760336713270558 15.783182008781878
Ag 8.97556095014723 12.401496496697838 16.817907374235844
Ag 10.216554127885761 14.215207122958798 15.075279987795852
Ag 14.437087784485072 15.730399346408243 12.906075602101428
Ag 15.523145970134836 13.395973282616868 14.454592491412052
Ag 11.569584306883467 13.436662153172044 17.381026135040873
Ag 13.056724864687766 14.620016056976425 15.180630895359442
Ag 13.772638256625251 12.129208423429482 16.267321567289056
