12
Energy = -7.1352259 eV
Mg 11.90453958096451 17.777586255871707 12.022858073198607
Mg 9.952965404832169 10.960337280357097 10.95335413491188
Mg 11.838719092866697 15.245212771148049 13.716741848806057
Mg 11.948219521133735 13.443608854695489 11.09063108297118
Mg 14.105171660105224 15.689702933459058 11.511582674315974
Mg 14.454110294623423 13.523827404383622 13.698383721145111
Mg 11.068918024029372 12.194839354183161 13.647788754463157
Mg 15.781746551049592 10.771531559067078 13.007743513788956
Mg 12.618634839056652 13.419506937108741 16.00581081357703
Mg 12.953181883191041 10.650708869000855 11.832437813651763
Mg 14.972168181971895 12.811846480274117 10.895704928930684
Mg 13.493431537541197 10.740702587455429 14.874328002327843
