12
Energy = -6.8910088 eV
Mg 11.287827808243424 12.68754222322527 14.262209800243664
Mg 14.207415183037327 13.696739290300613 14.555337554808764
Mg 11.967737753457987 15.336419387606128 13.056323762285595
Mg 13.507048245502382 10.862211319681894 15.25125042100666
Mg 14.70324558129372 16.580263189061547 13.426079683947716
Mg 15.203714541169765 11.398349275771475 12.795680765646246
Mg 12.333905804018904 10.429550371124382 12.458691893983705
Mg 14.438032463962438 14.082198823728808 11.540282629801403
Mg 9.278747755950768 11.406390476905885 12.327283699128456
Mg 13.89849714472089 11.520443952364145 10.064150807191501
Mg 11.534555463993605 13.09469737548501 11.132875046575327
Mg 6.789951257684409 9.592459408686976 11.850050595403841
