13
Energy = -8.41514572 eV
Mg 10.526224267939348 7.675107156822656 6.401431720649621
Mg 11.30189015593275 10.537851034117622 6.955376617837336
Mg 8.610679228821942 9.354971565200334 8.238931580125804
Mg 12.582959187503615 8.284792841295118 8.399902937246736
Mg 9.30794603153075 12.206701119531989 8.527974805455468
Mg 9.912289642555539 6.836437401538367 9.23143976306015
Mg 11.483462352341006 10.958694572017157 10.050949594734465
Mg 7.008103449841181 10.981917613215174 10.172366955968407
Mg 8.680229913421343 8.734664963705157 11.210483359237235
Mg 9.161674598465877 12.813090275132653 11.571430617164232
Mg 11.599776706351541 8.332352396071004 11.334393954596088
Mg 7.535683714748304 10.92166080065629 13.141360480375798
Mg 10.559254350163233 10.631931860312918 13.034131213165375
