18
Energy = -14.16679562 eV
Mg 11.50553171469967 15.743430779424905 13.664972208689768
Mg 14.809181887772839 11.79236379730046 16.24434528149538
Mg 10.719794769176858 12.768913296343236 14.437368504409177
Mg 15.969645202123614 14.157797852403212 14.843544241250765
Mg 15.577848731246785 15.445456024452678 12.072415801267574
Mg 12.213863829728853 12.150250211470752 9.620368410213018
Mg 15.693178104870801 11.449703199636602 13.354110693462216
Mg 10.864158401858797 10.848953919956509 12.018797771001383
Mg 13.357496821704885 13.34709411393053 13.02578316430945
Mg 13.767167923115503 10.258793763557136 11.348746898598808
Mg 12.882992022481956 10.403695318375192 14.280232636809599
Mg 12.95494288370368 14.347626107145423 16.096887864658495
Mg 13.282979144199826 17.51114227144813 12.011129735216095
Mg 14.29131352313275 16.60159730900296 14.627099747261088
Mg 10.498322096108428 13.776084490528124 11.521925921767334
Mg 11.90612629751753 11.636899667115575 16.911579804962265
Mg 12.977865864764919 15.052546054646522 10.369557556323043
Mg 15.076468207406137 12.822561109923546 10.510677096161043
