10
Energy = -5.02495413 eV
Mg 12.258291618168881 9.053737859940657 10.535577430611678
Mg 11.756622575022693 11.164576378174981 8.289743318114676
Mg 11.146069473122695 8.167389056663943 7.780330658113426
Mg 9.903111980271074 11.05623914457996 10.773917733309078
Mg 9.436058728604557 7.955016276824621 10.423538855860256
Mg 7.156124448256336 10.134627175595574 10.521761686451915
Mg 8.866638820547015 10.347491194946823 7.878910229179028
Mg 8.398835233992632 7.246357348770427 7.528792300342471
Mg 6.044244618531175 9.249159212670833 7.766399037002844
Mg 6.546103164031987 7.137506351832058 10.013128751014635
