15
Energy = -10.64082565 eV
Mg 11.301175278512094 12.233226408308964 9.359690394750471
Mg 8.90051940503813 12.121725933271325 7.092928585309705
Mg 8.46844316420088 9.10663201661638 6.372525314015135
Mg 6.364139215388607 10.612856030783579 8.124999493597285
Mg 12.60830311231548 9.336311182631094 9.76606366325019
Mg 10.61434848075542 7.391465673258512 8.16042173886607
Mg 7.25038807776665 7.761832174434969 8.770106311193306
Mg 6.99767812702147 9.83964232974502 10.948827799437232
Mg 12.16582875304751 6.5152815287278365 10.647267209571739
Mg 9.530216674112518 9.938077309445271 9.067196783891273
Mg 7.94223979892506 12.520014208532723 9.91557725863565
Mg 9.400666190988506 7.740771679300173 11.220706255576452
Mg 12.839814048327527 11.43751186350654 11.875883142778042
Mg 11.866757469673388 8.684188350495624 12.7684273018297
Mg 9.8358183112779 10.846799418292854 11.995714854648616
