13
Energy = -7.51009029 eV
Mg 14.719482026827583 10.047170331318132 9.00278387646782
Mg 11.75764144854246 12.070822898966558 13.146577621167367
Mg 15.338095109263238 14.177171807954078 12.537715561893803
Mg 12.618117009322388 14.973776860273956 13.767846849879863
Mg 14.383110045944772 12.276155277847101 14.837393100070722
Mg 11.51720625522918 13.148547867233514 15.944795539276445
Mg 12.279362599134211 11.465752783204834 10.019932028941414
Mg 12.419464096847104 16.151452879768904 16.660762310720706
Mg 14.84983443893566 12.985750435007903 9.583276956420507
Mg 12.508353457516318 14.342398819914472 10.948085011595447
Mg 15.2197152094349 15.31915907751682 15.315189899361872
Mg 13.929796285125896 13.846525968079968 17.598300491673914
Mg 14.568808146894094 11.175839322205206 12.091102220624146
