19
Energy = -15.46030576 eV
Mg 9.268678953465589 12.005633796408073 7.334328254349276
Mg 10.411355459293917 9.269800365564315 7.312193526186262
Mg 12.212048921377185 11.56132654754883 8.113451327276268
Mg 7.904679039444293 9.94415559619326 9.190791906521637
Mg 7.731629328525074 12.956409276512732 9.799542105489817
Mg 10.48497847770099 13.953677195583506 9.196840242683098
Mg 9.432045908449158 7.259209430651215 9.257412737760022
Mg 12.322313992447112 8.289039296947442 9.441476313930968
Mg 10.500222095169125 10.61420850072459 10.620266574507113
Mg 14.243915901564904 10.499273280758592 10.024956507752298
Mg 12.722971305203247 9.3308688487647 12.417684517439415
Mg 14.590643011724627 11.637464123223415 12.791375666720354
Mg 7.535604320664706 11.134143661263517 12.156592424713308
Mg 7.897118741261457 8.204977654059615 11.7303779168422
Mg 9.64989277098798 13.319319871830201 12.12703436647481
Mg 12.601607227404228 12.913730289724363 10.960481415627882
Mg 10.717112066567061 7.236595944174446 11.92501225758386
Mg 11.72947429566042 11.920642096411349 13.724761585950803
Mg 9.775297583996952 9.681113624563867 13.607009753098488
