11
Energy = -5.40513214 eV
Mg 11.284809023428869 14.41082037042174 18.953861747792676
Mg 15.542180707011633 14.289678401034475 13.060595562911747
Mg 11.30145100074753 13.688363097677938 15.961796889400858
Mg 11.242538100389416 12.73552601450166 13.150859306441587
Mg 13.878450126692396 12.286711231509999 14.867237614828186
Mg 12.911579066247207 14.510292291074514 11.279095498942848
Mg 12.759028899517695 15.516120798224483 14.060621638278054
Mg 15.100906392241587 14.981736873743627 15.911724361480028
Mg 15.576579888112251 13.481247495286926 10.125223701264423
Mg 13.738088165476182 12.995636206530898 17.750626466347374
Mg 13.963838217421044 11.646438608908227 11.977691962962362
