16
Energy = -11.19986979 eV
Mg 12.052085702507291 12.327687603364051 11.201763554646709
Mg 12.609407684493295 10.313436991697985 8.82247103848829
Mg 9.93968292527174 10.028888871227588 10.143282932664468
Mg 14.592393030909749 12.473429209846893 9.31638104016266
Mg 13.588164663868605 14.984545247183895 10.656638498597468
Mg 9.12071439637355 12.277164594982128 11.968246520892896
Mg 12.19695750136044 7.9531193140314125 10.63341181629176
Mg 13.255923573202496 11.758920257088182 14.09250867191746
Mg 11.39866579609776 9.662327116092111 12.927446217085816
Mg 11.058456653125068 14.9203302133703 12.413158811578445
Mg 15.505718386097302 12.739701569129053 12.129942095581843
Mg 13.888029523783437 14.772383393525072 13.645823290161069
Mg 10.141710151206716 11.504859946862169 14.863223853033933
Mg 14.273037948634874 10.059627604751377 11.543346249382626
Mg 8.756439972329849 14.17103257504653 14.239943763248569
Mg 11.598484692608647 14.028418093672729 15.378284248137595
