14
Energy = -9.41381273 eV
Mg 10.058242247317912 7.500339625640624 6.4275005083285945
Mg 10.16136427075233 10.324226718262512 7.699826254008593
Mg 7.447323466375147 9.067814540004187 6.40034836969049
Mg 11.928857983477922 7.88430848992499 8.76066869257819
Mg 12.52107327293699 10.799410435138094 9.520592815650177
Mg 7.153132207121338 10.839944012848074 8.807957629190312
Mg 8.773373298515365 8.056169060024562 9.186738727522677
Mg 6.841951342633187 12.593812855959177 11.226950779270675
Mg 8.453002867563281 9.789574454184653 11.589126290255308
Mg 10.629015064602402 7.700695637688759 11.531135200268086
Mg 9.847967640911174 12.056212747581512 10.103843090264766
Mg 13.564329570752857 8.54374965394073 11.30323352095667
Mg 11.462757177437279 10.523594816173077 12.386861660328108
Mg 9.214257186440932 12.376794549467165 13.111864058525049
