10
Energy = -6.4352445 eV
Mg 11.195545458689969 11.70944423309565 14.180528326050712
Mg 9.044964928686017 13.065548501162555 12.78503248687543
Mg 10.921082004435952 13.554798652577025 10.624682686434353
Mg 12.147428010938302 14.423144126582006 13.24561848507592
Mg 12.033822938995977 11.547081176970579 8.853293691813562
Mg 13.923258301742262 13.541289756762243 10.931922815549452
Mg 10.422560950243723 10.582121869696541 11.388979750619084
Mg 13.523097527211174 10.559655074058977 11.138105979824347
Mg 14.139129755053084 12.144898568218853 13.631538294033236
Mg 12.397143424197345 9.177741588095463 13.426327124246631
