10
Energy = -4.58405152 eV
Mg 15.16051642309591 7.399422934594638 11.232042059097147
Mg 13.038472506054434 12.745523244630599 11.395671252517705
Mg 13.77260799338013 15.705653005316568 12.310005471372985
Mg 11.51383063470752 14.098364266953382 13.757498668753835
Mg 12.137019275938401 16.98896129617519 14.60642852165216
Mg 13.546086099757632 11.801451709145244 14.328718049078716
Mg 10.848558408715787 11.204390540020881 12.932874382853488
Mg 14.195626226708011 14.764039677237589 15.254875111198373
Mg 15.035812194620428 17.649995864116814 14.416916263582342
Mg 13.246267900955331 9.732281660835476 12.048037897704596
