10
Energy = -4.76107701 eV
Mg 8.476907378077406 14.783902931121661 13.243272289205635
Mg 14.773784249094087 10.789930670296988 12.1272227320977
Mg 14.888264510859482 9.811887135974445 9.243422756553729
Mg 11.157764439006522 15.705243358284154 12.398074758878646
Mg 12.07207235015243 10.750513126302645 10.340709163943071
Mg 10.811457103353435 13.393630204370274 14.534582202476543
Mg 10.037835175672459 12.659425787354506 11.609189010640202
Mg 13.33637012721559 8.212713113256875 11.499547765331362
Mg 13.02139869782912 13.210280915328417 12.460108876178762
Mg 11.832683529493595 10.506063313676012 13.464769718391912
