18
Energy = -13.44600995 eV
Mg 11.471059447547393 8.814391551738531 11.349316447126673
Mg 12.84596329903733 10.354439117000574 9.065953814241482
Mg 11.351839028356837 14.021250598867473 12.526589014211517
Mg 15.514573171110028 11.08317605931799 13.377977854144302
Mg 14.447775498902029 14.259844368051994 12.217860745363971
Mg 13.033122500118651 9.198393347897563 13.892578751498691
Mg 14.562326121367564 8.999102969896057 11.228059858751026
Mg 12.947588350402972 15.039418384918191 14.899607845782871
Mg 12.408968439406888 16.119031880106803 10.720566466542147
Mg 15.526006647569233 13.613913611049782 14.974817703511132
Mg 8.509554872531087 13.181952174803401 12.387351802752718
Mg 10.291777519609408 13.49451501805885 15.217154688256466
Mg 9.799423870905754 14.514534732473242 9.886148255347015
Mg 10.519939321696079 10.93047645487816 13.446312413191885
Mg 12.958940429687216 11.95698064062943 15.192178421494265
Mg 13.049619036372325 11.629453131972925 11.84833323801887
Mg 10.222529521206441 11.496289975711113 10.377027134490001
Mg 12.615952021323293 13.369795079778967 9.469124642424976
