18
Energy = -13.13483608 eV
Mg 14.80243361643709 7.302341283101589 11.229539491648424
Mg 16.724483230115393 14.149806466341598 14.190679090119392
Mg 11.121141591840946 15.351010242537132 12.91086139343203
Mg 13.551908917805285 17.28945274558304 12.253686730097346
Mg 16.177645079327057 15.786901736914409 11.708846748897221
Mg 14.277663590602051 14.710473253646514 16.497488977797133
Mg 12.22335838063504 12.280719738473634 11.91072494225424
Mg 12.662331626831003 17.116016546842808 15.12456276155732
Mg 10.936362627260717 14.983901188844943 16.23125360927942
Mg 15.600856640938881 16.857528006203083 14.522813237449986
Mg 12.232832228608137 10.472809021786437 14.34957288062162
Mg 14.884173989546092 11.783058114245652 15.03820407841272
Mg 13.689582675205529 14.239078564564466 13.68817610751226
Mg 12.364493576890219 12.389475007290786 16.660560536897076
Mg 10.333002806609255 12.785132534263258 14.286346762021303
Mg 14.497367185644757 10.18837230364156 12.401304546835451
Mg 15.665086566708226 12.78576979033049 11.578510055026994
Mg 13.510613163603661 14.826395563911468 10.647877087115601
