15
Energy = -10.25607809 eV
Mg 11.695232518967146 10.831737068259784 8.573379604246298
Mg 13.622096516734695 13.134004335517877 9.308793948331093
Mg 14.193957413308826 10.333396345230826 10.297486215803929
Mg 9.173606100676798 10.226484732787554 10.045807866783841
Mg 10.580892267681483 13.167879261885298 10.368537662437124
Mg 11.587087576329573 8.441289025560138 10.46948451783915
Mg 12.828362006386913 15.191170994840366 11.313159828111088
Mg 11.950344385024842 11.022937845474525 12.15538104092833
Mg 8.857574027860064 11.768290438335434 12.55036156583368
Mg 14.650326853902772 12.767941784775415 12.172970822816264
Mg 9.586731959489235 8.82033400520382 12.788354372451016
Mg 11.060887931455147 13.739775069268577 13.40628203993415
Mg 13.808050125247615 14.907494012327906 14.107846061926704
Mg 13.230529197169917 12.121181239288793 14.85756859254844
Mg 10.485702200223768 10.837464921702473 14.89596694046781
