14
Energy = -9.20114267 eV
Mg 12.698799470497757 12.979023876740865 9.150724919777485
Mg 11.461184613223894 10.327233095552877 8.46631458051408
Mg 9.742923336946554 12.647931655837441 9.555479467111937
Mg 13.954013142755093 10.381876030151762 10.22202581304455
Mg 10.672170610307779 11.468923627735663 12.390135367465325
Mg 11.61305656818522 8.82227331136285 11.173192764893827
Mg 11.212761941409504 14.401660852583616 11.567102791576941
Mg 9.000050247786502 9.884899669098475 10.216508797223431
Mg 9.830569983129536 13.890015575451493 14.214956334788939
Mg 13.783719673077675 12.84431170801144 11.999565889087979
Mg 13.307191652492198 10.127153840291232 13.340088984440763
Mg 12.76927780062314 14.691819019722667 14.357810498676555
Mg 11.970555441816062 11.996046093054098 15.439062166222552
Mg 14.87233602361265 12.425442150269088 14.795642131039575
