16
Energy = -11.4748999 eV
Mg 13.368081335283202 12.46683414809668 9.067976151230598
Mg 13.743064180117793 9.69994073039488 10.182011374045814
Mg 15.786917203416163 11.885310396733004 10.598890534371805
Mg 9.255127283855414 12.343738902342334 10.66588885103512
Mg 9.875109911801346 9.585130981851352 11.68461202594152
Mg 11.502750517643575 14.352247263393705 10.506017171739714
Mg 14.53921901932074 14.63348616840012 10.853746718693232
Mg 12.145710347162733 11.669864624546122 11.953180212274743
Mg 9.488952267581034 14.481584059868238 12.817508879635156
Mg 15.529989323811327 13.240754085985586 13.29470740492507
Mg 12.597855208629094 14.392956616850752 13.322817829150393
Mg 14.917737217735741 10.28920007495233 12.884297018675083
Mg 8.538707170159917 11.669471755502768 13.415987783984907
Mg 13.267431427077925 11.873177731534849 14.852912171977028
Mg 10.805346877383016 10.16718195212999 14.482764736531406
Mg 10.479189425911635 13.090309224307807 15.257869852679187
