15
Energy = -9.49713864 eV
Mg 12.511956873013053 13.057932733153942 10.318127407512174
Mg 9.55874062763199 12.617883523484178 10.0408646154502
Mg 12.20246271307688 11.109737989014652 15.371104643179121
Mg 6.683502640347142 11.016440450471366 9.931721519151521
Mg 8.380073930640748 10.97947527852796 12.365513302767878
Mg 10.821883637693293 12.931677171322374 12.788087960690662
Mg 9.94581656328364 9.36044744448857 10.163350461285367
Mg 15.81801284262652 11.247172723327479 10.82881017972176
Mg 11.141547749069519 9.595820801765486 12.90067474740919
Mg 13.62660767092026 11.553483031656574 12.821921420290538
Mg 12.911188549728369 9.762720287396345 10.432201299562616
Mg 8.568133575641802 10.661272901527207 7.707307973768654
Mg 9.371377714050208 11.488814446761873 15.090000504451837
Mg 14.367574116717751 11.633171427237421 8.303552875174907
Mg 11.45752006816559 11.154441115106627 8.06023537979709
