17
Energy = -11.35457615 eV
Mg 15.173915873126267 12.324421067702948 7.0045772173100795
Mg 14.191679237634295 11.712076549171428 12.371485622170082
Mg 9.337649560509398 14.14930970965982 14.812902649128434
Mg 12.719953028339848 11.283089762208494 15.009804563731127
Mg 15.821736413104825 11.586277552938947 14.923153189180521
Mg 9.697761690755687 11.22940648567715 14.990558136622424
Mg 16.640554210623087 14.471241456710711 14.717244750947858
Mg 11.677288875770072 15.773515085698872 15.993789803321393
Mg 11.223886345520581 12.775849950378117 12.859876847665156
Mg 16.16643229360246 15.292175483438655 11.84917455621045
Mg 13.953312633798937 13.796553760113976 16.208194971994423
Mg 17.136609104120748 12.447032257828052 12.43618451367084
Mg 11.153520822817905 12.972944875728803 16.982283815506833
Mg 13.3093959143525 14.413377542220644 11.37023618614567
Mg 11.03958439793757 15.782352794597426 13.05107605933802
Mg 15.603472209594122 12.981587693729535 9.977639726633766
Mg 14.06348705350885 15.829668473004393 13.95100243832618
