10
Energy = -4.53817817 eV
Mg 9.225052996582633 11.247837972565645 17.538416083994626
Mg 10.831080558765201 12.385613500094173 15.152422149009311
Mg 11.665181549910864 13.813331161284262 12.642353119423479
Mg 11.573092571115437 10.680902217073712 12.74332495516777
Mg 13.775003220919656 12.303975794707902 14.400019019138675
Mg 14.374300751348821 11.138956337039241 11.664590038536064
Mg 14.754552121401623 14.13317612557236 12.115078437392707
Mg 11.969531818751818 12.084166647201489 10.024161367346425
Mg 12.741015690301538 14.994978057206705 10.046166405363655
Mg 14.819753265543914 12.941310263217893 9.288439456309668
