10
Energy = -5.99579721 eV
Mg 8.490915091246292 10.988210085015647 6.153988192482391
Mg 9.526460387888177 8.379659856518696 7.24031796961006
Mg 10.293093769496016 11.258936908814844 8.544451260607035
Mg 7.24018843603031 10.127670848229872 8.745098302301784
Mg 10.503389040563118 5.906696388870452 8.653306446945944
Mg 11.393871084348614 8.49884252637723 9.882550260662313
Mg 8.35200633700494 7.401107325323692 10.120116145530544
Mg 11.974123770033462 11.198036624418144 11.043473617085857
Mg 9.124177851896818 10.288113594467932 11.395899889266277
Mg 6.328732180276645 9.179683790747614 11.447755864292319
