16
Energy = -11.52303153 eV
Mg 10.571577507578308 12.06683117514018 8.607662481608866
Mg 13.351083511301876 13.07563406475509 9.176310789179414
Mg 12.908583278527319 10.117268419411834 9.290299628533509
Mg 10.128472484025602 9.648074853146735 10.549479541170516
Mg 10.841942786248316 14.571661984756904 10.225032879139922
Mg 13.50435869027172 14.440370056102369 12.120617532941262
Mg 8.907005435950042 12.332720197144956 11.103686111493404
Mg 14.820713002657216 13.033488936804238 14.5084934295632
Mg 11.908791611144816 11.925199085148229 11.627981948615908
Mg 12.687545215701135 8.908080419885342 12.114921177701364
Mg 14.779715028805908 11.480472677475513 11.979632894172864
Mg 12.775659096221796 15.259157708171502 14.879254683958148
Mg 10.550503607346696 13.858464675657137 13.482113298684487
Mg 10.635093208425833 10.64576010671322 13.94324110350954
Mg 13.687563726370541 10.238799696445225 14.659984091521034
Mg 12.021213539619351 12.477837673438 15.81111013840329
