16
Energy = -11.28444536 eV
Mg 11.064500648533302 8.125987018354863 12.823327885466016
Mg 14.564947120039433 14.041039161548438 13.96575738681545
Mg 11.727221726528079 15.044074061243498 14.402950626416665
Mg 10.34609058573083 9.305298975634466 10.095666947262124
Mg 12.389208477880985 12.001313318531388 13.071624609532
Mg 9.860319463529978 12.631279389512496 15.041568141739717
Mg 13.98385719269265 13.820652139989097 8.94497276212296
Mg 15.71300250725012 14.87973751762373 11.269394780836434
Mg 11.746703376828345 12.060455727333613 10.068759451455929
Mg 12.638032162033664 12.786710922135601 16.160580200691054
Mg 9.976750229826264 13.727605786296602 12.101121189781255
Mg 12.687244619361381 14.939818071315809 11.54147615082204
Mg 9.453047723127687 10.77351946982965 12.644514442629516
Mg 14.845952691019365 12.029604772936928 11.264509137940994
Mg 11.364645362187503 10.031882267369314 15.177953313241375
Mg 13.17003906298385 9.493238882558414 11.195730521272626
