11
Energy = -6.09007386 eV
Mg 11.063337169382077 11.51152366638496 13.79118433504555
Mg 12.398472401063506 8.738230158906225 13.126308266898574
Mg 12.483869816570461 14.161716495509596 12.849780161821966
Mg 14.021855142730034 11.414741432537573 12.792111781079567
Mg 11.690828404812509 10.51403082425106 10.871539777670483
Mg 10.969978281037491 12.623570568720453 8.535687587474042
Mg 11.54190009980406 15.245427379593997 9.955586678477344
Mg 13.313630264103233 12.9814902382074 15.430282240564233
Mg 13.577503979588517 12.912096301035975 10.203118625263654
Mg 13.281439552665631 10.038061972359678 15.622585238231409
Mg 9.935121500843728 13.036137680167661 11.436302462954314
