17
Energy = -12.37420397 eV
Mg 15.327516909211672 11.532346201488187 13.498708842291064
Mg 13.060077501707795 9.759056236867915 12.488284356128013
Mg 14.431864074888255 13.760463730312221 15.271883019847714
Mg 15.203190557349961 14.297977135740833 12.377865570068648
Mg 12.98457002165991 15.964903751544826 13.544012409044576
Mg 13.854130637982836 12.003078463744757 10.69472544985029
Mg 12.39991780589847 9.381563886743077 9.579392313476067
Mg 12.711986729578587 11.136317159470575 15.179808854075256
Mg 11.053562822869434 8.652426147669162 14.456603814753361
Mg 10.145054168531717 9.009239801412233 11.511951203149875
Mg 12.762654393301894 14.86087979994228 10.501099777166269
Mg 11.992681390486274 13.123755113998696 12.956278131397191
Mg 10.722398747822922 11.821467957498012 10.437792436384404
Mg 9.824437305102611 11.19841948881757 13.561127430361454
Mg 10.32691965336534 16.106699830763933 12.08049996892726
Mg 9.859664966895757 14.67350163601639 9.465885420717028
Mg 8.740513624750434 13.576834844911284 12.041705260485086
