17
Energy = -12.72377731 eV
Mg 11.94477318504286 9.254700056181369 7.812486865885913
Mg 9.72399910437987 11.013576151629511 6.675505971582012
Mg 9.383005246873077 13.812009618359715 7.54156613775731
Mg 11.921444088311041 12.367217450844459 8.43921106651552
Mg 8.978190779740338 8.822590672110165 8.723703630256926
Mg 7.736050434225303 11.679547626983172 9.007509394358285
Mg 11.113618240328579 6.727409363269282 9.490041138979276
Mg 13.917366813887108 7.66052435370114 9.53778875209101
Mg 13.511424321210656 10.536267798329547 10.254834357515968
Mg 6.6720163703335285 9.384444268827831 10.708392302212452
Mg 9.8500420991456 13.522391999291239 10.47267727606534
Mg 9.113178348811058 7.640109773600435 11.607481998345497
Mg 12.194061066195422 8.281954332606903 11.96427945615366
Mg 10.521025627831868 10.586503753058837 10.614804360037562
Mg 8.060918435984355 11.764018019673728 12.17191402900163
Mg 7.308356796080366 9.155518957264924 13.5758611725952
Mg 10.184082898744917 9.924769661393405 13.535495947772393
