11
Energy = -5.82705665 eV
Mg 11.089802112286606 14.10910368568112 12.519683269732752
Mg 13.081100051518014 11.75337137618747 12.389391764722452
Mg 13.946238392988255 14.472871131267732 11.306113640970203
Mg 13.424196923399252 12.32605563129627 9.254899853988054
Mg 11.58067082983709 14.70196090258759 9.491912233186634
Mg 12.50577457212909 9.669572261777294 10.113683572208142
Mg 12.137344506513076 8.999919333297102 13.11934707703404
Mg 10.105967105301739 11.48262692808613 13.461927044714786
Mg 10.427991588742843 12.011747829405902 10.352525929486404
Mg 9.624855265874917 9.242570315828267 11.175312375416985
Mg 9.32925185076001 8.483393803936258 14.068396437890561
