11
Energy = -6.72040711 eV
Mg 10.433887603462228 10.954639631800271 10.303974102837202
Mg 10.9713330547927 7.97968099840138 10.61513782081351
Mg 6.320909073579475 6.771309659600035 9.255841921603583
Mg 7.093364146707043 9.424492454326039 7.764082191688471
Mg 9.23777256857061 7.294658871821474 8.215200891537254
Mg 9.446393307017916 11.427321081666523 7.4764802484239326
Mg 11.554977149136453 9.298415646705113 7.940719525843528
Mg 8.639928420640313 5.862680130418655 10.993758687022089
Mg 7.498314735168261 11.752640636516364 9.756063971859609
Mg 8.099900836688779 8.975196198997672 10.613764413699192
Mg 9.394603269373816 8.950348854884066 5.756360554946558
