19
Energy = -14.45276462 eV
Mg 13.563383642489173 10.24260013287342 15.033799592354656
Mg 12.20484267426064 8.479720895863371 13.09306171390727
Mg 14.363837145451772 10.278804496967656 11.912066288847155
Mg 15.131800803965719 12.44762549392963 14.166416074359864
Mg 9.349003350192381 9.088983871246807 12.663703214528288
Mg 10.611866954774888 10.356451452670218 15.011132667018973
Mg 11.508653399898014 9.493161234280395 10.304235217418796
Mg 12.015606722088423 13.049895141352975 14.746989676134731
Mg 15.443268391764605 13.063350993327981 11.293182688018018
Mg 9.151484597220518 12.271761018151244 13.144015608957005
Mg 8.499416076302982 10.643372270318201 10.439012351387355
Mg 13.357186717244158 12.118890975922561 9.283529321427967
Mg 13.854667869069097 14.936040511060334 13.213142308948967
Mg 11.893620819521429 12.008045384864072 11.919306103592255
Mg 10.446568295923795 11.69911973083918 8.486122546599919
Mg 11.011480226115264 14.885728204304868 12.114653938805501
Mg 8.856460273034113 13.575058239500045 10.403179034560441
Mg 13.643643366957093 15.170608036295892 10.279512197908074
Mg 11.229385544614987 14.510587036435727 8.92042012121041
