12
Energy = -6.77029563 eV
Mg 15.175144616762918 12.366808955370123 12.095304088717484
Mg 12.853733812565164 14.958667821876727 15.982405460951357
Mg 11.216730900955769 15.3509357149857 11.127227380156125
Mg 13.276865972723444 12.118482966211339 14.454634401062476
Mg 13.330402342661861 16.166307891718525 13.172203589422624
Mg 14.636300351766648 12.950157630137578 17.215417839045756
Mg 13.851458695273317 14.358106084713986 10.172296522632607
Mg 11.064660353080424 14.151717630503342 13.778271957115374
Mg 15.978331565701783 15.456433987384047 11.914235489422362
Mg 12.175345093545017 12.217886086209433 11.668719692045228
Mg 15.476301513861786 14.20448523760169 14.53021120968029
Mg 15.973992581711853 11.853240297357951 0.19273755390239466
