10
Energy = -5.60515325 eV
Mg 10.206167859609357 7.561188279597979 14.244542804785294
Mg 10.92546726218097 10.484725013786836 13.33954358463582
Mg 13.566464303869196 11.915331873740818 13.947647521375966
Mg 13.100825488960119 10.562643700400034 11.186661284745838
Mg 10.85103155424694 13.53497896673733 13.618959329012995
Mg 15.424341763920749 12.514220501061674 11.587848608823506
Mg 10.384507052300826 12.183373360392501 10.849501289519008
Mg 13.583727758518974 14.768176270939573 12.546974705430683
Mg 13.117032167741975 13.415519268147282 9.78118227641733
Mg 10.959292433447205 15.184514359683739 11.035669968005989
