16
Energy = -11.52311922 eV
Mg 10.509113209385655 10.956049462904012 7.448716803739589
Mg 11.34321982596726 7.528715324270992 8.208649082036283
Mg 8.484544341346703 8.029586532607764 7.503373235978059
Mg 8.949938284145762 13.211085746934684 9.02993867231705
Mg 11.957468538892043 12.98808319395093 9.045563864057836
Mg 7.307196666475082 10.75478307883845 8.30741381974394
Mg 9.243851068265851 6.246037379669821 9.945421115057645
Mg 9.741964308909202 9.554540378807381 9.9016767609463
Mg 6.910355904709721 8.311810821351255 10.145366550517894
Mg 12.701716177339902 10.083594837665784 9.707429594453552
Mg 13.200319978958769 12.225619498243217 11.71311988657748
Mg 8.07750535524662 11.391774438091524 11.462589767343266
Mg 10.347881396194682 13.278704680992687 11.704599591446305
Mg 11.662902503274605 7.393120673116555 11.270104757115508
Mg 11.002598306815068 10.383932283346878 12.505167477305681
Mg 8.848885360070337 7.952022895204895 12.390330247360726
