18
Energy = -14.01466992 eV
Mg 12.136486735087228 12.947710998405919 8.926491882589128
Mg 14.805290887130083 13.201868784202858 10.309703163484116
Mg 9.254920454814986 13.175609616641323 9.441695913719085
Mg 13.854035261786203 15.159914323995164 12.576899107880426
Mg 13.498101176749822 10.376089714299939 9.456728276259614
Mg 11.179656561427329 14.887900892459946 11.08060998660083
Mg 15.566177212691237 10.443110059443155 11.714380988239194
Mg 10.57082201074536 10.611097891513731 10.55277343810781
Mg 15.986197766978497 13.049203409073765 13.096129667643343
Mg 12.58047867977805 12.366286436262769 12.293106963870212
Mg 9.236662326079426 12.861156826700444 12.367067464677614
Mg 12.859693018673434 9.199454522923675 12.0849403108649
Mg 10.65910723500309 10.474282712863321 13.74806753095461
Mg 14.101322567910945 13.95094070990837 15.286319643489755
Mg 11.25622103530415 14.632470029945338 14.183393609243902
Mg 14.165920950227033 10.769216742728746 14.434399456727519
Mg 9.175291205510018 12.667442726764842 15.290193267051299
Mg 11.968872077750914 12.081500765514244 16.012356492244322
