11
Energy = -6.23316787 eV
Mg 12.826200373071073 14.44268350877692 13.67721936064058
Mg 11.596735668024607 10.90732405051385 10.198386948939694
Mg 13.443154336681607 13.472523289871521 10.782133608712787
Mg 10.412365556448691 13.213073150224 12.042314587806976
Mg 15.48832464967364 12.793570025930538 12.997259922090164
Mg 14.829321963828953 10.767686609923489 10.6985793125972
Mg 12.763439741322982 11.444651284198384 13.144656907088574
Mg 13.657133655716747 11.798817205115542 8.078627654455827
Mg 10.527029191029444 12.765111252256782 15.179315368589538
Mg 7.80038952303207 12.283853433538377 13.863131951962691
Mg 9.855613023893502 10.310344488140583 12.741260702153431
