17
Energy = -12.98766975 eV
Mg 11.162022249244327 8.162719299806959 13.188111185390058
Mg 13.671435804999849 8.622255094505253 11.658987477614357
Mg 14.612558392224702 11.47336252769753 11.358315261786084
Mg 9.432124426812845 10.685677940565201 13.70993533204941
Mg 8.51430571181059 8.367018112839734 11.838321054652367
Mg 12.6652662758358 10.889146884833897 13.569682768321064
Mg 13.396250781657661 9.933660754500613 8.986024436703062
Mg 11.03198319978769 8.198564442337226 9.976821698758789
Mg 12.515579381298462 13.522457338475158 11.943367443979707
Mg 10.954557308118066 11.003541605764829 11.032112310674394
Mg 9.28861148947663 13.336285223292265 12.115555458064607
Mg 8.456039423498822 9.712271736779526 9.178725687317577
Mg 13.369214798527507 12.911695218077679 9.012090889568148
Mg 10.744458983823588 14.252452762649712 9.49274990913166
Mg 7.303034793259837 11.12893021903326 11.661558491654258
Mg 8.219589345570316 12.690037327941711 9.246335360728267
Mg 10.817855241524624 11.372900477655126 8.059497163419717
