10
Energy = -4.91305789 eV
Mg 16.5288224516729 9.818090981608178 14.496169769720359
Mg 13.54609519372197 10.656880510138373 14.127430474241034
Mg 15.713552188823398 12.286129369689293 12.8256792147772
Mg 13.41276179259163 11.293412594121712 11.036520677531923
Mg 13.02095992131494 13.663756496822828 13.513686205599658
Mg 10.799685546999227 11.594983630558447 12.989883724500945
Mg 10.657878060794621 10.83298415405905 9.844713822406819
Mg 11.490956094771537 13.649460349632948 10.697469214692504
Mg 10.133895295089173 14.59650769321026 13.400957594299172
Mg 8.619380056183768 12.808236494332766 11.328362658755596
