10
Energy = -5.80470172 eV
Mg 11.848787720188703 8.062334955414222 11.430611849493204
Mg 9.950683196375115 10.26484381406308 12.372762104390613
Mg 10.85379593418063 12.443310899399703 14.261814997499323
Mg 12.979750520836689 10.343041370487777 13.27280318318221
Mg 10.087784969848965 13.046576069985553 11.228611201249448
Mg 13.768403633669397 12.899246811441605 14.698776806372466
Mg 12.234405522853722 10.94422203816391 10.274698978173797
Mg 12.193768874786269 14.658771242639208 12.688733623749904
Mg 14.307463470157401 12.618028795090765 11.741092626757132
Mg 12.487385041172919 13.901914566069317 9.69948621246581
