18
Energy = -13.1642189 eV
Mg 10.044343277907819 11.045059085630674 7.261940373477669
Mg 12.980973734579713 11.053985682904278 7.591252845466685
Mg 7.07125090769281 11.155016410842993 7.214588551465251
Mg 11.542682513319555 12.586435431582728 9.775323825630853
Mg 11.306764946107405 8.2793899643193 7.986425688575028
Mg 8.580806607799548 13.144396036053593 8.964942934131326
Mg 14.294143446807519 8.44816874638886 8.42478978450242
Mg 8.2296462173517 8.632283545095069 8.523887808464627
Mg 14.001848684586468 10.836997634529189 10.385366632257567
Mg 10.262748873538955 9.900196899327 10.276764551268062
Mg 6.9953952410303755 10.797890249916225 10.19836341406647
Mg 12.636800835934503 8.019695564527929 10.854167417429654
Mg 8.062928327404226 8.39767115181635 11.732917432510796
Mg 12.033019008822489 10.785434946332698 12.61760781864645
Mg 9.228864502372366 12.287023746384758 11.868673683893281
Mg 10.718960943091215 7.852898159354702 13.139276241910899
Mg 6.810545983976296 10.83474863353342 13.23625489667904
Mg 9.550653113158209 10.295085276940235 14.299833265104798
