15
Energy = -9.82829284 eV
Mg 11.021002007175616 12.384391322827222 13.465442144916903
Mg 11.816303359770883 13.153150137340853 9.206239787166421
Mg 10.801388321509375 8.186676242634585 10.3000868955849
Mg 10.108295813610518 11.218590884275978 10.660460771159157
Mg 13.48776324583941 10.727996166987785 14.075085884302794
Mg 13.87266717805702 15.972774153335596 14.47601374719264
Mg 14.94274884723212 13.362441413993219 13.463895033610267
Mg 12.867664929982606 13.404632109544993 15.704985446216181
Mg 13.495075855444005 8.772184519707396 11.533739385722418
Mg 10.90679067331615 9.409132109319259 13.032189100739245
Mg 10.014366177935035 14.351707912105592 11.416027426428329
Mg 12.49005320979459 10.256198100930185 8.912563568136568
Mg 12.910216029034117 14.88924870339491 11.70476678812853
Mg 10.952718035192959 15.350642299683011 14.067513390176957
Mg 13.588589319821342 11.835876927635418 11.25663363423418
