15
Energy = -9.92077394 eV
Mg 8.138576067482093 9.867054685315727 11.537044236517414
Mg 10.692057741101591 10.676959171345432 10.747198365980312
Mg 12.379705874534478 8.306672057144173 9.398084119670363
Mg 8.344671529661209 12.865521109209203 10.557749225006967
Mg 9.783055529206282 12.307037026554559 13.2996344564138
Mg 8.02968062763837 10.658499607781602 8.321953250862984
Mg 11.352892926113388 9.923884733998593 14.284185986675729
Mg 12.858168112304195 12.268253539182679 13.191810380921854
Mg 11.234773497914052 13.736906538528775 10.964543412281982
Mg 10.776151635090503 9.951530465668737 7.257268287164352
Mg 13.402278972590489 9.514950283728517 12.094050776385522
Mg 12.958549349733946 11.467884033964358 9.315091265774111
Mg 9.367855123540911 8.094199731033415 9.178384116125894
Mg 10.200760850601661 12.742289516595541 8.176855461868554
Mg 10.781101081379637 7.871958050165585 11.980608962141291
