18
Energy = -14.27014175 eV
Mg 8.106958887464538 10.867539828818659 6.896152887676299
Mg 8.15338349301595 7.881630249153602 6.749379484144594
Mg 10.802193120504219 9.340431003420642 6.964196733676525
Mg 10.494713721572742 12.356739957235101 7.915731629916736
Mg 13.125799132007886 10.879991851133578 8.224628513149154
Mg 6.991970626613769 9.169589786197479 9.248091467377742
Mg 7.758624116677028 12.237473671333419 9.528199916233726
Mg 13.69728568171992 9.843926606658115 10.977880469604637
Mg 9.619913236196695 7.2522366900777335 9.218710584726287
Mg 12.542115406309668 7.971548808787836 9.043059271532536
Mg 8.060436849719727 7.791118892401647 11.744976334318958
Mg 9.336869516652136 12.414347464515185 12.150455191396194
Mg 10.035073383577226 10.159081797323713 10.075481287096064
Mg 11.19183018792418 7.984207155617588 11.891744430131636
Mg 12.095484964038535 12.521842656555346 10.52051746370288
Mg 6.909734963892338 10.634827983516889 11.943165986214527
Mg 9.125907372171273 9.680450469164704 13.72658672805304
Mg 11.746570535117511 10.807880323264381 12.975906816223658
