16
Energy = -10.80704123 eV
Mg 9.053750929795607 17.149102738248185 12.756672702648169
Mg 13.549431978229853 12.281634569966748 12.157944262077384
Mg 12.109401695071918 10.54673460268875 14.200861223401251
Mg 11.674046902454178 15.70364154889756 13.916397739866488
Mg 14.011599137896129 15.291823855149415 12.012826857684594
Mg 10.667817950048237 12.8513165724752 12.708535238003446
Mg 16.63966301871286 12.137312362134145 15.550499940256499
Mg 15.185411889077605 10.342805186841444 13.85594633307309
Mg 14.191376432797513 14.074668450020171 14.800937313448168
Mg 11.888745727192617 13.975198190162388 10.159609894159267
Mg 11.399491127629723 13.208513828369929 15.645520753945451
Mg 13.811614013629917 11.443906700986467 16.426479012212745
Mg 8.84136649986817 14.62325084050193 14.263566862431013
Mg 16.319769917826292 13.174294282133873 12.809569164461415
Mg 9.048223894531617 14.843459986561273 11.056369289460806
Mg 11.4993459374696 16.76965662285503 10.99269624010515
