11
Energy = -6.0079221 eV
Mg 9.064045955560324 14.314355887314079 11.92510439638371
Mg 11.985008831646578 14.768819231227775 11.17397205690082
Mg 12.856871429122862 12.403829154243464 15.857562460556816
Mg 13.257474056903268 15.028386150977838 14.011706597406318
Mg 15.877514786580715 11.253171788186734 12.054755225204788
Mg 14.508982647600666 10.117064103098249 14.583101703464344
Mg 12.890276339679707 12.172652049645574 12.781408902990776
Mg 15.530464126879878 13.002002545175726 14.43541410477792
Mg 10.495900210773703 16.52537737625646 13.216662768686467
Mg 14.974550825346313 14.191674245908638 11.60532445311761
Mg 10.51350679310423 13.609290726564513 14.405467731251155
