17
Energy = -11.7593829 eV
Mg 16.87355592981462 11.903157313152207 12.538141844241764
Mg 13.101270019030462 14.219181121995284 11.348839244559263
Mg 8.734807006828971 13.26460342640952 13.734419141505622
Mg 12.535937617439963 10.813293378576398 15.527379121759356
Mg 14.526414918910719 12.924348282469822 14.04795518037065
Mg 15.064714458139193 10.112315598239496 10.836658020584657
Mg 12.88941660243336 11.79464378351404 9.386049021168786
Mg 12.650319792370006 11.065055367202286 12.280799098353564
Mg 10.568754616824192 15.723675639452678 12.459298463062478
Mg 10.115517716910595 12.481034925617898 16.338520640758823
Mg 10.17905553414034 13.064112440616109 11.079337873897154
Mg 15.014758738968181 9.84304367681355 13.92077315345076
Mg 13.194249423578137 16.048622669197815 13.922128915975506
Mg 10.879142974259974 15.37735379817985 15.756509465967339
Mg 16.003662960814 14.880620200929048 12.320418316770512
Mg 15.558536087907706 12.977010934210472 10.055169310272865
Mg 11.639645537739844 13.237597210909115 13.923926441489874
