14
Energy = -9.37389655 eV
Mg 11.339309683345757 9.973605025193564 6.937937503009191
Mg 10.229481776969589 12.799719890030358 7.358059308019843
Mg 8.268986603547853 10.44528302820938 7.411972772554179
Mg 9.706397883377353 8.11627663592629 8.677439580931955
Mg 7.786865200419433 12.857934122852445 9.171532693696056
Mg 11.839464898317864 9.825364967917894 10.036394570711987
Mg 12.993093567390481 12.050232906620423 8.37714600787759
Mg 10.666829661146492 12.697391104486814 10.369112017514079
Mg 8.636941719915239 10.312572177071235 10.536477384968618
Mg 10.096683928013318 7.659027350855575 11.76362202685024
Mg 13.111801215888114 8.549387897566962 12.622530269032843
Mg 10.776170404848934 10.934798774194023 12.828924022543669
Mg 7.935169998299198 9.3616131587671 13.473132255826949
Mg 10.698724361157634 8.502713862944763 14.521640489100061
