14
Energy = -8.99974112 eV
Mg 10.413218987591637 10.618584443818346 14.970591805849669
Mg 15.344106194196755 13.468198126303225 12.81036334685088
Mg 10.814475049277075 9.822825349783335 10.633159288358481
Mg 12.564738512708006 14.079628143772295 9.049107598989826
Mg 15.47224721854453 13.36379164929584 9.74391969922537
Mg 14.571534866924766 15.889650754401698 10.814605998261941
Mg 12.951509632590748 12.077232374778465 14.234476438354886
Mg 13.212977590220076 11.53571829034177 11.086422173747117
Mg 12.368322133321868 14.263167410601616 12.195485362110672
Mg 8.540951728135822 11.087005063216456 12.483666529070884
Mg 9.69014646560092 8.377204021276729 13.095532597910449
Mg 10.043248719989144 13.304284871749019 13.765912611894894
Mg 10.25446705990272 12.742058340193994 10.637464527469934
Mg 12.601572444303462 9.367997136269178 13.03838762378301
