13
Energy = -8.36290755 eV
Mg 13.54388095711965 9.886037662956065 10.444335099885471
Mg 12.584273817161515 9.404266019682922 13.308961909421125
Mg 10.772899001575903 8.735826432489025 10.9490166412977
Mg 11.27960247083776 11.713521128388084 9.91812789547415
Mg 13.259214537832097 12.202143258827814 12.392850086046366
Mg 14.25220988267047 13.00541904359567 9.591554889663028
Mg 11.538509734378708 11.82648005856838 14.861627680419554
Mg 12.384169440185397 14.849604151495964 13.716000092128855
Mg 9.594046882072643 9.898600715128094 13.543891244462134
Mg 14.680505365345482 15.097183496313695 11.750533460376031
Mg 11.94895258820703 14.706617791131187 10.691049734374182
Mg 8.52655535057263 10.777628685006523 10.858715564675638
Mg 10.110250822406059 12.851876880836377 12.478980268339315
