16
Energy = -10.73139204 eV
Mg 10.593165205688388 16.11146611742483 14.219870926436071
Mg 8.234743732855858 14.877060745725293 12.941706948224004
Mg 12.390249201004748 14.03871648995926 13.141598840493733
Mg 10.588426152748609 15.128300179804224 10.966386479550478
Mg 13.545703474550923 14.715152714334298 10.543029151128174
Mg 9.987899390133046 12.979384466959527 14.507907979862834
Mg 15.072592374125193 12.812536996450442 12.77704742611142
Mg 13.070035582946979 11.85206822133503 15.019886834430032
Mg 14.780284998429064 11.918047761325338 9.929764812378679
Mg 9.064759453137295 12.412894544016698 11.430148710054382
Mg 15.967963005517595 10.757023517996386 14.904137726533358
Mg 11.645333702146404 12.384514918099816 10.027636555976944
Mg 11.344561483601813 10.868385961406979 12.706092070442232
Mg 15.972350469328711 10.00954490933584 11.97899747950004
Mg 13.708622957852032 9.107679843665641 13.727528633243844
Mg 13.161940189891169 9.503589177727225 10.708061816388081
