18
Energy = -13.30219211 eV
Mg 11.393770157927788 10.343357226237462 6.662517049481517
Mg 10.8553752531965 13.305029980725603 7.378435827895923
Mg 8.887480083308903 8.283556029859184 7.368146235579931
Mg 9.10185989930102 11.08355855443598 8.660250354056403
Mg 11.24490067229945 8.672915066981009 9.196940363703291
Mg 12.322926885062637 11.743445923661982 9.381706158636222
Mg 9.362814727694701 6.305660694929556 9.663152283838444
Mg 7.659599516920196 8.871331157868687 10.249348613573035
Mg 9.8041443645202 13.539560938053466 10.326917160260852
Mg 14.7973288631304 11.899592765820588 11.044314298035417
Mg 7.134478851708635 12.043586449282424 10.990205252887495
Mg 10.136648071771715 10.542147035241968 11.442912068500776
Mg 9.57041991205634 7.709027839599628 12.313216081417742
Mg 13.008669087930407 9.475119360799868 11.553243002937265
Mg 12.062222450537153 12.735531260104109 12.290914141113916
Mg 12.098782760994874 6.556697016549694 11.150533920223994
Mg 7.559285940847436 10.006276781964651 13.103507963339045
Mg 8.96494260358641 12.849256020678911 13.18938932731393
