13
Energy = -7.47630553 eV
Mg 8.52370085876089 13.055725621639922 11.04270957095631
Mg 9.856872448606751 12.383255733767651 13.778788702554916
Mg 11.201397964642762 14.36268772402068 11.912238608828304
Mg 8.709095212945872 10.13644194087861 12.08735862022795
Mg 9.351793807653351 10.723594272514216 9.179038548432002
Mg 10.921860231612772 13.325626028658933 9.072766980439278
Mg 11.338535626268065 11.390283714595233 11.336856222749319
Mg 13.965717981184072 12.647362901122436 10.591666656567526
Mg 13.324849748117336 12.06127094011334 13.501159387355553
Mg 12.817419790019386 10.400918568039806 8.903570108331442
Mg 11.753323754743949 9.458173171372621 13.607185414226473
Mg 11.474168525065389 8.423479809725222 10.768157882717906
Mg 14.150495211332883 9.728719445395265 11.636648116851163
