14
Energy = -9.4508802 eV
Mg 12.822227098654409 16.029813471314572 9.751669264335412
Mg 13.767309174353159 13.587150146497926 13.865443429553945
Mg 14.307526094747422 13.265307778807928 9.576123729909325
Mg 9.49974784924461 11.069681986592816 14.996495289613073
Mg 12.332602159265631 15.985986315808463 12.754601030528862
Mg 11.528476373699903 13.543218277642712 10.984778432912837
Mg 10.24723353975871 11.011425928219701 12.057678651633033
Mg 13.270649053196324 11.206222948507712 11.718051468774416
Mg 11.98302801405264 9.600725658696213 14.137978039844924
Mg 15.112096463413605 15.388282114255173 11.592868578656775
Mg 10.751820928725387 13.583322890847256 13.875175227872244
Mg 16.084366226217128 12.52440944447243 12.017598867642524
Mg 14.756943432751374 10.734197533998824 14.461331457107653
Mg 12.34528742258329 11.918226317516044 16.04962421997945
