10
Energy = -5.27508216 eV
Mg 9.887404895897879 11.991427969959531 14.708807535683714
Mg 12.377553973415578 10.437004381525972 13.868990075862115
Mg 9.836776128853703 10.233247424565013 12.148036566705132
Mg 13.073397164843326 13.195999164177232 9.913273254222899
Mg 12.465484651795528 10.234325239582942 10.711905314195008
Mg 14.394103272568051 12.078154399152847 12.324262451485163
Mg 10.200467574957223 12.258404019949133 9.859916301424635
Mg 8.606109841982347 13.076399447240204 12.325251997713147
Mg 15.43017057765216 11.075279016281483 9.436873209512898
Mg 11.613755185208413 13.304982204739728 12.587906560369621
