14
Energy = -9.36599061 eV
Mg 11.439096191839319 10.64517870521287 7.681709575361845
Mg 8.325513315670431 10.773536707374037 8.412002847915778
Mg 13.56715868666826 8.963829745549734 8.925202627348051
Mg 10.466540818971131 8.756285111024011 9.815306023503247
Mg 5.82329298376081 10.055255384245113 9.787517237800184
Mg 10.473869775725104 11.854485495396927 10.301544010844843
Mg 13.461298748074018 12.059706236365301 9.521981836330417
Mg 7.249996072788116 12.627785854568458 10.71093794688493
Mg 12.641516004263488 7.456534569682183 11.442913665252826
Mg 12.485508980832934 12.581254440590566 12.463313102826072
Mg 9.139196371178434 12.603165601489438 13.163736966947093
Mg 14.006853407206574 10.115895245208186 11.709757097442905
Mg 11.085072775723226 9.854713949987337 12.648913285027984
Mg 8.12000883141764 9.937295917425173 11.700086740633013
