18
Energy = -14.26895552 eV
Mg 14.353770845729889 13.647587136460487 10.16541677765113
Mg 11.840825121939398 13.747824580471049 8.468764339419414
Mg 14.903035935880922 10.780993543627917 11.446037002158052
Mg 16.1342710929388 13.295316592074089 12.626025871266316
Mg 12.96108726103926 11.072180308999409 9.176889525917765
Mg 14.066356020613421 15.573713717437899 12.498845610408397
Mg 14.779851564536882 14.369719128487356 15.077269262668258
Mg 14.893424892225173 11.270803516417734 14.463493826818395
Mg 11.45300452306643 14.871759842374603 11.16591600324885
Mg 11.646804622250873 14.827554873115448 14.353489148460913
Mg 12.56695488029805 12.445777699263148 12.663726171510172
Mg 10.244307562194132 11.978520798349422 10.365218080914387
Mg 12.706705971247704 12.53174090150889 16.093721110205987
Mg 9.239426595425057 13.584497584177543 12.747989912984245
Mg 11.944951291788458 9.577854664724478 11.54928683461771
Mg 9.866645441549508 12.299768136083676 15.317140800695478
Mg 11.944915390034053 10.043048663646266 14.573461256888866
Mg 9.44546842379272 10.523223681885096 12.945271237514442
