13
Energy = -7.59114014 eV
Mg 15.41037852685794 14.650547125164632 10.73609939183227
Mg 12.613239283595574 14.817581214187479 11.887941876010414
Mg 15.077250754300621 11.63365159132871 10.99406436518856
Mg 9.423808973332687 12.141505633786196 12.667912379249373
Mg 13.099784528940184 13.48828106785766 9.15733994055668
Mg 9.814356403711187 15.214857683883634 13.06146341238649
Mg 13.814800900410585 8.892757217691475 11.34445635074797
Mg 11.419169573558827 9.638322734757462 13.234799018776293
Mg 10.120975123007725 14.04295151732212 10.333778277201203
Mg 12.032546766919209 12.74569108710558 14.034320826167392
Mg 14.31406985912387 10.53230739001775 13.713541030886567
Mg 14.896053765045286 13.50076785643611 13.552433585325755
Mg 12.044440598340962 11.584278025416877 11.103197892039786
