13
Energy = -8.00584216 eV
Mg 19.163078651203858 13.066664752481003 15.453824777172965
Mg 12.867531806989701 15.028987585271345 11.178626903143837
Mg 14.755214084867111 13.978587828606052 15.46922142379992
Mg 11.833351529069978 13.089733114901831 15.392322126226908
Mg 11.551340740953114 11.133457050879592 13.023416789677217
Mg 15.41088776059483 15.22381876232494 12.666868922342829
Mg 17.42713621306554 15.441210432455383 14.948186004602597
Mg 11.502374069098103 12.444862699751267 10.354693360270138
Mg 16.788011791288415 12.60065140108342 13.620162747511612
Mg 14.117144401513823 11.13241498681899 14.562450768949184
Mg 14.175750129655643 12.464432860198391 11.94202833308721
Mg 12.61347595076948 15.696270024419194 14.100279307851292
Mg 10.480303778571972 13.92327443343096 12.808540441490523
