13
Energy = -8.36291886 eV
Mg 10.221961893384696 10.311378063762895 8.507924090574916
Mg 12.847963732667031 11.380835665704177 9.930727185327338
Mg 9.083040957373756 7.887552762339481 9.750558137335457
Mg 12.105185098303622 8.222262134794942 9.716293624910257
Mg 12.856509971275011 14.410690468224644 10.349559486895087
Mg 7.888272859227121 10.583440528156881 10.475632366357202
Mg 10.229850916043183 12.846788378856884 10.407592757249398
Mg 10.625563748847737 9.973854037350995 11.771590861587686
Mg 14.091584231395126 12.727765124289075 12.544401606191622
Mg 13.616834751170153 9.732069119667596 12.268754046129477
Mg 11.431626747252933 14.21396442322445 13.020141982046239
Mg 9.102528498277382 12.254099337924597 13.080562198784364
Mg 11.851228390909506 11.407451751830767 14.128413452738835
