12
Energy = -6.75883095 eV
Mg 8.996561706616786 8.92158328496147 8.645072037328486
Mg 11.50384065240307 7.299698681538549 9.228032617475453
Mg 7.147020586533161 11.624067908598473 8.347522825214286
Mg 10.244522046353753 11.430627610130655 7.634869751741891
Mg 9.58495888222689 8.221899939953342 11.468903013375556
Mg 11.920132487019432 10.188205911197302 10.002622185574209
Mg 6.9933154150374355 9.700325664620514 10.866278404513011
Mg 12.802378564010803 7.8751976596722075 12.067514976362503
Mg 12.086065815658445 13.220552979695801 9.208760137834668
Mg 9.340810498316827 11.590601890427864 10.704456885514892
Mg 11.000836162290568 10.303094867692735 13.062292637932645
Mg 11.746359000695136 13.05446641826193 12.086756131175289
