15
Energy = -9.72258344 eV
Mg 8.856565066903112 11.382049135821838 11.557737085205963
Mg 9.24166891100953 14.378587460405678 12.049258727095657
Mg 9.17483101597256 12.467562213689295 14.388521461636783
Mg 11.309227282418943 10.685003197280755 13.251948373969201
Mg 11.4907476048536 12.672774615695017 10.789771774980132
Mg 10.117486357677214 15.330466863322512 14.82195526360154
Mg 12.044132822767429 12.969771259713328 15.140452473373795
Mg 14.027454126625532 10.651025293465485 14.70055784585462
Mg 12.220218557672744 14.943481349836985 12.674384546599608
Mg 13.843413385450534 10.888511714262775 11.639932490328958
Mg 14.276973718918523 13.869957383085232 10.72196676589295
Mg 14.696204398711405 13.51872059227633 13.817363426732147
Mg 16.53573582308798 11.111692462008877 13.151591499258698
Mg 17.064416120658663 13.865989378897655 12.005422533852796
Mg 16.342156253807595 11.667905672699263 10.173930966150742
