16
Energy = -11.27165794 eV
Mg 12.010682233098436 11.846390838881412 9.10840011757368
Mg 12.255861722498361 14.824459074632209 9.02781122943889
Mg 14.751607558558659 13.401089778139719 9.800966672247492
Mg 9.898046727497778 13.950664438335357 10.62444217137593
Mg 14.53561121674488 10.486216728243512 10.662256368590418
Mg 9.584943661297869 10.877599849589656 10.932371164637527
Mg 7.8696775756077155 12.698325646958049 12.569765326923655
Mg 12.174603666341167 12.027592969149806 12.03487329517798
Mg 11.957232638706161 9.103968205972619 12.103540748056744
Mg 14.682502508626822 9.879219211613194 13.643866687913341
Mg 12.848518277807505 14.885511651874303 11.956227541499931
Mg 15.163033578045074 12.743906498566314 12.742447220887513
Mg 10.383891247224676 13.867688916391671 13.685983510857655
Mg 9.837633995583353 10.834479820039373 14.025009440122217
Mg 12.147883236330891 9.279523988237866 15.082214451420816
Mg 12.795172232738137 12.190264460083684 14.896726129984955
