11
Energy = -6.43055046 eV
Mg 14.63452412098459 10.834200525556085 12.480911850606871
Mg 12.443898791949694 8.883477768870408 13.355185629357615
Mg 11.766945637006533 16.313101669219428 11.070704640839239
Mg 14.657686498756567 16.207012137207176 12.441591385387863
Mg 14.283312987595126 10.473915310200208 15.432007775166339
Mg 12.235404188946083 15.200398707380751 13.884384677676007
Mg 10.279493658467128 13.601083850877359 11.83454700793881
Mg 11.739602860930145 10.905392674035474 10.996318269768354
Mg 11.992374989992367 12.028890586388615 13.841127143741863
Mg 13.314115463097316 13.515278624829199 11.38413522427009
Mg 14.812770035602274 13.45318362844171 14.191963010993648
