14
Energy = -9.29312829 eV
Mg 11.30415422007194 11.627030115839698 9.375200447380921
Mg 13.934084805305234 12.846634623541672 10.496752116903565
Mg 11.104895560122982 14.343063135448851 10.570864072650247
Mg 10.042152503582967 9.558171020874045 11.078390923191275
Mg 13.374660434397327 9.663383138041711 10.614006004084407
Mg 8.756676153291115 12.331259040364257 10.866460738079702
Mg 15.91614646198738 13.934927467551333 12.541200969843816
Mg 15.616975808584245 10.96388641476594 12.274418921165175
Mg 9.90521163547195 13.815293485366558 13.24270798653729
Mg 12.963143560092675 14.350214520855015 13.170362241933168
Mg 12.082772243955446 11.409905055569 12.577294461285637
Mg 9.142932674243767 10.974710454029164 13.58673680068075
Mg 14.693308366230767 12.362730510713098 14.780738253102056
Mg 11.661586166962264 12.317491611339841 15.323566657461399
