13
Energy = -8.09518072 eV
Mg 14.4211553691598 9.245840341045767 14.675080412796602
Mg 14.482311715548104 11.859116326999764 13.040505583380645
Mg 12.789359373506498 11.48705796006927 15.815504161758387
Mg 12.974879301967311 14.183605864328928 14.33994349943967
Mg 12.853011466268315 9.478918826267126 12.081953999623952
Mg 12.958209182361157 13.939460057550725 11.313135823008588
Mg 10.422491168933938 13.482829054125883 15.794044620316516
Mg 14.198753882487479 11.298877004817347 9.970104548434296
Mg 11.175169757356324 11.867478123552832 13.189791907473154
Mg 11.164036368934655 11.317023869272015 10.233429800425624
Mg 12.487960411085247 13.227910313684712 8.316424591449621
Mg 10.212734417224004 14.225352426434426 10.165176642052312
Mg 10.228495511756165 14.846613572412263 13.044282067542735
