15
Energy = -9.46407414 eV
Mg 15.237018595880857 8.229103303500946 8.496878768982608
Mg 11.846074373590461 9.741894827350484 12.50376111411707
Mg 13.05205348477309 14.15298945278207 14.933554695505379
Mg 13.963597724250473 10.420916345929129 10.322523270398442
Mg 11.045714447696387 11.936154906166225 14.451403435784062
Mg 13.803854211619067 12.343386822252176 12.575611072506534
Mg 15.518315175212987 15.885544301122723 14.44475812193967
Mg 11.249682556491415 11.54810223821965 10.026879896852131
Mg 15.96217663277396 12.97720401268389 14.825282702118743
Mg 13.766442015898614 10.621741585774991 14.881789736231795
Mg 16.231293036129475 14.295321009632174 11.954778068558227
Mg 13.63697622900665 13.61971060093597 9.987759713452562
Mg 9.237618048149807 11.440383254555186 12.186085393629735
Mg 13.591412501465594 15.737369398699638 12.181114795336276
Mg 11.12282411019954 13.94483006100358 12.0942762924248
