17
Energy = -12.98754029 eV
Mg 8.802524528394848 9.645758224267363 6.511552254103696
Mg 11.096889106698944 7.994954124713502 8.117017322125973
Mg 11.520507208205093 10.822583645538339 6.7686860075213495
Mg 13.158062712564483 10.057319626003432 9.142758326915791
Mg 8.01140042814971 7.325185386752354 8.199307613012852
Mg 9.121187886291784 12.342495173705684 8.07962636738156
Mg 9.84262573824622 10.009669752314425 9.92479784019503
Mg 11.948193566606792 12.880660735889366 8.928204146012217
Mg 9.719282441982912 6.6658175454991095 10.54605958852992
Mg 6.9196591239507725 10.151794349916193 8.952314218838444
Mg 9.848056157043743 12.873885819688502 11.055842309770167
Mg 11.905148922723635 8.600893798162595 11.56339879143294
Mg 6.946055653624024 7.942073108839898 10.968180975174796
Mg 7.629841952577571 10.694836504497054 11.931483052477526
Mg 9.132917927803506 8.181991432050248 13.040065422930763
Mg 12.674191657085453 11.658557681839818 11.605556358224153
Mg 10.416044883301291 10.84411298557303 13.357739300604024
