15
Energy = -10.43025849 eV
Mg 10.12755746012554 10.043778182558189 10.423140599334232
Mg 12.308838291524891 7.539275123365163 10.63451989302345
Mg 9.667926862251196 13.133557758205447 10.235669873224412
Mg 13.123704301459071 9.576496636420954 8.385014262769458
Mg 7.018371704203357 9.826715984070983 11.07494687621853
Mg 12.509349342573039 11.911432682082747 10.267059249741031
Mg 14.388429728935225 9.762643707554483 11.129110223025991
Mg 9.13806801603136 11.344607362120108 12.947432306798014
Mg 7.803515293661819 8.998575641081628 8.303503584258271
Mg 9.159255490095806 7.3525391040584624 10.617393682530409
Mg 7.38390411763369 11.85894186642302 8.692147406066152
Mg 10.843201715280008 7.7610997559949855 8.034717344660276
Mg 10.344975641323888 11.076720159477755 7.712828511592761
Mg 11.96193378546957 9.778701873831077 12.792671402364503
Mg 7.028603312627033 12.842549225951073 11.557479847587855
