13
Energy = -7.3210013 eV
Mg 12.969437095401231 11.392184742198255 10.05651215135887
Mg 11.17707088674448 11.957739749610617 7.703666721090342
Mg 12.98760214695631 8.384747215875992 11.40974597183145
Mg 11.306477804400181 9.089782156372006 8.94670520939263
Mg 10.578882503900552 13.186811126212705 10.433609527306585
Mg 10.683005899036342 10.369284620744871 11.78700894994202
Mg 9.205405065261612 6.916941997763938 8.436455661899851
Mg 8.088019452736102 11.955946648656905 11.614821470405781
Mg 8.303789986736469 12.291186000935712 8.629935449353198
Mg 10.169587359728306 7.249187788593094 11.301099492171373
Mg 8.22786122705857 8.932194497848904 12.927491162940813
Mg 9.098360000063236 9.883576870195323 7.004121451421694
Mg 8.279971914850316 9.435972938297903 9.907241972922083
