18
Energy = -12.6263581 eV
Mg 13.004344802171065 11.083728999998037 15.1927907851098
Mg 12.850707218223622 14.579572727139686 10.208834100361763
Mg 15.578785046738119 16.328689357135705 14.164124280139724
Mg 14.922673914426536 13.419826253440991 14.95283284005471
Mg 13.594297140289653 15.81321498318958 16.352944742757323
Mg 12.557645646076892 9.678470538739717 12.040487698913534
Mg 13.175618147332889 13.06167863378387 17.47085928913212
Mg 11.455339095110988 13.772297456022107 15.156132021598854
Mg 9.9065874115815 13.57633428683024 11.458661702866285
Mg 12.595743049872073 12.6519952051394 12.502114399891505
Mg 15.307770666244018 11.226200058607574 13.064824443474906
Mg 14.010619486547704 11.65340595030366 10.040648186440048
Mg 12.833979522139405 15.645846730530835 13.258784283831844
Mg 12.01287019103859 9.550328838105587 9.014554380994957
Mg 10.306538421618693 11.122251569446686 13.709936494266406
Mg 11.210701677730155 12.477736965589363 8.988421329241364
Mg 9.85698861483093 10.638065046444591 10.853585223322003
Mg 15.293282888693957 14.194849340219559 12.043956738269777
