18
Energy = -12.81772852 eV
Mg 13.804507746555508 17.112817644962583 17.15125696946939
Mg 13.180077650539095 16.024991651968637 11.90746326937332
Mg 15.514476619420138 14.55767453331727 13.021599153284441
Mg 13.350866222973824 15.005678744708431 15.01352916136366
Mg 10.789323277700941 15.621651440378265 13.628576064064811
Mg 14.062535053331265 13.509847591940883 10.419644416243841
Mg 14.268809346790599 12.133270902234889 14.653466624809747
Mg 16.052068116781133 11.78600649102286 12.126975149976802
Mg 10.995262343797272 14.201290054669839 10.805829634151944
Mg 11.236000995914244 12.817867984307568 15.034839429573944
Mg 14.507401642494154 9.421446299525481 13.047267981097072
Mg 8.932379602225256 13.393378073767055 13.019888615259518
Mg 9.35496653475018 11.494386716850943 10.79211691361584
Mg 14.352491813267674 10.371635151635637 10.168797006153323
Mg 11.891008418232037 11.735865524035942 9.340211735488518
Mg 12.172569075836025 9.972133472643407 14.74509722898172
Mg 9.501090893592261 10.550199437676026 13.673593312582243
Mg 11.696599699722833 9.579261567913493 11.65195974792333
