17
Energy = -12.98742973 eV
Mg 13.851211818565936 12.710388733312831 12.040604447578374
Mg 14.379962620943937 10.041133922206928 10.828332335601473
Mg 12.639431892543636 7.718526800247844 11.462440696313886
Mg 10.909726661477306 10.897612109676285 10.793155703335739
Mg 11.837679866743173 14.46648875347958 10.62128534764291
Mg 13.074918193431852 12.243204758756455 9.051652790706585
Mg 12.342833951801909 10.265402589267397 13.332706964173711
Mg 10.106857915223141 7.39486246824406 9.843002808808974
Mg 10.073195671441926 12.978639895326303 8.712173595241211
Mg 11.20092427326157 13.137902428201315 13.329129445695004
Mg 10.027069359621656 8.293459583308222 12.783283682354172
Mg 8.994695723817753 13.943319980814662 11.486396125671927
Mg 12.270460169006062 9.127384497981907 8.690893110147963
Mg 7.773647248163593 8.965644390004595 10.963506822694526
Mg 8.859688658944656 11.147674756827042 12.950517694446901
Mg 7.5043892485648565 11.794500107775987 10.064996155664403
Mg 9.275722769544906 9.86519685959272 8.381444962244705
