14
Energy = -9.02723195 eV
Mg 11.457849952270353 14.835298413646905 10.281730977661802
Mg 10.160087088135583 15.465599814723248 12.998090776629253
Mg 11.119059639807222 12.260103893913735 8.546866580540813
Mg 13.371090336445802 12.26174331068174 10.718223100434226
Mg 10.261257939500997 12.629869762151102 11.647113549760775
Mg 12.871400263791585 13.939678272318025 13.143255635607783
Mg 10.587427887933934 13.070323542108842 14.894257460311751
Mg 15.091994264747925 11.487452711183881 13.351119478686721
Mg 9.416757506393951 10.408663097240908 13.379979883750124
Mg 13.267550826947122 10.120468584575276 8.501044590804106
Mg 11.191969497707547 9.834516940322342 10.652905843351968
Mg 13.467267768922103 12.416449697570371 15.792643929815632
Mg 12.342907339885064 10.71361146457488 13.40281480772508
Mg 14.310501359210745 9.325390406138311 11.235769602968757
