23
Energy = -18.44667364 eV
Mg 18.33362542154989 16.344805313973808 14.563952286214347
Mg 13.773141387832812 10.497518472561126 11.680152374661853
Mg 14.907136494806753 14.949461162276753 14.038066215319091
Mg 10.488032442819089 11.744434055275715 15.335042443066287
Mg 14.747154258350399 14.722511652428128 17.589160748737182
Mg 15.789485771864667 11.817093295055988 13.549365766854587
Mg 16.20605197201552 17.008122337398316 16.456484405957877
Mg 14.788398859957994 13.324332072022194 11.115113821557552
Mg 12.426666694728311 15.424322355482017 12.226439821832075
Mg 13.016440428865522 16.579660159562355 15.634538143910058
Mg 9.759471383687341 13.148517924528761 12.688816603664247
Mg 15.517308327309385 17.885632672516145 13.69761175508795
Mg 14.42085779262962 12.118707201213137 16.311693702857387
Mg 11.887649888541583 12.708801286212223 10.686407511576755
Mg 12.028702291025638 13.895328293748152 16.952838518305608
Mg 10.54563927580102 15.146825619441117 14.781328845160727
Mg 17.415993994569433 14.22048937590411 12.47290312113326
Mg 17.886791954918657 17.29354439676099 11.825411653766327
Mg 10.853471414732832 10.38925336296501 12.511226163409518
Mg 15.185936101216212 16.24339970270379 11.109230035761808
Mg 12.965866056052953 9.996847619691302 14.574394430378169
Mg 12.78024853612746 12.881285689993524 13.738232549131435
Mg 17.05880101856499 13.77844120741278 15.672373518673476
