25
Energy = -20.27877188 eV
Mg 16.145415876504387 11.950039207876106 9.433224926821625
Mg 12.763426767342215 16.946712301921185 14.334745918017797
Mg 15.268031177343595 16.990711345046304 16.048972003025465
Mg 18.060987328572793 12.033698219667903 14.621967410573824
Mg 12.755252802751746 15.866586639450787 17.350247729328995
Mg 15.448589445124316 14.947688287396378 18.22946375617092
Mg 15.09635085183606 11.17775280249287 14.603432218540343
Mg 13.326612144319002 13.142710445525834 9.507460687797435
Mg 15.72220458903858 16.122984294528337 13.101020490578119
Mg 13.144831030936201 12.775959485027881 17.109983260578936
Mg 11.142665957099139 14.46871442137215 15.153955764475626
Mg 15.109930390531204 13.075005156943956 12.345640358545491
Mg 17.118152736750545 10.839609468195045 12.034347965736995
Mg 12.374425130923202 12.278146159805985 13.470955272466847
Mg 10.48101490970513 14.449003325895069 10.110385746053934
Mg 12.90883346406555 15.027498243207194 11.94957543902426
Mg 17.366415142087046 14.844332048346432 15.480060637304227
Mg 17.921546251391597 14.027394298523719 12.391171512748
Mg 11.11577412455231 11.600790796612639 10.792944493440586
Mg 15.740343051746622 14.930087961665844 10.184299901001635
Mg 13.998317990741057 10.59743575530743 11.235326818595551
Mg 16.317173918385947 12.403476208962775 17.065632536553572
Mg 9.58056068905454 13.290749045225272 12.706872103202016
Mg 14.335557846410547 14.261265219282844 14.96854616540668
Mg 10.244348584328533 16.160497958253952 12.710334333042555
