25
Energy = -20.408242 eV
Mg 9.85799808230172 15.86131105356984 6.671916488276496
Mg 12.343625617384143 15.896516752998139 8.223918053552167
Mg 11.047314256624247 13.067194393567783 7.3651308647345894
Mg 9.872546502229246 15.040316273614323 9.65087044278329
Mg 12.254501802549921 10.546428239233784 8.678621672749898
Mg 8.124771290107603 9.568609430413943 11.291737607288288
Mg 12.56910616980888 13.375840073349217 9.899529385488728
Mg 12.34902470802508 16.017791686452117 11.460300125144549
Mg 14.016461249537077 8.804872586483905 10.52960699970195
Mg 14.958990972044955 11.538902816813494 10.023873044482858
Mg 9.88484148365225 11.855432007307279 10.178379626499886
Mg 11.010653283542492 8.797872523488444 10.846161346799317
Mg 12.204942406674235 11.2806794518851 12.220476311074025
Mg 14.320412918491957 13.604880655287381 12.23387312902616
Mg 15.241375155158508 10.402154881464691 12.839391595406576
Mg 10.552888117546319 13.866116688294435 12.47171588830444
Mg 12.866059754675328 8.403459083558863 13.357401635315247
Mg 8.439787346276221 11.948364396821452 13.007542034607505
Mg 9.952502275458723 9.420353947352043 13.722081220761941
Mg 12.505536292245372 14.887730266738343 14.430438350078006
Mg 10.84184360352353 12.068147086685391 15.024704946086446
Mg 13.839093456726355 12.16680213561745 14.763064877256138
Mg 14.583840310047059 9.361127934446374 15.722328763091303
Mg 11.64472594333278 9.146680880334522 16.131638446309637
Mg 12.999240085578757 11.354497837765297 17.537380228723652
