21
Energy = -16.83190455 eV
Mg 9.974215103159722 12.049475576987664 7.1069308409384195
Mg 10.450818134965953 9.296815920725486 8.155038030898584
Mg 12.767313059326968 11.052896124705029 7.3369903082054515
Mg 7.770664165622567 11.050142288875053 8.821127009107151
Mg 11.841946723029405 13.398863021993137 9.166836701194038
Mg 8.734009668546413 13.811659904823307 9.194109285400607
Mg 14.481468364090867 11.885632054782231 9.557547499027322
Mg 10.893337597241745 6.966828363434084 10.006184961291154
Mg 13.284853137276563 8.968358843969787 9.486348848866824
Mg 11.10714559472573 10.990176139613382 10.779675787613812
Mg 9.36130069508322 7.071345076763402 12.692114296136097
Mg 10.308945156123336 14.394640816266502 11.574385240603156
Mg 8.752015652174567 9.01595930066775 10.600399214405385
Mg 8.304912574664124 12.024897745801146 11.714078345213592
Mg 9.721012684322847 9.997017819279414 13.474133057676603
Mg 13.024251636829618 13.096829531091698 12.087310158914782
Mg 12.087425729716948 8.482194558742147 12.30322060057045
Mg 14.473172563142594 10.320783115852102 11.982378057592726
Mg 10.386118179049891 12.911170602869733 14.028777492122902
Mg 6.700247157716311 9.247957653364374 12.79998638762762
Mg 12.523308359481652 10.914837475682905 14.08090981288309
