21
Energy = -16.38806452 eV
Mg 17.19151942088398 15.71139497794924 11.737050565594705
Mg 16.834998873193964 12.946379231326226 12.712962224896058
Mg 14.988013022914064 14.122900220186912 10.101954181849175
Mg 15.169700514399269 11.12732974316881 10.679712319152902
Mg 15.54715484818455 10.212191069144021 13.539015312992312
Mg 14.41253967543268 16.772094102990128 11.593547749153887
Mg 15.1928700623554 15.372067642353002 14.261274637892615
Mg 15.502682662374966 12.51433138531001 15.479139518601462
Mg 12.45310589112596 12.273918446681316 9.918639288463087
Mg 12.085268056615323 15.195465192153204 10.553185221902748
Mg 12.73513783362163 10.138261973047776 12.114820175199503
Mg 13.844212128457281 13.108350060136337 12.7552302930061
Mg 10.968681020306807 13.129497825662433 12.603427150144695
Mg 13.00039874543084 10.794436619933649 15.091738530842793
Mg 12.235982910989101 16.029497621173206 13.4537357570999
Mg 9.8631352541156 10.918088257028439 11.011693075643544
Mg 10.247085861085907 9.805948642879196 13.871519084376597
Mg 12.75612761851135 13.909577651788911 15.60810852198118
Mg 9.825054158781661 14.755624661364948 14.749617820006332
Mg 10.369792116804497 12.024369620033113 15.847066799032444
Mg 8.34035638018624 11.986311142443867 13.587298501192695
