27
Energy = -23.01379339 eV
Mg 9.913446085794638 14.23476483873109 6.798234880872584
Mg 10.047073961648334 11.289999272511315 6.633188596565424
Mg 11.90110555835862 15.28582642439246 8.809515729433187
Mg 12.099325889334143 9.582612218906707 8.046817437808992
Mg 7.993227113389872 12.513527617374736 8.671804239718677
Mg 9.287083332921931 9.660105763935901 9.214065677979892
Mg 8.984724085108777 15.208196172119559 9.497312257291064
Mg 11.431742009270218 7.952133284242444 10.557767593500413
Mg 13.668853825626787 13.707353891271165 10.618336659854755
Mg 11.113712592415103 12.327171532985233 9.34800204535772
Mg 14.393915565268081 8.144310465201835 9.294744224783729
Mg 10.907809808271903 14.38420748827096 11.759205815476337
Mg 13.21563290878318 10.567001288692317 10.837203781863222
Mg 16.255593296247074 9.18587219764083 11.42870547443199
Mg 6.9320078598621615 10.655380927478674 10.806235741214525
Mg 14.006997475669488 7.300339375378083 12.139993067475622
Mg 10.366128063961929 10.92764259457238 12.019160243609997
Mg 11.517734386667238 8.078566356922254 13.672196607596817
Mg 15.650997468255843 11.993356369573977 12.124164146018469
Mg 8.728097213876824 8.433624813929896 12.046957271722864
Mg 12.82197630700824 12.60891435632118 13.328861790834846
Mg 7.232409414087439 11.263618481715676 13.624008421177384
Mg 7.936884269572576 13.431641726000247 11.708739401541152
Mg 14.193037739999557 9.781681943770973 13.794043247101165
Mg 9.835332367338184 12.832242916288266 14.257550472411584
Mg 11.75231595149656 10.652879174638556 15.35521645487411
Mg 9.18123884096014 9.365431898328437 14.97637211067864
