29
Energy = -25.29517987 eV
Mg 8.400485875260944 11.557876072182768 9.17153702638146
Mg 11.536362186463395 11.679171991664475 9.86384904655873
Mg 9.816164222183698 14.203795398755373 9.225749542304117
Mg 14.211036493999412 11.365663209932276 8.19320749602624
Mg 12.804353461133893 14.00464279598237 8.297770340929706
Mg 9.891416238144304 9.05943019835417 9.717027960576322
Mg 15.024890180123911 13.52026088647917 10.278847992541818
Mg 13.045105362324744 8.981909614359038 9.642980312522331
Mg 15.676469765553719 10.38008502722527 10.624995376946526
Mg 16.614800679382107 12.715072336590314 12.663935939648157
Mg 7.640509096709385 13.497541100757257 11.370235121837043
Mg 8.336270134563236 10.30996870878487 11.994472355995086
Mg 18.639320434397607 10.511958423536667 11.835289980664177
Mg 12.279518221175314 14.678332079541606 11.153939025304913
Mg 13.466573189598517 11.709782392337074 12.295626861611
Mg 9.54448408894099 16.042598853621207 11.546899905978488
Mg 16.049340063380992 9.885392633737965 13.698883820384692
Mg 10.371946544038526 12.663361477423727 12.553060368651579
Mg 14.10274225567706 8.181553956986932 12.301405248631935
Mg 11.314076675616109 9.441766086746705 12.297025406078887
Mg 8.165036824399452 15.090345854330506 13.964121857888045
Mg 7.499755707138379 12.158823653441312 14.162968581367181
Mg 14.257815762167956 14.537138535473053 13.406836285307516
Mg 13.13177898405395 9.77762518859602 14.758275901134738
Mg 11.216176275599041 15.349882452208824 14.009158595015668
Mg 15.229204571337768 12.229775354139738 15.262991457713865
Mg 9.999276122496074 10.50523074632194 14.811569730779869
Mg 9.552901113887073 13.391495009044913 15.940517900531775
Mg 12.302414464526777 12.68974495571896 15.077045554962112
