21
Energy = -15.57168586 eV
Mg 12.46919794294836 10.26752246179219 9.924379652016137
Mg 12.749819600146907 11.561623563676667 15.092599970026289
Mg 11.134779534658746 13.046723012272402 17.264480917647745
Mg 12.639465899543055 17.299751585413876 16.317879472139513
Mg 12.005148633344483 9.229897135322084 13.039462184690775
Mg 13.76888089727926 12.98480358839538 10.341627825656442
Mg 9.972656755080237 15.895471936262275 16.582961129608172
Mg 11.62494012965669 12.154714317756163 12.208870112639556
Mg 12.280231879318281 15.366815315366042 18.617102161966745
Mg 15.656003413896471 10.622131870829264 9.896427784860998
Mg 14.446683442566707 13.523069330402048 13.443124192202236
Mg 16.58521624344426 13.56909573946977 9.14355671437796
Mg 12.209473359020329 15.148290626391129 11.76265115625031
Mg 11.13451195420832 14.129523964610781 14.411273734215353
Mg 10.753260988760058 17.07419849303211 13.931211557796509
Mg 14.747947607174636 10.62572052640257 12.90819561831708
Mg 14.18966889406583 8.174180361619065 11.17449255409001
Mg 13.887928089570606 14.348736687039773 16.284113495044505
Mg 15.33045549123827 15.470942536722822 11.226053575554289
Mg 16.85118919621747 12.504135496408502 11.907020637071769
Mg 14.041410245896945 16.472985139325548 13.904948735602108
