28
Energy = -24.71619339 eV
Mg 12.064111944873828 11.190152606732747 6.317169547776982
Mg 10.810611927655588 13.817764701442533 7.0430765708229055
Mg 9.105066646222618 11.229641326670757 7.24045169029208
Mg 13.634195696166353 13.259035347962511 7.757778468265912
Mg 13.904848886487263 10.302675437131768 8.653675139289815
Mg 12.917946656537616 7.993580085064696 10.218158440114983
Mg 11.072194027791408 8.925398052272891 7.967356844843636
Mg 8.837005931524166 13.600428643131655 9.253501043023627
Mg 8.13641354699301 8.676327666873446 8.737059803628087
Mg 6.9088722418621495 11.249721316081816 9.44578653696142
Mg 11.2133773577813 11.581095901747801 9.621970172517608
Mg 11.815774400199036 14.6397493978888 9.856155233063383
Mg 8.889512048744317 11.702608514779946 11.741728974207398
Mg 14.044825638871345 12.629312899393826 10.718754239957246
Mg 11.883744486858426 11.094660363008106 12.526279106714616
Mg 10.196788944708414 8.923790440944684 10.98704415953378
Mg 9.781822332339587 14.53614590062601 12.00621488146099
Mg 14.636491293061534 9.774714445214476 11.831037432778107
Mg 7.153921986472446 9.091342659706385 11.691304810475476
Mg 12.533334043425938 14.11121083639791 13.004932598923421
Mg 10.01773774487655 12.732093947730322 14.468717317506465
Mg 8.020468313582239 10.436136497060282 14.39710512104565
Mg 9.244104403341206 7.855407987523393 13.689656786586864
Mg 14.97485338269905 12.284505354682688 13.606222334237616
Mg 12.256053323924188 8.05455862613936 13.198740333556415
Mg 14.014080052830085 9.77421366314902 14.867889660691187
Mg 10.941834366496238 9.890814936355278 15.335251915080663
Mg 12.749954174791512 12.402858245403037 15.57692663776029
