28
Energy = -24.8886562 eV
Mg 10.369479785070585 10.487674689217714 13.974715130912397
Mg 10.071097600701124 14.41660005633766 9.602391978107741
Mg 15.064736639516354 9.623986715864769 13.016272108826685
Mg 9.278666695331495 8.29585055544219 12.264632944693936
Mg 14.932663045294996 12.885972795902944 8.97495728950577
Mg 9.35840360718031 11.241080091340887 10.902693187682344
Mg 13.687823354604083 7.863252022169787 8.355502087648164
Mg 6.462790744235156 9.032174144840058 11.402335232599533
Mg 8.551005942615966 12.76877403479774 14.262445192011649
Mg 7.247746100365517 13.616177239612895 9.397241497504755
Mg 9.01508517538865 11.68835822259015 7.853721662074497
Mg 8.413217140190836 14.580402842927548 12.003490384435334
Mg 14.214717311323827 7.394503018189012 11.220398333101
Mg 11.152396599034255 9.510014693934158 7.989978631629439
Mg 11.32074405185076 7.504394007359737 10.239105749632627
Mg 15.210862436661385 10.026949384827008 9.99873014974997
Mg 13.113858788087288 11.351784921180485 14.318171625112981
Mg 11.889807600790757 12.28428235819963 8.794439005425044
Mg 12.282557245938683 8.279029809136002 13.342839696801306
Mg 13.931235963229534 10.610952057757242 7.295168964829648
Mg 12.233210129966364 10.363602730196485 11.095834900223979
Mg 6.392582099147245 10.803843825570617 9.089426494805856
Mg 13.000123979699094 14.582044381758168 10.493481678346827
Mg 7.423189071662682 10.000406595149112 14.025585476793527
Mg 14.561028909098003 12.458862344516517 11.950793255124106
Mg 6.494472039036628 12.079995256013367 11.966914822399263
Mg 8.567715466381866 8.662834897315944 9.213618823160683
Mg 11.256081173324448 13.083495003579912 12.452412392587922
