27
Energy = -22.60257841 eV
Mg 12.631341843953567 13.222185906671845 6.257384147341737
Mg 13.201825866683073 10.388208814010758 7.389543061968546
Mg 10.35500701660315 12.142262881879242 7.89773850814128
Mg 14.871483125887535 12.771104164570767 8.119081317547524
Mg 10.763438810191767 9.19109562915823 8.628046205496874
Mg 12.366008433572423 14.744666863088526 8.849307757737385
Mg 13.344702824127683 8.942273451940451 10.296541728792468
Mg 8.784968889582979 10.788483304187725 10.227614316238215
Mg 12.498526127937476 11.864455521351116 10.030232988990056
Mg 10.01817063627193 13.58783015150953 10.637726528231807
Mg 14.698405379906317 13.948391367388439 10.83457473447907
Mg 9.59190348130175 7.474651668079307 10.748260891518495
Mg 11.051251052450413 9.97513780552223 11.923712788885252
Mg 10.45906710891121 7.238701740560352 13.699552263921722
Mg 12.288432329401909 15.46509502866682 11.82842054697846
Mg 14.488289428165565 11.171127615388013 12.277953685288129
Mg 11.860429871014569 12.65337261752145 12.981862084728204
Mg 14.406454613818847 13.936243645242707 13.868474763357284
Mg 9.674239320514918 14.79982509996192 13.460303686977953
Mg 13.1908931048769 8.72563626417632 13.555340451888707
Mg 8.868298809334739 11.907362378411163 13.208373442942571
Mg 8.28017755658611 9.018894931083022 13.067990722178765
Mg 10.56416755828433 9.963984072379581 15.019089762801059
Mg 12.101972737914553 15.648969856661768 14.945355607369745
Mg 13.3338161906093 13.785787588957362 16.776901222154134
Mg 13.311450629677486 11.238682166860071 15.249589411223733
Mg 10.53131577917042 12.941607991523039 15.757065899572575
