25
Energy = -20.1447688 eV
Mg 12.443630391189956 10.154896097811527 14.236161813513153
Mg 15.136379766207373 15.776863164251578 14.624745236941383
Mg 16.272318983804258 13.973958680754984 16.884602870748537
Mg 15.740510002164745 11.176163886424185 18.143107789037963
Mg 14.76178186955153 20.77774196360606 11.005519785769911
Mg 14.045179876137366 12.802561867635589 15.178053221813155
Mg 11.85869280846162 15.502977822032275 14.469857293029122
Mg 16.274983871967265 15.713054352520482 11.714501899000446
Mg 12.947726944579063 11.379657283268907 11.564526504039863
Mg 13.666254931795693 13.21673863814447 18.42316940901712
Mg 11.02213681776904 12.734334441723451 13.512585744332954
Mg 15.788746083218467 12.702335259852715 11.025804944114007
Mg 15.608471338421825 18.10306863098713 10.118620518517634
Mg 14.945972896519057 9.467280496221639 15.84566259348271
Mg 13.336650335060444 18.1839649884188 15.336918840514864
Mg 17.342585982860562 11.334897154537808 15.662725497059308
Mg 13.377071944022337 20.517626240200904 13.56495650568392
Mg 15.91324120464557 18.652087673202836 13.183610031245346
Mg 13.609654236276361 14.171845091276015 12.46604608714435
Mg 13.38326423602788 17.39628719609912 12.283408566086113
Mg 12.69298502564803 10.716237090887086 17.194844021795564
Mg 11.2096612040363 13.38390767568914 16.49066100922593
Mg 16.889208476796995 13.531980120465633 13.719386146083867
Mg 15.494398816545601 10.760713620150177 13.23298307422212
Mg 13.36437104412786 15.705283885666395 17.033594984039034
