22
Energy = -18.2006816 eV
Mg 12.448346493519521 10.451749146241808 7.8741359345582165
Mg 10.25494728978792 12.439656182227065 7.7934007640733585
Mg 9.844217320459501 9.753671257901477 9.229549702538284
Mg 13.131717172332252 13.308886347369988 8.220321326979148
Mg 12.637219969213783 8.952290022659605 10.47978659301747
Mg 8.751744462286233 6.776104030164301 9.971767228972098
Mg 14.649054811696452 11.151398237243301 9.736095795748719
Mg 8.276087936187746 12.34226765360253 10.022464820429942
Mg 10.877268892095774 14.485530976502536 9.95779953207597
Mg 13.714270913168852 13.63764689586092 11.222848999617767
Mg 11.365650530482377 6.0326056926931235 11.08697412159694
Mg 11.316946093235666 11.715789507841443 11.214266223309787
Mg 8.916708039159433 14.379249598531914 12.136278766380238
Mg 7.338922727460095 9.521453949454642 10.827719195725825
Mg 11.73477753101552 15.404120119836502 12.741836792504655
Mg 14.146280768413336 10.629152505250413 12.627353657016245
Mg 8.65537721918205 11.409591915971022 12.844675113336539
Mg 12.813499390237029 7.9145157804123984 13.260015927864975
Mg 13.26224336471198 13.11742015115361 14.075303127379131
Mg 10.038985241980251 8.804299707091817 12.182693343941551
Mg 10.354235264107745 13.293201586265882 14.465440142232278
Mg 11.55815726784411 10.566057434301007 14.115931589278807
