29
Energy = -25.32366772 eV
Mg 20.3190359753891 11.605802537838759 14.323635655942256
Mg 20.046573988050103 13.166432712001098 16.974941666099696
Mg 11.623113398890007 16.364936888943326 15.981475419521638
Mg 13.541065565814923 14.345187599854809 14.916403431770517
Mg 17.46677346198891 13.87620545552321 18.177946339425798
Mg 16.811265720193255 15.03753343563193 15.022830167709067
Mg 15.151678905175407 15.790970602724805 17.46436093537426
Mg 11.979770012159587 11.790086164466851 13.902922027084115
Mg 18.360520435298692 12.708621856466664 12.334836021223206
Mg 19.77725847089107 14.57516722589154 14.263456302137651
Mg 15.086614525584302 12.66259333750553 16.896055284288277
Mg 15.92535495615005 13.464881625834451 10.726954870421624
Mg 17.05642137388665 18.081686157350468 16.265844761727667
Mg 10.55559064827999 13.407619591708755 16.222200666698978
Mg 12.69459425922673 14.13732614208178 18.0372271585637
Mg 12.939987596702188 13.847787060284265 11.684018737321129
Mg 12.294845237618174 16.813693722840195 12.902722344165019
Mg 15.102054872751067 15.765063425883652 12.500814179473375
Mg 14.370691468288737 17.410213743878852 15.024020532439264
Mg 16.718740310865527 18.2466939561382 13.137611634061479
Mg 19.152519829449922 16.079560897142812 17.022224073610452
Mg 12.433526077304354 11.245876653538565 16.945025892030113
Mg 10.660204157020527 14.482162660522972 13.498345926818681
Mg 18.0870098376951 15.73546907419898 11.941884912397136
Mg 14.436117455937042 10.296034570050052 14.906667516270113
Mg 17.62773981118597 11.895602766311425 15.563642177152712
Mg 19.238949094124514 17.509509018218367 14.304065952453502
Mg 15.557460616131147 12.719694446770776 13.57322526112277
Mg 13.952907875577049 10.985377993024397 11.76760604856216
