26
Energy = -21.2074226 eV
Mg 13.247539897341515 14.432592050336815 8.845939831539127
Mg 12.016710057996448 15.70640852875039 13.525691508212855
Mg 7.845686411548374 7.7128110456847985 10.008969649725222
Mg 11.505470952105913 8.8414864345701 11.960342167108548
Mg 14.090703233027128 14.201504710975186 11.72309711923069
Mg 13.136452157402372 11.954435992495679 7.136173937630712
Mg 10.06572009696139 13.226794553852459 14.302371459308619
Mg 9.946353497348941 7.8604336747003885 14.43738147887556
Mg 11.074938401102441 15.161048033232513 10.756622618701385
Mg 11.50003689940392 12.256556677836002 11.696464272823015
Mg 8.953425483978451 10.468503951291483 13.234349101749991
Mg 15.530163614332256 10.100530105256821 7.28260156311392
Mg 10.785787448461077 7.534622276319364 9.1677995678406
Mg 15.114308852778793 12.217077378240626 9.577334806102137
Mg 7.325881025089612 7.764894878560495 13.0014916598114
Mg 14.157957909577187 10.9436884600329 12.114058119457809
Mg 9.793173002000227 6.329897375938706 11.804030365731284
Mg 10.692782621256654 12.744414839701104 8.763858935688914
Mg 11.69403880351861 10.577651227364234 14.460211139676977
Mg 6.668027895893293 10.200018266490066 11.397876630889105
Mg 13.183719437004099 13.151049097197726 14.425809083086016
Mg 12.588087034230794 10.315773479141148 9.5515592598672
Mg 13.022382479914013 8.348330800260022 7.264376066595512
Mg 9.062474999379155 15.668160740232752 12.924361250664745
Mg 9.459955900506895 10.260141324795418 10.069850674542607
Mg 8.518142162663034 13.001094371565882 11.547298006849761
