23
Energy = -19.04349113 eV
Mg 10.512624471481121 12.920575711602588 17.27891467918759
Mg 16.853021687591873 15.023420984036829 14.389152918425578
Mg 14.186876017483614 14.341044132361876 12.88231837899989
Mg 13.645236060449276 16.491313189873573 10.748872273031946
Mg 12.414977208369809 17.279052275034807 13.52271030162912
Mg 15.540568224747064 13.536963307561534 17.096140783168945
Mg 12.775572709972062 14.829629956781062 17.930528906451947
Mg 11.09381102466719 14.898229506644295 12.301319994670942
Mg 14.641927189029525 10.570435409801869 16.489412485436
Mg 14.819158914188144 13.894526182112056 9.879542175544941
Mg 13.271649922654872 10.48857023806055 13.694427139243997
Mg 15.088129888985206 11.254149326296947 11.51749422382313
Mg 11.122168042293529 15.363874435168185 15.330154420002845
Mg 17.18036734442056 13.390652162001357 11.816960950982603
Mg 16.64274902754652 16.117685856392143 10.797693454365167
Mg 10.631765555974674 12.400663419857791 14.017465681874006
Mg 11.628204628169604 10.378921927672652 16.413844126728247
Mg 13.046407630037711 11.924460912191641 18.63491638394375
Mg 15.387824950338205 17.397491812221755 13.141443364478253
Mg 14.217391323450705 16.051721025455777 15.601030820577696
Mg 12.27212322708432 12.271901623296282 11.41859237367541
Mg 13.165988660178542 13.073270109092595 15.375136851640866
Mg 15.97160431439049 12.089488317965074 14.26696892198852
