21
Energy = -15.52641288 eV
Mg 13.137770055039676 9.574381442944242 9.152058174737395
Mg 15.77415301604683 15.107622230962798 17.76659529088041
Mg 12.99285199008838 12.724302504172943 9.816073249765958
Mg 14.524427357350644 12.47463575473824 16.936050816535225
Mg 12.649085815173288 14.795104037356229 17.518982650755206
Mg 14.68253961274705 11.311341369538413 13.916218821180234
Mg 10.828475933778039 11.091774178617428 8.213942064417434
Mg 9.974054986275746 13.979236057511866 13.721732723306657
Mg 14.954894725416251 13.718427350085614 11.939883822850812
Mg 10.110680561417306 12.76725894165704 10.776347229335872
Mg 15.14853949031353 10.933529936501833 10.828667354456703
Mg 11.911259605738026 11.704170153768999 12.765476669716678
Mg 11.634379914301306 16.27825773536983 14.939415126618268
Mg 16.987036141015988 16.769525192712692 15.603671704565022
Mg 13.172982094034586 13.76837251289021 14.709387710867958
Mg 12.194877679770247 14.837563951485032 11.949854072614116
Mg 14.649826860990178 16.231364071970162 13.612178410316893
Mg 13.230923934822247 9.086783544926144 12.220616051898688
Mg 14.120062452708448 17.134452373275746 16.41111454970527
Mg 10.614170452863899 9.720554801543518 10.791798381938563
Mg 16.244607185036365 13.953611736767868 14.906401514496395
