22
Energy = -16.67455234 eV
Mg 9.324274228698421 14.004255556669085 10.475938848884656
Mg 16.49241756935423 13.641577672410707 11.281702757945414
Mg 14.459523567518296 11.751447449781846 10.357685913870654
Mg 16.372310693943312 10.609927544721549 15.395750615554384
Mg 10.233389605393981 12.001050773226428 16.47929043927406
Mg 9.976728776873745 14.880122665894929 15.890396980283965
Mg 11.84602193761367 12.943149542417114 8.654781445910693
Mg 14.379375646258948 11.906689668495446 13.37276337674246
Mg 12.515560862670128 13.806008138962643 14.58089833961453
Mg 9.322565800119396 12.966647690702068 13.605504290645216
Mg 11.683190778567042 12.467882735854484 11.684808437211665
Mg 14.497558662763378 14.258899823577941 8.731945300265725
Mg 12.330666651212908 13.611311671063582 17.69021870935166
Mg 15.404736568109762 14.983709938234416 13.887926169828983
Mg 10.722755414053296 15.380225144647754 12.727430892299795
Mg 11.610679742849033 15.62540194762416 9.516229976893143
Mg 11.47854029794863 10.737951329428912 14.034345547011101
Mg 16.98138950601744 10.784491452447316 12.237545261995804
Mg 17.608244672638808 12.933071053722676 14.15799133598206
Mg 15.206253074781646 13.256166698950201 16.317494658526776
Mg 13.58063746473337 14.595481782483109 11.635514784227896
Mg 13.344022785409015 11.087352758157722 16.342790945601266
