23
Energy = -18.02563309 eV
Mg 14.993621592462812 9.531659159649504 17.492979606504775
Mg 11.973336606182507 9.501335096705137 17.69139928488464
Mg 13.788319301937669 16.840161980758722 12.03829135348
Mg 10.11994489066506 15.327256625952897 16.781259293176575
Mg 11.787389024389764 16.531226944680398 14.56175667740829
Mg 14.023339963006295 14.455348670051468 13.954850304128941
Mg 11.248688917504754 10.349243677963818 14.618967606386676
Mg 12.525060074719999 12.185362348344828 12.300575154470643
Mg 11.440248849538007 15.041811630667324 11.898055304475236
Mg 13.370761873693038 8.270211760416833 15.364706664274879
Mg 13.836672580695573 11.71699340125671 15.415772347469185
Mg 15.977317918594098 9.599960148365033 14.536036192327668
Mg 13.00222635320874 14.380529753451453 16.763220075348876
Mg 14.087444818898376 14.164491207615235 10.525761391460536
Mg 10.862715237575388 12.23620185629165 17.22439464124929
Mg 14.288235270020005 11.124302213314857 10.032787631833619
Mg 15.607392180859472 12.239593983762832 12.978277599148335
Mg 10.96764985246689 13.447807608519469 14.473626627801766
Mg 16.556322017696278 9.806723134047102 11.419683664117413
Mg 16.44207104043949 15.136260859434266 12.099479806940248
Mg 13.654566185232706 9.45226885001156 12.590613724344998
Mg 13.574008183000108 11.907146061953435 18.57784045176992
Mg 16.77235721765056 12.719849465794525 10.121412931653525
