20
Energy = -14.6109445 eV
Mg 18.205587071501125 13.238415594750576 17.61878548595093
Mg 19.214264651723944 14.064756103091458 14.933218075616486
Mg 17.90800556558277 11.302566885991471 15.349022674854202
Mg 17.949920301076915 12.537333684825198 12.553471343471756
Mg 15.474487108733083 11.165636291295478 13.685957364517234
Mg 17.191915746229924 15.799638574611318 16.420316000548983
Mg 15.33757715734792 13.42052423334038 11.236890303854898
Mg 15.481759762135457 13.249457681672665 16.07685041299645
Mg 16.55917998256209 15.035352953525068 13.543424351648287
Mg 13.289625112633054 11.14652611533425 11.50722724036607
Mg 14.079964278699316 16.167260516372853 12.308365133643306
Mg 13.456062587451703 13.4524451027838 13.753352986381532
Mg 12.315649346078112 10.752040971484233 14.44724156293231
Mg 14.37309211217178 16.178739223807227 15.384212365655037
Mg 10.40938871348901 11.576349587625907 12.176629062588141
Mg 12.223854795664419 13.991505557199678 11.052567713638666
Mg 10.288305989715864 13.019046554315338 14.831430381271373
Mg 12.446077760545524 14.07370309160134 16.571910251987422
Mg 11.572248923597817 15.784828388184135 14.083398777552006
Mg 9.536032902275208 14.409795750073451 12.253620804429014
