24
Energy = -19.70394329 eV
Mg 13.696460987802936 10.964939584295708 7.348787673034727
Mg 10.908481140339697 11.818864402198258 8.3687572313587
Mg 15.062242375036055 8.755352512794783 8.735827596532411
Mg 13.493682595447545 13.596957773488029 8.791937691469196
Mg 12.049610803095865 9.095483197900938 9.246957107942958
Mg 10.672430629203728 14.714917258338005 9.317884440089662
Mg 9.169539832129914 9.799093294761747 9.84577146385054
Mg 15.377679347142221 11.487505576715197 10.003093051068268
Mg 13.033694872076557 16.184268515190503 10.367352832619632
Mg 9.30675093192101 12.631967703741743 10.938270417857378
Mg 12.427484448952544 11.732195094905164 11.157272526921991
Mg 15.435146064245611 11.380448371327143 13.074400887313834
Mg 14.10858311056765 9.089798420546655 11.607015110072869
Mg 11.469389899240591 14.465120284147025 12.324936400635275
Mg 11.046291789973434 9.156097379700395 12.17047489674979
Mg 8.194996956407302 10.36367463481365 12.65841828080122
Mg 14.53663201485215 13.93600781514492 11.711177096835051
Mg 10.60645724355253 11.838722930183396 13.619805043903185
Mg 13.3228694551827 13.104092494381891 14.400609954912671
Mg 13.037948560225741 10.112961582914503 14.33681413558032
Mg 10.232635024061958 14.39105332207045 15.431057563402963
Mg 8.328035953668126 11.943898410245007 15.630501653505787
Mg 11.24464182687078 11.78388287820968 16.60785724988878
Mg 9.090814867628213 13.50519729161059 18.15752042327885
