25
Energy = -20.26445577 eV
Mg 14.658695639985892 12.847009152609619 17.233491319480457
Mg 16.495378731177098 12.478802156620349 14.788598222387437
Mg 14.360905391353418 10.261984195926491 15.56583431546218
Mg 11.859512812452452 11.877195210964773 16.798014843907737
Mg 12.450352162155589 14.785219084448734 16.640874959429983
Mg 15.228987930864127 15.169514579369485 15.405599231758288
Mg 16.30684519612559 10.112013800974085 13.001411322934759
Mg 11.163106442096431 10.042902861173202 14.633646903374714
Mg 17.698502215348434 15.137813812045419 13.561270053158735
Mg 13.295057182218654 12.494353462642437 13.998994597911258
Mg 13.44670075979363 9.233662067074217 12.81800009081619
Mg 10.545486516789955 13.572194673015284 14.344266087198637
Mg 14.96475153476549 14.187253455091419 12.378345089172146
Mg 16.791082987671455 15.951701095123548 10.78148148383144
Mg 12.684638701960626 15.790918596619724 13.78948362925753
Mg 15.476214549181757 17.251901700401493 13.140733412591253
Mg 17.382007672606026 12.617023522420117 11.77414976500168
Mg 14.381671112553084 11.516886132462444 11.069336102251507
Mg 7.7631203872687395 14.316612436876934 13.141628372990303
Mg 11.254499451824195 10.943001879327962 11.748915162071276
Mg 8.707856800797975 11.34812844543817 13.389541544451417
Mg 10.183658444081235 15.853317107349 12.028672247728263
Mg 13.495145519754791 16.474288280765208 10.917777162368392
Mg 12.193612580671 13.727460909049311 11.263649750872458
Mg 9.22906312618293 13.110914842527537 10.922247001951021
