21
Energy = -16.66763792 eV
Mg 11.025856231847436 11.712706233039887 8.128761574516933
Mg 10.57332986230353 8.708762714609005 9.141409327970052
Mg 13.31587578192211 9.769926591346927 8.068082617646002
Mg 8.655929968168667 13.310531320503722 8.933666198268957
Mg 13.778438498527635 12.590010330997032 9.405709122924042
Mg 13.279090676387053 7.663244613642933 10.339787387449311
Mg 11.361956973241167 14.259688732912755 9.911691078328829
Mg 8.279187732492295 10.401520139916816 8.416338697039018
Mg 15.257726732801935 9.956724245889784 10.490527590218468
Mg 8.122714737741346 8.725661970606014 10.951535460103445
Mg 12.32596528804806 10.50997438172282 10.837185722634787
Mg 8.923832401106772 14.376492680337032 11.70440914385314
Mg 9.85854661278012 11.44538466022231 11.191945042506385
Mg 7.141451661421676 11.928859330510448 11.5390433871025
Mg 10.846989302045253 8.265757010161375 12.241047969235513
Mg 11.637300558034557 13.806241680957196 12.921957217273835
Mg 8.74959597496047 9.63191959558686 13.786643187894144
Mg 14.064006257988337 12.12325639200932 12.526134302410858
Mg 13.764505907168884 9.031657625206153 13.065108810323165
Mg 9.128386885215575 12.567012450761535 14.076091689068111
Mg 11.548519753990366 10.853875097253749 13.962132271425888
