24
Energy = -18.49428167 eV
Mg 10.161525680558471 1.5838745304018602 14.139972088240857
Mg 10.280906701619152 11.250205418927665 15.492306914305265
Mg 19.08724328082023 13.290305047581763 16.49394225887161
Mg 12.099566423042347 14.339128218539328 11.746886278280556
Mg 17.475165858233673 15.224553595871821 17.929076228790663
Mg 14.744730347940681 12.540568213800759 12.06867582565382
Mg 14.603909048977886 18.07526879847083 14.634193044580654
Mg 15.305284517200793 17.250501173147626 17.4290232562827
Mg 16.874311441332047 15.903706041268201 14.994750605294378
Mg 14.804280558194643 15.147368694555356 10.467263199337905
Mg 13.939866584273041 11.787243487372393 15.377201188373745
Mg 13.038721328942698 17.27074274275171 12.132031026524837
Mg 16.622684046252978 12.897016355008171 14.493055341802178
Mg 14.508107813760075 14.401689479979924 16.913744308073195
Mg 12.061710490452123 11.683596818040332 13.091586030603931
Mg 16.46997820098243 12.133821236671714 17.317960049730736
Mg 16.12597450646288 17.16803474415319 12.177787058313175
Mg 9.581528477624682 13.436653716068312 13.206646974797026
Mg 11.748008009772377 13.933881784198933 15.477959939583844
Mg 14.134661335738484 14.973696595272195 13.922481003194294
Mg 11.689152666614781 18.92644566132647 14.321572871030991
Mg 17.20607532115892 14.405563061958494 11.985395842442287
Mg 12.490127680367594 16.73364780420011 16.29637031563723
Mg 10.670352090656362 16.21704678297761 13.736296113660153
