24
Energy = -19.85399396 eV
Mg 11.432615025995084 15.73331183686272 18.99489755119486
Mg 13.839583908216204 16.6418223027481 12.658962047464728
Mg 14.568145872333725 13.381101963171432 13.356669395324394
Mg 14.206493544116578 16.407460184958868 17.7519153301945
Mg 13.210409367088015 15.160404081139035 15.260734763512477
Mg 13.44388904887506 10.140808213612411 13.943037047392531
Mg 15.71308531092373 13.697932996777304 16.485292174315255
Mg 16.08730522515988 16.284408950314567 14.790754983753393
Mg 17.879891488158734 14.013852347031882 14.370126159373138
Mg 11.828521694916558 12.369715479285983 14.973712790017522
Mg 12.829922661629533 13.475089586736509 17.744121057109332
Mg 15.292002565215721 10.442510916159927 11.748260996114576
Mg 16.426083100268933 15.295495708320736 11.839467395725352
Mg 10.372834497687743 15.05757345005441 16.115217563498604
Mg 15.2707316692935 12.887169316186384 10.099389396040873
Mg 12.440435195380134 11.955610031161246 11.683349476966312
Mg 13.102110152822442 14.751290261417793 10.5439405832015
Mg 14.144445572515936 11.104649632620536 16.644311361163286
Mg 11.135896755571098 17.304151290353296 14.10631495951788
Mg 11.463379699416304 17.831515811240063 17.01387447341282
Mg 13.839713409472596 18.2770244975183 15.318364167394616
Mg 17.569205086642846 12.386941853371392 11.939413973360116
Mg 11.30007363241437 14.524472018381557 12.892994851281415
Mg 16.410710827364298 11.28791599631089 14.604425094602071
