27
Energy = -21.4204046 eV
Mg 17.061914517339968 12.637134880865647 17.274473642732037
Mg 13.306247732056224 16.169669079244112 11.652787196806111
Mg 14.945752111831359 18.931804819076778 12.67895303996198
Mg 12.65950144372035 8.578818096711336 11.1621557491298
Mg 10.444577527897716 10.508167113649895 10.153240721655285
Mg 13.151650167762915 10.77597199950981 8.932575072880041
Mg 15.024163782777162 13.83358777309555 12.7335661558267
Mg 17.171562137949373 18.536334740150046 15.017286527919808
Mg 12.57872942323847 13.616044341869422 17.37628803046246
Mg 13.259959120406412 16.578699468177387 16.778536247081195
Mg 12.202470823070787 14.971803672101439 14.388713469492483
Mg 14.929248846834604 13.900954281168472 15.656207751367896
Mg 13.869429875480385 9.30967773244468 14.230860887490385
Mg 12.400180799925947 17.95338875323863 14.00724806755368
Mg 17.344074949055134 15.569576463603378 16.33676169229361
Mg 15.168830738651938 16.436666280588742 14.278225783633715
Mg 15.19871394829559 14.899469519246678 18.5153883377213
Mg 14.425167967708724 19.37813982002603 15.70601757879412
Mg 14.220385353078417 11.128165104029911 11.810491447731692
Mg 13.947280467795864 13.582465621239454 9.904622308216895
Mg 11.184430094078438 13.077131623350965 8.85673488292843
Mg 16.063576280921957 11.380471607870788 14.309305663876474
Mg 12.754726200944168 12.099787623499669 14.629040454458305
Mg 11.668881197190696 13.144128375784204 11.931938502600737
Mg 11.081869387849794 10.25988433509685 13.040827734601327
Mg 14.49149160254775 11.004061542989364 16.869922236928453
Mg 15.925979862683533 17.819385295847866 17.775304381844027
