22
Energy = -17.60240992 eV
Mg 17.114036883973313 14.187691210837361 16.947801664361602
Mg 12.644644838985494 10.988443451994732 16.141536254517167
Mg 14.9200258271917 12.848677136086353 15.363330854967856
Mg 12.002495950091221 13.620135375785384 14.834170848935992
Mg 9.773110344150394 11.703124101866342 15.364074235128571
Mg 9.154081551495912 14.302291398271125 13.957579621852858
Mg 11.403454049224166 16.064912778065707 13.129230674679537
Mg 11.339521009947772 9.774635924146606 13.726131742929995
Mg 14.020570125424094 14.533342195721403 12.937526218587795
Mg 14.357017806937785 10.592497297664668 13.601767844652825
Mg 16.38199940281621 12.712482979951222 12.668422502438785
Mg 12.824430318495448 15.983610743133154 10.510156485020579
Mg 14.714753329779368 11.321737456488412 10.571949802849305
Mg 12.141876826857416 12.223062073420518 12.037031925617116
Mg 9.141781332769556 11.757913634843483 12.41129993102713
Mg 10.142914569841805 14.478427727756472 11.011694671705177
Mg 13.078531377160044 8.959807648801602 11.429935788017305
Mg 15.263181728256273 14.207290440445549 10.235312118998724
Mg 12.544479275654169 13.335505839509409 9.21331533450149
Mg 12.319434239286462 10.307856577058736 8.91611557786715
Mg 9.904611224438765 11.89905975816957 9.506888918626048
Mg 10.181343792898288 9.321159715007749 10.905362165860184
