25
Energy = -21.47058916 eV
Mg 12.793397224103634 11.677408069196874 6.742803979768955
Mg 14.803265944161462 13.315805442810415 8.410287460854168
Mg 14.984364657830163 10.346022405945224 8.52208399339732
Mg 11.898296533991303 14.088510574906467 8.12444353952054
Mg 12.299863979164103 9.171725337746768 8.063961560553237
Mg 10.106183228785893 11.566662782114271 8.430700714190262
Mg 13.292594788927314 14.535984116503663 10.751229858600793
Mg 10.144222575826328 13.896442721199785 10.578073319021897
Mg 15.451924696104687 11.958926015501623 11.095208017581742
Mg 13.656064413167394 8.754945263925332 10.863497362259352
Mg 12.521665556518599 11.593431034663787 10.405368995671695
Mg 10.506010066351106 9.249630686571601 10.512266415150567
Mg 10.818535975563723 11.635523668850013 12.865219883390209
Mg 8.366046003503051 11.433867989772247 10.963964412633915
Mg 11.469864529066289 15.20607077830448 12.938185672907762
Mg 8.61969434036123 8.806459184007869 12.639188275667756
Mg 11.808239559898261 8.77047521979654 13.178363606349851
Mg 7.590179574004627 11.21850800225157 13.98902115998034
Mg 14.4720086458273 10.162943669750474 13.357978918816723
Mg 8.826707511245019 13.84910166556738 13.335250883163276
Mg 13.606604499446956 13.008296337406886 13.340509917319887
Mg 11.88346396659447 14.16475424600932 15.680363883480098
Mg 9.54747994415621 12.473171138423574 15.936579678703175
Mg 12.330217466315228 11.110772907811182 15.443591684889416
Mg 9.706323237856072 9.507779659733059 15.335075724897616
