27
Energy = -22.71151954 eV
Mg 14.57162711338356 9.02388048510505 17.635843634112447
Mg 18.058584043645673 13.816353899238356 17.165670952816832
Mg 17.145442768192435 11.545741124708249 14.910817832152667
Mg 16.230483093145065 13.47280631179714 19.660195713394135
Mg 16.686789269225173 11.186508543263413 17.76153657226324
Mg 16.654205754193168 16.220890769421292 18.833564370050457
Mg 14.138451456810282 11.346995097460665 15.564722233564762
Mg 17.762927415328726 14.346874128588208 14.09452653346337
Mg 17.61554378151693 16.624441927401822 16.081724523411108
Mg 15.146473182977811 14.158422818475547 16.265914049756912
Mg 15.309957339345992 12.975698838746249 13.023924874677007
Mg 18.416025019963953 17.116424955471192 13.239011943664577
Mg 13.893520905962738 11.925103255708336 18.70345788647221
Mg 16.377068267712456 15.610654663438645 11.45976204236633
Mg 14.947674742870403 16.13072826111064 14.111222892636057
Mg 13.70121024611279 15.203156097100225 18.84266737900779
Mg 13.452374282410478 14.77277698570956 11.47367707885409
Mg 12.63452083484637 13.730238019833019 14.144373064198838
Mg 12.042071791189057 13.240330009678466 17.009752250060277
Mg 14.754392486097887 17.502254560495626 17.00288247271212
Mg 16.63880426993667 18.604318285528723 11.465759524477871
Mg 12.325876263364155 16.085186431142525 16.127338566727026
Mg 16.279749936820313 18.954243353780278 14.576356341209916
Mg 13.760809500430932 17.683937877121267 11.511911210748343
Mg 11.593308942388354 16.421230807334886 13.200503366478655
Mg 13.13865689919755 18.637024524621037 14.553239875083053
Mg 14.565429915403623 20.436496154940983 12.570829115087971
