20
Energy = -14.16894217 eV
Mg 13.666759334268074 0.7989082324967542 0.15570247146912716
Mg 14.670833549894002 15.907445573087955 15.368417405562047
Mg 13.490235477948165 13.108489995780344 14.853693356034988
Mg 15.106528529551309 16.35355125447142 18.46987884768429
Mg 14.156373532335342 15.068901864594347 12.440668177603829
Mg 16.538225456402465 13.742707991459055 14.201293019057388
Mg 13.350623080724434 10.612089902188057 13.164985904098755
Mg 15.559432203838709 11.003945055265065 15.338431574475472
Mg 11.770852667438366 15.729775945394971 14.357029750496753
Mg 12.569977254208808 14.853621501360637 17.415649306938086
Mg 16.262714221335997 11.192182996246597 12.45568789373626
Mg 16.679390755941665 13.91121188493041 11.147358501291414
Mg 15.469466949797916 18.64993359448187 16.354838510474195
Mg 12.434652620026846 17.842179336113748 16.493232007385792
Mg 17.396380921903486 16.025539411114963 16.516852745904217
Mg 13.616296870417218 18.13044103810437 13.720915243483487
Mg 11.684640335152062 13.161804131861546 12.474140420063444
Mg 15.59363482332982 13.60102237019983 17.18555723177446
Mg 13.828616529180408 18.995495642337605 18.831163529269464
Mg 14.038103951360352 12.430464663220489 10.811331826354172
