25
Energy = -20.86665355 eV
Mg 14.388984004185907 8.49787746534471 8.697826879073391
Mg 11.757699384952595 9.299063949979319 7.575889515517992
Mg 13.635767940512464 11.58271738079281 8.752960225177338
Mg 10.609632244406015 11.776708848443663 8.503116012931535
Mg 7.768739444925199 11.435933461191526 9.827418342178953
Mg 9.135119193073594 14.387478056747455 9.582989983191649
Mg 12.290504011199811 14.084211216441844 9.73239273156184
Mg 9.606697429276855 9.108210541745358 9.82379332642528
Mg 15.56253499344283 10.1064743459526 10.80006099403863
Mg 6.486435975257414 14.016093246377565 10.833781247781506
Mg 12.012837894599594 6.924080318846336 9.396683014996173
Mg 13.966705281294963 12.60609337465295 11.798926855651356
Mg 10.339596778410128 12.275760085352927 11.497234281245102
Mg 12.26355382231122 10.00137927149949 11.070570546965223
Mg 10.612001033196544 16.41887255671375 11.173811981530795
Mg 10.822261091330441 7.2631931657538225 12.035137462455259
Mg 8.650663486365861 14.88613264609047 12.81442986558699
Mg 13.927842789908848 7.529236441519573 11.815124470945028
Mg 7.263652150438727 12.037188397262216 12.848017267350425
Mg 11.816541130196995 14.437045739902402 13.089825625319214
Mg 14.716172373061326 9.961827733910612 13.588028201643315
Mg 9.605320607496402 9.813845910267558 13.066981693794697
Mg 12.215565641001387 11.486720688233556 13.962649690725868
Mg 9.550076023466948 12.677014557896586 14.588060623698329
Mg 12.180719839495506 8.57246516288959 14.309913724022163
