23
Energy = -18.67536023 eV
Mg 12.694956078610954 8.816471340855648 11.098574764109078
Mg 11.31185993511274 14.433336638784729 15.370283417720444
Mg 11.20087785941629 11.51122168872321 10.776704826098253
Mg 16.043004974227518 14.019873293528205 11.5213166997928
Mg 12.429303683598 12.224417420480258 13.483020858539259
Mg 14.326682775679895 11.472283928432404 11.168055745782285
Mg 14.502416740734063 16.620668864747312 11.275919593040582
Mg 10.701497263822542 9.549101323019194 13.079893788737321
Mg 17.514002351254902 14.226289291356712 14.268913017602433
Mg 15.856572030708342 16.36730448749743 16.003085324936464
Mg 16.985276979733793 16.748336009081324 12.929007299878197
Mg 15.964934938821122 13.249118416519583 16.61025981872563
Mg 12.722287678430181 17.114458354494694 15.918019723339947
Mg 15.58023930349305 10.20106987383533 16.22026237592836
Mg 13.541488366945757 14.794934368262073 17.542608034891494
Mg 14.532245922298099 18.121595630869223 13.879641875585458
Mg 11.958253240342675 16.483457289845333 12.990962751838207
Mg 12.88075387941812 14.15402626531887 10.99631264438437
Mg 13.660798843997632 9.32531180472298 13.974187534989351
Mg 10.275393647299108 14.018139960487412 12.486179409589779
Mg 13.203485935245613 12.114313791209653 16.269814029116457
Mg 14.221276397742312 14.680654862314851 14.064586835775362
Mg 15.586109200586943 11.936323543896261 13.834100424877702
