21
Energy = -17.08416607 eV
Mg 11.467099457101776 9.698708328625994 7.898750234450439
Mg 11.988109444517807 12.633240347530602 7.7161625212343115
Mg 14.157856620286275 10.904451049213378 8.67872597359903
Mg 9.296320499461233 11.762514825482254 8.523767014074165
Mg 9.745826536006266 9.446177585060305 10.393967640534473
Mg 13.658990391196708 13.648394930794714 10.005349954063714
Mg 10.608217774926986 14.202834897338109 9.890956802297023
Mg 12.80349070081441 8.933386500155938 10.525204056982226
Mg 11.657309135490351 11.630310870211312 11.28852666278096
Mg 8.42811680910594 12.500733894366157 11.270443046247044
Mg 10.987610317898584 8.117172712526619 12.831124064766009
Mg 15.254167559229934 14.182584031444701 12.494877183356168
Mg 12.213748483443306 14.840755591505657 12.411322912127357
Mg 9.143990644063983 15.29703482338968 12.273996453811082
Mg 14.974380318138222 11.300051079967782 11.512802414737054
Mg 8.88117215745571 10.251890953860991 13.164857156060345
Mg 13.670846867866485 9.380383608171309 13.380951130765819
Mg 10.245473351024607 12.918688656096984 13.741434043652227
Mg 13.269585712196948 12.366123629884793 13.8533624458634
Mg 11.291464486586062 10.29679357793079 14.897183709415236
Mg 11.038809386595826 10.470354759849018 18.028821232588673
