25
Energy = -20.18457155 eV
Mg 12.563334203949738 17.803408751340577 12.307976043521935
Mg 14.993005470091997 15.990901463813987 11.522079978984666
Mg 12.451857607478791 16.14805284242038 9.80094105635919
Mg 9.859115211689971 16.27914215758683 11.434199095141109
Mg 10.764125821724837 16.40202091119057 14.334527748133306
Mg 12.187062090430656 14.63666000384668 12.406597133469123
Mg 14.511159554857162 13.191529608419465 13.096225907803417
Mg 16.738387020170258 13.402191161925595 11.161847877620911
Mg 13.80265852654485 13.339024511250987 10.085110525368506
Mg 13.928887413161641 15.838079927602735 14.575981769636805
Mg 16.821894752351117 14.818721080070729 13.902907188760848
Mg 10.6337680330078 13.322176401093074 10.290633787046838
Mg 12.158151292715644 11.62220574238145 13.040412651899823
Mg 9.429452712773069 13.671050015554377 13.165819627863593
Mg 11.748074811848834 13.716098690253078 15.370238624512739
Mg 16.96373680356532 11.643194334785948 13.765547635940882
Mg 14.782979167231636 12.78609936506622 15.929276488002388
Mg 12.183748949353324 10.765549904717373 9.95170980037221
Mg 14.947628106734335 10.759425594222504 11.40142632354906
Mg 9.69951236137108 11.28358166421126 14.979202550429365
Mg 9.726102886511963 10.508231685525177 12.001061169189372
Mg 12.369249150962512 10.954842188068493 16.3355671223944
Mg 14.48258667286888 9.948225981649465 14.375435150042088
Mg 12.84406156156699 8.612751550127376 12.104356833836661
Mg 11.305542278910973 8.750188744515537 14.545402478343846
