27
Energy = -23.67361808 eV
Mg 13.84440581437603 11.076321838876202 7.470400173041005
Mg 12.304479001153313 9.74122518205513 14.16866272263494
Mg 11.35860248942183 12.783131525584194 7.950233052024073
Mg 9.680771619564611 13.739428000445837 10.366454471685856
Mg 15.7556334873486 11.655732834886008 9.834796537694686
Mg 14.455990309341463 8.93649768146128 9.397643650657683
Mg 13.630346831120988 12.401449471277656 13.744780501467387
Mg 14.56722832870899 14.241271324098076 11.33489889844963
Mg 9.335596830453417 8.382012333915402 10.421624179425136
Mg 8.76167417245358 14.273139916110443 13.230077051932174
Mg 14.2563593411392 13.908359830630925 8.288755472478563
Mg 12.154412173071682 15.30665659191331 9.724433256925819
Mg 10.095656138051979 7.629222276070206 13.27846310090649
Mg 7.570711194860906 9.299903689541486 12.919466042239046
Mg 8.965404260266642 11.19642839490228 9.089472991939832
Mg 12.623575644390998 11.77498260231929 10.681298080825798
Mg 16.421837142518733 12.339227026558252 12.708766992953608
Mg 12.216231515075304 8.490539497521588 11.345471932801365
Mg 7.695534152543491 11.930466196514171 14.573963564391036
Mg 10.762106581939168 12.463829361548742 14.912680881922608
Mg 7.231498587296394 12.184834267329514 11.536095930489946
Mg 11.682803796508471 14.243746733552214 12.552111609801942
Mg 6.614419021262353 9.651033948594035 10.069625430941512
Mg 14.746921625097578 9.862949660851221 12.288532622235923
Mg 11.462343025185737 9.623414252488892 8.573575286775357
Mg 9.523084227483595 9.69637443146894 15.298376204255554
Mg 10.174915020740162 11.060363460860245 12.13188169047906
