24
Energy = -19.65913482 eV
Mg 16.361913241648836 13.427364901440745 12.532666241297509
Mg 15.261463023264568 11.633613532968894 14.591718352716063
Mg 14.820080653810784 14.509096999941692 15.073388751010972
Mg 16.021090206692538 16.273123022289564 13.086825985675253
Mg 14.66753251323976 10.47382356587589 12.036508515913644
Mg 15.102251878893798 12.4839733732618 10.040834340088477
Mg 13.020048206808147 10.26501752784978 9.695418619597683
Mg 14.670644349282295 15.34032918433583 10.670911657242126
Mg 13.365661177156321 13.467685864659511 12.642853097358987
Mg 11.819577444037431 8.553462977785788 11.782561010535542
Mg 12.555170010295786 11.912022525621433 15.486951567485033
Mg 13.190529785797048 9.406968504011003 14.253037398894238
Mg 11.5346705071731 11.494957510052195 12.335788511250914
Mg 10.254111849949826 9.622867355804425 14.315370150552296
Mg 12.349893675798421 13.043625271273529 9.492744440301715
Mg 13.110226597764004 16.41716537518184 13.206991168863723
Mg 11.884069814624185 14.69519606780756 15.269417449108449
Mg 11.723673723718036 15.540679650312725 10.754044801839298
Mg 9.801041009139754 12.471401842039969 14.931422505557155
Mg 9.646011247636237 13.315817687466717 10.401937309198203
Mg 10.086418236607235 10.43898842753393 9.91191740399158
Mg 10.20604991758089 14.502722678476005 12.949740599308367
Mg 8.907681774523388 8.670724900315815 11.905288504739968
Mg 8.527352566883405 11.509572157040987 12.44911335768602
