27
Energy = -22.79108511 eV
Mg 17.52202806173312 18.592481733620776 17.51416165286465
Mg 17.298649576146115 13.004133021342614 11.07070595752909
Mg 17.19998988636875 15.043847298773066 13.482641080836343
Mg 15.931593778944805 16.616601505038144 15.735194315516821
Mg 16.312715694861318 15.724574363044068 10.6087275813675
Mg 14.577650648334817 13.20258050490914 9.711289736216061
Mg 17.155377583555392 12.063955011499708 13.84698976627959
Mg 15.276133802341057 10.779540655229855 11.725488980668098
Mg 14.705261552501614 16.773299059694615 13.000460649052394
Mg 12.546893458253622 11.047707263271397 10.653219264022553
Mg 13.447816183608822 16.07052978882233 10.29945073435945
Mg 15.401512664909626 13.648275041498286 15.835775568628907
Mg 14.266527548683133 13.649022172669946 12.789173015801294
Mg 11.758945486954941 15.667379246440685 12.78220379135332
Mg 11.573102698149466 13.785849785653895 10.388719218795698
Mg 13.035094474590531 15.522681878772016 15.43086037211458
Mg 14.474909230337722 10.989551153297786 14.692472401556252
Mg 12.569014638980263 12.692109016572582 16.36815203373928
Mg 11.681992930882245 12.3042927986909 13.370073229096363
Mg 12.928023335848732 9.124102732574787 12.888652885226378
Mg 9.103010623948991 14.482504486718016 12.040095183123713
Mg 10.107559542046442 14.371622927246776 15.056555155299385
Mg 9.516890669990142 11.542573441515538 11.09885752758137
Mg 11.952618168385166 9.654474720709949 15.668036448003056
Mg 9.731516821906183 11.497098739828536 16.055067150497237
Mg 9.913662925498851 9.662348155871209 13.421307597312904
Mg 8.191480652996685 12.251451250711149 13.702015953139302
