22
Energy = -18.0970471 eV
Mg 12.505755581610126 8.981028543596542 8.07914604836131
Mg 11.353978620400536 11.171944270698663 6.244907174190332
Mg 10.14469992032444 8.479264278384164 6.444390240996977
Mg 10.270107428691661 13.621331910446267 7.633146460610802
Mg 8.778128391491578 11.025151273365772 7.882243386440681
Mg 12.596479626692888 12.059940709483604 8.840326093285666
Mg 10.62603236999824 10.260901481439763 10.327860171279276
Mg 8.46487032752114 8.253118353661122 9.19139452101668
Mg 7.606561336493787 10.784985940248397 10.717559254835646
Mg 10.815538972686095 6.437018269153373 8.4788991980052
Mg 7.877947880551087 13.729017963739373 9.439433659964834
Mg 14.18214376498763 9.955646888049435 10.542206024223871
Mg 10.473792294534519 13.48420991565899 10.680603662163323
Mg 7.222569387950014 7.938259565297769 12.175134026767319
Mg 9.422519979221882 6.1826721514952725 11.144978633407073
Mg 12.099848557138568 7.6451615191602045 10.924781121031652
Mg 7.863553493162103 13.26623200416837 12.408506032624173
Mg 13.113003509149747 12.357233308907105 11.893971981065906
Mg 9.916659702657627 8.566414384148368 12.997335856068139
Mg 7.548265001436178 10.501338492779054 13.712126904119687
Mg 10.315227714334238 11.606998525933761 13.103088749574352
Mg 12.812120073650783 9.701934184870229 13.14776473465328
