28
Energy = -23.94653027 eV
Mg 12.714858796193406 15.96932494959159 17.73065199468704
Mg 11.128168597395092 11.706134331146053 15.91219742047097
Mg 16.544882145766785 15.807812140878859 11.782848115880396
Mg 15.529228894411052 16.937668136348993 17.884989582092185
Mg 18.818934412804442 14.629067060521315 13.83454446068456
Mg 15.308024892445207 13.902300682809212 17.14190832481149
Mg 15.550982785703063 18.624244597181086 13.08881986663382
Mg 11.430213020961025 14.696393920495119 11.756186389191457
Mg 12.858288245962202 14.382173248780903 15.194437279870879
Mg 12.316809009264047 12.054266789021858 13.116255800727544
Mg 17.248570916612422 12.238901138385863 15.168338142461206
Mg 14.118497237259582 11.446452525453166 15.708021210154618
Mg 14.11151099255884 13.5586561266145 11.066543627038424
Mg 17.03049278239432 18.848283198285007 15.865696507428408
Mg 18.30561441649643 14.45077780691135 17.06325522559562
Mg 17.473631750667238 12.883976182093427 11.961222980787545
Mg 13.642595949356139 16.39316190501754 12.752605606578529
Mg 9.928766507050398 13.870235430782657 14.15688673056403
Mg 16.318366493366668 16.048334993600296 15.077705580997474
Mg 10.167014977833814 14.515622954401069 17.04099590552345
Mg 15.208581572020107 13.800523034074427 13.75361534642614
Mg 12.579021212102042 12.930128287357402 18.13205098552185
Mg 15.106889097740844 10.983255096246985 12.891241026096427
Mg 11.002252033555243 16.63008850392971 14.679110187209021
Mg 18.360487160363625 17.245873650107853 18.463975887463107
Mg 19.403192422477368 16.864544930596445 15.7719546061464
Mg 13.770547258386607 17.789784778226558 15.4463430453129
Mg 18.33553597796843 17.74662792636727 13.17306436797445
