25
Energy = -20.33366427 eV
Mg 11.235325171913459 7.134318155248818 9.72029050235184
Mg 10.838327713546613 9.989399648248655 8.268584918478378
Mg 10.615998202353543 12.987474776472679 7.858576673254908
Mg 12.806952103905669 11.953005395710615 9.611713976658212
Mg 13.486396638631236 9.0437689298315 9.469122788670578
Mg 10.235493841271907 13.736643849710173 10.74016738584693
Mg 8.580352076672321 8.519764955549345 9.866095862130953
Mg 12.979525311321003 15.015148223448199 9.94952529843392
Mg 8.581368756711365 11.523921877383996 9.640188342417764
Mg 10.863983494224852 10.502974317126133 11.523452691572718
Mg 15.337322994087149 13.18528676106618 10.730680308611818
Mg 14.427955785240835 10.493070197862783 11.834883036988947
Mg 11.723907823207961 16.21121308985078 12.508200708155739
Mg 9.588219541086927 7.013799659954066 12.215838494806624
Mg 7.957522597046353 12.572803180719557 12.405195166043288
Mg 12.604335675897486 8.052077288894495 12.354737567794023
Mg 15.033023680461108 12.705605654211773 13.846192106588484
Mg 14.654526301605314 15.445238863483175 12.441698028940802
Mg 9.687064251927357 14.593746108322872 13.813170176957605
Mg 16.505947123842798 17.327551178587285 14.029583485887867
Mg 8.041227423053456 9.570696069358718 12.746625246112425
Mg 12.87929807220338 10.469057260690068 14.340954243828689
Mg 12.337019843191548 13.011701454944102 12.692635115654419
Mg 9.95495952486187 11.647446193839803 14.402124677876536
Mg 10.464452037519598 8.714792895269659 14.410269181721475
