20
Energy = -14.45613236 eV
Mg 15.887410669329743 9.449654895367589 10.88567094848174
Mg 13.322593305797524 17.216719392722165 15.913468892294484
Mg 11.15720312713775 12.334343131371249 13.482635821436954
Mg 11.730935322080462 15.358273263335938 17.67201047027537
Mg 14.408275659393318 11.009513084065963 8.709005577164406
Mg 11.895849296706315 14.770523538185694 11.552461443606376
Mg 14.428811133872031 14.431639743504135 16.53099554970992
Mg 13.068714682210619 17.166083917457044 12.852953635660931
Mg 12.72733386381782 12.657580227688403 18.51117454070401
Mg 10.555702589462806 12.7778796638722 16.472801665064306
Mg 15.436787208646795 12.530974356906894 11.20700398579657
Mg 15.070477894182215 15.540015267785176 11.387376613771353
Mg 13.31530385336739 11.551514022251194 15.801469870084537
Mg 13.756400350745976 13.961471001987883 9.108418643826496
Mg 11.468640618001748 15.164263383299655 14.588081132947682
Mg 15.620082601306962 16.14389875724524 14.24998656889828
Mg 12.069966962745191 11.900824531896845 10.685031718329828
Mg 13.018620560080114 8.97365348041379 10.452542151884495
Mg 14.019251023617489 13.613670491809764 13.63530466770957
Mg 13.743811845660774 10.523617299210153 12.97928596071604
