22
Energy = -16.99769661 eV
Mg 15.930497160027011 12.055871467617868 11.156937498783645
Mg 16.302955028177987 14.798739896423859 12.640972342868137
Mg 16.381965540373677 11.858574161435254 14.13268174042758
Mg 13.670684707919786 10.973771656194952 13.044827045337769
Mg 13.652158614101882 10.613541320551972 9.831684696716309
Mg 17.669693447053483 14.459209891122626 15.238247833470954
Mg 13.572223840090924 13.869507890927112 12.322113129850665
Mg 13.789003521276605 13.492080913798631 9.220174813709782
Mg 16.446924127827337 12.497408817118213 17.180036068251756
Mg 13.728719877167764 11.480211684978952 16.113120811487427
Mg 14.407468116262502 14.223364340651868 15.182991776986295
Mg 10.984567529321707 14.58696814384977 9.317664950673215
Mg 11.386013958447654 12.18194742187505 11.153526496885695
Mg 14.003270909912716 13.528603450404166 18.629669430724853
Mg 15.964319839669164 15.498376028406893 17.572791848741797
Mg 11.471029705069274 12.805921351119375 14.22411416614231
Mg 13.170465663181943 16.242440636101986 10.56688401333178
Mg 13.092339321653489 16.512908187957787 13.758515389212853
Mg 11.434819707018894 13.407927121083219 17.1914273094881
Mg 10.651250235663156 15.58716753816443 15.22879028452487
Mg 10.648576542227467 15.160092679829422 12.256299344146093
Mg 12.947962758956178 16.094828907778286 17.177272855453964
