23
Energy = -18.99875723 eV
Mg 13.83953584874795 13.890339424701581 17.443202801224537
Mg 17.36326199665603 14.763778376294747 15.3465440868447
Mg 10.920642337681574 13.837815705960496 16.203628314859078
Mg 12.814534575814632 15.631308240712311 12.005465373155664
Mg 11.168671578339453 13.375128361283217 13.261702378024621
Mg 15.272568219580661 17.547600724424818 11.793559973128103
Mg 11.566004544504233 10.193786786828094 12.712305536539724
Mg 16.01980546728845 12.102671964711783 15.990425274793372
Mg 10.062945695764395 10.898761690461637 15.218806100048448
Mg 12.321745090000107 16.38756513054874 16.7997039556841
Mg 12.408953423769843 8.919086290465913 15.26692782663253
Mg 17.503113486987257 15.66721740833798 12.542590511207164
Mg 15.345912964083011 16.49548611384797 16.845619514926913
Mg 13.096844377327425 11.988106575174138 15.2558002956764
Mg 13.617860209196573 17.58947051430875 14.310678142366172
Mg 16.551086520771722 12.79567169125126 13.071206098578491
Mg 16.673395583251278 17.733137923316164 14.495959123209946
Mg 15.373732451877517 14.597670241979733 10.863163809292976
Mg 14.948788383927399 10.225796190747124 13.702041892783262
Mg 14.362049876713854 14.64151986415281 14.400687905231521
Mg 10.858560850886917 16.20483855405979 14.249904295044256
Mg 13.701587492354872 12.40933942113097 11.975932339336708
Mg 16.724404929159284 14.044050209972301 18.222886966051114
