21
Energy = -16.79556384 eV
Mg 14.864454521819612 17.40063867874171 11.938967022487361
Mg 13.509993013458791 13.195938108783672 9.273517995945404
Mg 16.147790551093323 15.488220042196986 13.792084570753527
Mg 16.25428705997288 12.378414648161138 13.70508904943401
Mg 14.70381470897296 14.099479254001745 15.972374881815616
Mg 10.958706048421664 13.075500474320702 10.928456270060577
Mg 9.088573173418759 9.343362099214715 14.116714860724569
Mg 11.774200829805869 13.678558513405235 15.399055236129474
Mg 12.662435119686398 15.671405273580774 10.868537695839798
Mg 9.440432262362545 12.612420430130088 13.664326708215311
Mg 13.888996355486192 11.29606557692009 15.5119958281913
Mg 15.619933303217396 14.589299953025474 10.987049839011586
Mg 13.492911301316294 13.36492495894103 12.776974106431746
Mg 14.762982115220375 9.873626133200533 12.886357108543978
Mg 9.665542096339314 10.40423555982741 11.348704849855906
Mg 10.587175952381351 15.300489773439987 13.042551759323748
Mg 10.75382644760097 10.962702996137137 16.076086128411045
Mg 15.672432512342214 11.539729068130153 10.660046462896867
Mg 11.933669282559098 10.868211882727492 13.304849480616065
Mg 13.206398484385076 16.171792908205052 14.23005437831585
Mg 12.842546691960873 10.573232425972183 10.481871956387414
