26
Energy = -22.02553737 eV
Mg 17.19481404670544 16.278811321936928 13.22100269163583
Mg 12.193465597206155 14.577963362663365 10.368728378727885
Mg 15.409360880925561 11.512644521361786 12.593776660956612
Mg 12.91080750536166 12.02822859227972 14.468061116999495
Mg 17.396908517507857 16.012145113418537 16.08628384739462
Mg 14.389397815170316 14.30110407045966 15.91353165298908
Mg 11.265693864413171 14.23578942312403 13.230313861279235
Mg 16.99203291637202 13.480164343882244 17.56404015325071
Mg 14.66393632662206 12.864239498495994 9.829177672886527
Mg 15.376107897574133 18.39308633694888 12.010618667025371
Mg 12.947904657703166 12.099537151969235 17.62828642207448
Mg 17.222769466301177 13.457887601156063 14.318096479303582
Mg 15.14218340275314 16.36650967264567 18.07380604488625
Mg 17.025552954186722 13.978069035564635 11.219375018687515
Mg 14.683732742014701 13.83117965072287 19.49760215168191
Mg 15.629161788258012 11.295375711866626 15.68672387976559
Mg 12.730982745778691 16.911355577471138 12.42214587474231
Mg 12.502550311495876 11.867951991239806 11.54275722340677
Mg 17.617448514810565 16.976058422742042 10.351889554526498
Mg 14.449635895544365 14.46710917661641 12.94019154651941
Mg 12.352686345931772 15.171636580652283 18.203582549275175
Mg 15.606445169539258 11.089406207944561 18.656103599154026
Mg 11.912286882523171 16.372078858146597 15.359828605316363
Mg 14.772971909839507 17.239603033171285 14.841760308851748
Mg 10.841608471842182 13.624002335393692 16.12505030599153
Mg 14.792718303498297 15.971168841850805 10.213439391264608
