29
Energy = -25.42664977 eV
Mg 10.617936977110094 14.110710646920896 7.26444161007219
Mg 10.177710845535481 11.228404950803048 7.072848842192838
Mg 8.233624224516115 12.832102108041026 8.72972309910741
Mg 12.675135305027991 11.406833497035217 8.806073418938215
Mg 10.90431938661538 8.693921209696285 8.532217157467073
Mg 7.882087616717061 9.844205708397933 8.518802675684892
Mg 9.766826407661418 15.666218182062973 9.747039595114686
Mg 13.821812763985992 8.490504766160756 9.19395496179549
Mg 12.831243012933088 14.79170949943843 8.956042955338264
Mg 9.636993778563816 10.319777167724773 10.846024605602384
Mg 9.02183753450402 7.35580353323169 10.744305365769096
Mg 10.679908799627604 12.954545472205357 10.603384465974186
Mg 9.48086623838355 15.258191887681603 12.88213890952159
Mg 14.034695849771188 7.574821235958818 12.096625062928311
Mg 15.275207600931854 10.311972577314679 11.080181855566712
Mg 11.82090839398997 6.527348715155444 10.317538649439179
Mg 7.362220200884305 14.139195527364562 11.267083491015338
Mg 12.336180819510933 10.090805141904736 11.71806271688879
Mg 6.7486396835683875 11.237897846635445 11.02693254890449
Mg 12.123593971409816 15.61281739720296 11.693556422721851
Mg 10.946686925675726 7.526275830870002 13.069103382843446
Mg 8.293266783337733 8.9900251594328 13.281632989597052
Mg 13.684461531795064 12.938101165695446 11.291661160711563
Mg 15.986445132524567 9.195735991818445 13.775549479127518
Mg 13.992539520690123 11.355306079206017 13.967281756259947
Mg 8.650908931997472 12.176469185769616 13.237292347341077
Mg 13.216953539625663 8.554124210323184 14.80075194098341
Mg 11.538295480842466 13.057831265378772 13.52776914371365
Mg 10.78948703874361 10.289138337049732 14.482773685859842
