21
Energy = -16.57388409 eV
Mg 12.538932527535334 15.857437307078971 12.094650480018569
Mg 9.969620996856312 10.89212595528571 16.047776070259
Mg 11.110066701532247 13.220798835412019 12.62538513246947
Mg 17.095154484071614 12.59195014343645 11.658189475528568
Mg 13.197055985450463 15.940577347751828 15.223359578875025
Mg 17.647595672282048 15.167437677754952 12.889478733291437
Mg 14.198264131730324 13.534336257699328 13.361001921056767
Mg 16.197641484511255 15.438228880477403 15.545667888129168
Mg 15.176485925051297 16.8169834142444 13.163216572007219
Mg 11.513330118026444 13.546431607779994 15.880528372249346
Mg 9.70693366222714 10.463728526388563 13.141446960089766
Mg 14.485742957857184 13.197650070274756 16.414670246340094
Mg 12.437754275980074 13.575336935943566 9.95114282318774
Mg 14.726184978291927 11.723605208589593 9.893861459408797
Mg 12.654259650801164 11.03127437607418 14.442612155511966
Mg 15.090141958063706 10.639556980522714 12.716832412687502
Mg 10.314285611482928 15.726287593388111 14.224605715575617
Mg 15.106055823965518 14.748692086798727 10.735531243576647
Mg 16.902165084736083 12.62670681351793 14.660079996175641
Mg 8.603534418081422 13.02051173084791 14.527747495829493
Mg 12.365696170782694 10.767354742539268 11.437722066765074
