23
Energy = -18.72835208 eV
Mg 13.040167556860673 10.989491102693034 7.420963867250977
Mg 10.323933448333024 10.51766055723153 8.609669336839737
Mg 11.761153402184075 13.304711274981013 9.056619512213665
Mg 14.440584429739838 11.577101766827028 10.053343886788435
Mg 8.89975553754202 12.789929179759493 10.191266645849609
Mg 12.974261722359154 8.991877453070881 9.642064799726338
Mg 10.289853550070651 8.505025722013514 10.901554973381257
Mg 12.479329960259282 16.310492904516394 9.52031058810745
Mg 7.735473452307812 10.074882159489508 10.280706285330849
Mg 11.521833397124047 11.373783119540045 11.394635581197269
Mg 9.653826380459373 15.715495640035197 10.224400001058202
Mg 14.661466054639888 14.523690853595077 10.317265088261928
Mg 12.863446180882317 7.050964789978524 12.188507487400086
Mg 8.963372761918805 14.283866792067107 12.868600063737885
Mg 11.874248859796523 14.46760067281336 11.937198073424149
Mg 14.095448717253992 9.751199285579832 12.437774119892227
Mg 14.10787971030282 12.71931185645992 12.917099446468097
Mg 7.936763228436857 8.408076454161522 12.873884443190317
Mg 8.698600134407188 11.338643629562453 12.910513099627856
Mg 11.067414496892372 9.490214443504485 13.74705693400561
Mg 10.186847788946807 6.51114392416226 13.263501197506042
Mg 11.184301511179838 12.624497704831686 14.267288801300104
Mg 13.452347648493598 10.892648643516928 15.188085697833026
