20
Energy = -14.37668674 eV
Mg 19.0134149396381 13.431187920478207 15.016792514828461
Mg 10.719720083788289 15.090569637199637 12.53272023072916
Mg 17.35019011505863 15.347226930843068 13.309861929232461
Mg 11.263205965980237 11.449517583633131 15.983447675546147
Mg 16.108081427177105 13.900569361593538 15.872286387425763
Mg 14.228370701804899 11.301942439575063 15.611332225270852
Mg 12.727638673161243 17.38712271785349 12.308879609829766
Mg 13.465690405243066 14.535421061407131 11.198278583787976
Mg 9.8834095057095 14.180085095628542 15.378907485250158
Mg 9.462627871832739 12.294854492267017 12.903558650948677
Mg 15.515557789494398 16.88301406429448 11.489773936024514
Mg 17.140122045206216 11.181158927008275 14.846282980430772
Mg 12.447996006515478 12.815548497036788 13.4909680293789
Mg 11.755965488023552 16.528584862696253 15.117748687898903
Mg 16.5556017171667 14.28639593476249 10.535030353643721
Mg 8.257031560709901 11.646034214205214 15.525214405242039
Mg 15.319189620274452 12.798894043833126 12.939478764193021
Mg 18.30907110742899 12.544143800505003 12.243899152538058
Mg 12.928413239868668 14.056950036496854 16.42707470583526
Mg 14.409541649272201 15.597261392009388 14.105807182282195
