26
Energy = -21.87299336 eV
Mg 15.61565612330661 11.355984889511596 9.271807150623482
Mg 18.060831091678754 11.46974450618882 13.776786960450346
Mg 16.816634469211024 13.044335498668286 11.477373651203488
Mg 16.174549316709143 9.931829425542878 11.969451453076958
Mg 17.2927434876374 14.321638257233468 14.16462583777631
Mg 16.67504827239946 12.267608244225846 16.426478271361486
Mg 14.823307949478322 15.322440071942 12.516896344247394
Mg 15.964623874631911 9.696306240019867 15.005401978886168
Mg 13.90106999996998 12.13217144578583 11.527278938494048
Mg 14.04050403891526 14.401302900317852 9.706136530780228
Mg 14.682674377092319 12.57544781914385 14.20629643813887
Mg 14.799004802111215 15.264311902254619 15.576246557363923
Mg 13.204495087297024 9.84020089373789 13.504386401577507
Mg 13.471479559810911 10.909710258358718 16.357727799354237
Mg 11.975139817198581 13.741711667421995 12.922464541968798
Mg 12.297212233145316 13.699744014993145 16.1257156025244
Mg 12.275181053026339 16.35387455272814 11.18599518562211
Mg 12.131895793056591 16.350339647353195 14.34672110513781
Mg 10.99794702362987 11.047630073200853 11.57512183066708
Mg 13.513297111143322 9.40061149099629 10.496528941731507
Mg 10.551732858202035 14.092767495439768 10.046858869432036
Mg 10.82721926000452 11.475124562465336 14.680326468267065
Mg 12.340574515810168 11.977589409386969 9.007912999636604
Mg 9.583171020316213 14.494033304853437 15.026515087130141
Mg 9.63584647998358 15.959717579516791 12.452124149154887
Mg 8.915589895517332 13.010910981809772 12.487465756752705
