28
Energy = -24.2717173 eV
Mg 11.23348987926626 13.272214801974968 8.041432253528923
Mg 11.958260182231934 10.344461314914032 8.438754336388664
Mg 9.134023656227177 10.980503119086935 7.875835863380238
Mg 14.204217059024728 12.284832399203758 7.891986251611536
Mg 9.745610221394847 8.312022622403235 9.292131227842622
Mg 10.936569911088473 15.379961621464945 10.263894809532166
Mg 12.699295996701355 8.009715733219515 10.060465179158392
Mg 7.552671514750006 10.199392470708016 10.46236170652515
Mg 13.63881171545012 15.031374579329828 8.985187760119185
Mg 14.776030438882671 10.316272717258553 10.162102964436464
Mg 12.440142782454311 12.386459230697588 10.735228565901886
Mg 10.668446844233676 5.996123227233396 11.076026597034664
Mg 9.400765789318415 12.641212313239999 10.421434678937384
Mg 15.743627447115399 13.29226998380859 10.225698733212099
Mg 8.259352850023921 15.113389722628515 11.783297135571024
Mg 10.696042259598688 10.055110271979162 11.612826297271493
Mg 10.939837487117986 14.778372769164957 13.187456494711409
Mg 13.687052311388978 14.7420244564545 12.08613788482009
Mg 13.52211397904669 9.298469241448307 12.866562487178664
Mg 13.474695118528036 6.193699873912414 12.273748145762582
Mg 14.881242776362383 11.966074908660527 12.72389894111249
Mg 6.360142429369727 12.794702987856216 11.757819710082824
Mg 7.006084710398551 10.303946702629114 13.421115241836317
Mg 11.193060654582894 7.500222251251117 13.668736411757283
Mg 8.513044525517607 7.868652308621597 12.231891851207353
Mg 9.02493496419482 12.525632165721467 13.522640589215499
Mg 12.016373339004739 11.992471200298231 13.785780589357442
Mg 9.744330931651726 9.870686779756639 14.5958190674326
