20
Energy = -16.82893132 eV
Mg 13.332080117896995 13.405089279071916 9.335665592556351
Mg 10.816161032861187 11.682989167269618 8.844381262039654
Mg 11.35529379296217 8.811006827002016 9.526719300977916
Mg 10.666311659003544 14.669925552044402 8.520698411425899
Mg 11.513088924664949 14.805407034992545 11.40021017548699
Mg 11.832600972405508 11.72487384223099 11.785670294670155
Mg 8.975482107715678 13.252324974932305 10.711655538989062
Mg 13.66688898155299 10.491125501057779 8.846601481878759
Mg 9.201361423802048 10.225167775886753 11.0674415312944
Mg 14.820694739026639 11.298852460096231 11.50709746330741
Mg 13.861429585294376 8.446014898505673 11.112873378842067
Mg 12.618330241318677 14.501205955407753 14.177303237380178
Mg 14.499803479401647 14.267821658643832 11.9343044536659
Mg 9.902074972105247 13.345156652750287 13.620313758769392
Mg 13.202471632480794 9.842115197268223 13.72911272395704
Mg 7.435753701257409 11.756825836200873 12.956904884911006
Mg 9.88096176411508 10.295529917912997 14.072733022193617
Mg 11.091829965944697 8.16842591194541 12.381225088080237
Mg 14.73155430475721 12.396085157718225 14.336868431412647
Mg 11.930525620468924 11.948755418097793 15.466918987196065
