27
Energy = -21.96047401 eV
Mg 11.409168405539681 10.967460778127695 17.490577580235506
Mg 12.32851720597552 9.979114912452964 14.481946751045149
Mg 12.545419258626147 18.473659419387076 11.754624313401726
Mg 12.51869051078734 15.407816478642712 11.26987801131843
Mg 12.74107669394523 9.654848930260002 9.596830823427842
Mg 15.936247061364996 13.005174633654828 14.971424413749213
Mg 14.588270041405817 18.540879178926417 13.967671658220024
Mg 15.131315038009744 11.76011736073128 10.180238411099882
Mg 11.705499047674403 17.814919177071435 14.520334552161097
Mg 10.097456072526352 13.596270262152718 11.633986330126753
Mg 15.323693591450345 9.885237762183067 14.961264483349751
Mg 14.78373087911155 14.626219194418589 9.424706815193721
Mg 13.41068452849394 8.821171057275372 17.153149062410925
Mg 15.218095754095089 16.903442043594854 11.463845802178659
Mg 13.341582148558807 12.61527524881515 12.668687726063963
Mg 14.198611308873241 9.449048804457757 12.180628207158394
Mg 12.3114228703413 12.796791238350194 9.709726803702813
Mg 11.105768919787387 14.897286052905033 14.142819203894778
Mg 14.674482784092765 11.438475215583972 17.482791159845448
Mg 16.249985271417223 14.10292566081387 12.087262998143196
Mg 12.976475620305337 12.941277862406432 15.574645224855853
Mg 10.187654335423877 12.045029406435981 14.224177289110402
Mg 14.183075138190457 15.44055555553005 14.034467364788268
Mg 16.613000008521475 11.197061988552187 12.697348311362546
Mg 10.235965024589692 13.650825751795232 16.82948573033301
Mg 10.93724443983993 10.588332806870989 11.689871999833846
Mg 9.92540197659006 16.856292027835256 12.050116892487008
