26
Energy = -22.29142878 eV
Mg 15.815470706729105 13.616134955040202 17.82647405636496
Mg 15.023707962704057 11.172173212298654 16.230458122731033
Mg 17.2014774650762 13.35114085323954 15.141598946627337
Mg 16.54371040796603 10.727753986008572 13.743710934609503
Mg 14.954370463829148 15.644139007466617 15.755316433092023
Mg 13.006898287414552 13.480472456095425 16.968289775117533
Mg 17.46358918711094 13.03430780878007 12.12149365261916
Mg 14.256156654334392 13.17930265989036 13.944596938965974
Mg 12.05204748491815 10.69346703632185 16.022069290331903
Mg 16.468619742288748 15.600989878199552 13.226395524049035
Mg 11.970639415742934 15.97672488624136 15.46167958916605
Mg 13.508386568076974 10.123349744346953 13.486062412482536
Mg 10.93508570027316 13.226142838501467 14.871422513672627
Mg 15.033939903420064 11.354396488629082 11.22114879297755
Mg 13.417059575452875 16.047728397832234 12.857709190980389
Mg 14.985658355964826 14.413148859980435 10.89784012300834
Mg 10.48608124063197 10.504829632468248 13.431111111913566
Mg 12.18456829027392 10.315451632005397 10.607916237431374
Mg 12.066022834180602 12.941741130978064 12.027284997251781
Mg 10.408199616202397 15.570334596136842 12.89424743427497
Mg 12.109057150640512 15.214732207159514 10.089015716891874
Mg 13.81227026506674 12.628807001979888 8.822314170788676
Mg 8.494138908865962 13.001138217023165 13.101970159468506
Mg 9.204063299580135 11.1956790969237 10.840616974447155
Mg 10.959253476841331 12.587734229986532 8.843513248478638
Mg 9.156375903021557 14.313423390436073 10.510592776505964
