24
Energy = -19.50503569 eV
Mg 11.573157688592264 14.501203751774307 5.962342961668743
Mg 9.682300520137037 14.640141267292618 8.261352672839125
Mg 12.624149640586976 14.754221357611197 8.960534011875717
Mg 11.34509588558537 12.069712767172968 7.762614423684104
Mg 10.547527556168077 12.861247594734422 10.621695052721266
Mg 13.568344439157562 11.994158645146847 9.955553112014512
Mg 11.38989597044522 9.94377706112503 10.52488925487865
Mg 14.189314462860475 9.40601303617283 11.49583544523243
Mg 12.624261198457761 12.461530264250413 12.816068486150971
Mg 16.094548487306803 11.734561765606761 11.580357063632988
Mg 14.646802201600087 14.478649157582467 11.38436570061531
Mg 11.650818022941205 15.362182436335686 12.008070493409024
Mg 11.908495646736144 9.383666466766417 13.5144414470254
Mg 9.423409736904993 10.81579274948121 12.626454148209467
Mg 14.650437256896497 10.653621821355065 14.20690286915008
Mg 13.892201190579042 15.761821666243947 13.970014799269835
Mg 15.921341759531494 13.46056699787031 13.95719966158232
Mg 9.255404518427394 13.744658393910044 13.165626008819205
Mg 11.18053349463545 14.859301880669399 15.04664198911685
Mg 10.757917331973092 11.764259984157228 15.183739743891255
Mg 13.52028735254563 13.190584219377861 15.613881498043249
Mg 12.66393173250811 9.411627865793136 16.40464015069086
Mg 15.004005828013991 11.113208786323556 17.253297427023398
Mg 12.142793004311029 11.890464990146915 17.980456505356237
