28
Energy = -24.04464646 eV
Mg 7.907410316995904 12.805320284477476 13.425172879318588
Mg 8.883515402303344 9.961505191130213 12.122880789947212
Mg 10.502104721450037 9.865523069547402 14.786752997654437
Mg 7.36838995931869 14.743457944040903 11.12432318641248
Mg 11.128486735026105 7.720528004357076 12.597545976433487
Mg 7.796382284339646 10.305734607188201 8.984215126847337
Mg 13.306644341400487 11.641383061580715 15.242572812584482
Mg 12.832481081618479 14.420076902399941 13.998949251742143
Mg 9.93166884053403 8.380961562607165 9.763936493191451
Mg 10.86969548099104 12.323142973103066 13.185777854925783
Mg 9.981288797080332 15.183502739145808 12.53964046922653
Mg 6.344051126685033 11.882559998104167 11.049193462403027
Mg 13.136144523521653 8.534172511223556 15.181419803820654
Mg 12.834092295494237 10.166026312504437 12.638057120711215
Mg 9.351370363290306 12.57264003335803 10.576009475996587
Mg 14.282518319273539 7.501198649199025 12.594222597466285
Mg 8.691475086742942 12.976319670996203 7.739389985096102
Mg 11.693388451930746 10.962642441539504 10.200573444390812
Mg 15.568367986665566 9.99944117067169 13.89441964965349
Mg 12.96581966691523 8.099984896492554 10.04371016863837
Mg 10.364446552840938 10.48562852625633 7.43074997303033
Mg 14.735009486286774 12.55994639713533 12.482125047413042
Mg 12.36991672715067 13.988311401583951 10.956386675089275
Mg 9.98325138846972 15.316692946060227 9.439506386897438
Mg 15.264406456119923 9.986577650213093 10.687248304157427
Mg 11.760293578318974 13.106051138577358 8.01697632857617
Mg 13.578360001339362 10.265859605815653 8.015877535392372
Mg 14.610534853289584 12.629026395109486 9.496252908754458
