21
Energy = -16.4627445 eV
Mg 15.713815679683144 14.852803115215092 10.966455114317608
Mg 16.027539645424294 9.787049546177876 14.736422667657287
Mg 17.681954119570715 14.702782571748491 13.767501503978162
Mg 17.339319014709694 17.28421017639807 12.320256639882988
Mg 14.708183042291836 15.509624025223623 13.613129066230508
Mg 14.412718955255842 12.175789032560607 16.315253518783486
Mg 15.254462296861407 18.992496357879393 13.766337507100067
Mg 12.6905303278494 15.724250174236685 10.659504222339248
Mg 12.503719957988247 17.427784574710227 13.411526965178922
Mg 12.348268131785549 12.181635479648733 14.09041950262373
Mg 14.243063560588967 17.35168962734006 16.058862405395903
Mg 15.499692921890833 12.591730970526157 13.248389065628611
Mg 13.226933954804494 12.918903447350015 11.275237933276099
Mg 17.178063968158025 17.22288322820346 15.349529518622672
Mg 12.690499820867934 14.704953577561357 15.733489779972425
Mg 15.812648893317592 14.815400289610157 16.565816284639688
Mg 13.96947348576299 9.988436450997115 12.438495765579475
Mg 11.22664280120011 14.699205660578835 13.004931610890281
Mg 17.40385971392674 12.39465949284614 15.678596613726087
Mg 14.70094065104626 17.867464819607516 11.127007848261663
Mg 13.174895037499182 9.394624126805741 15.250831509033658
