28
Energy = -24.35187868 eV
Mg 16.003446737897825 18.59069196770618 12.58141075409654
Mg 18.508043894300563 13.612477367091104 11.730818564562771
Mg 17.49947999746638 11.377673661869814 13.616785277377488
Mg 15.719455114676027 10.672978509659464 16.133076086782918
Mg 15.842048368038723 12.936527756998354 18.053944995156208
Mg 19.37644534539415 13.74949764559628 14.555041590549214
Mg 15.875673113192398 13.76194120403266 14.813359363403947
Mg 10.717574613527901 14.307709445318592 15.31298244577151
Mg 11.818672627335769 15.202785790944713 18.037980665493073
Mg 15.880183007321047 17.3618726859641 15.59560961793387
Mg 12.840688092527913 13.642277817904716 13.083541958531217
Mg 13.241922506447994 12.679880772146918 16.282965336359126
Mg 15.291390869749169 17.85312779992861 9.418028379105106
Mg 17.014002822608106 15.892046211547093 10.601573033532615
Mg 17.862128368802683 16.15316454122545 13.598088224627434
Mg 15.536651941478485 13.22470631418944 11.585958616803001
Mg 18.33874765470111 11.96032294314477 16.589586836987092
Mg 14.376308252255557 11.206147184164776 13.580772341523701
Mg 14.866753873184617 15.958303629302254 12.92865066213149
Mg 13.157877874404699 17.93689999911253 17.360699678492857
Mg 13.283498778913788 18.62124055642728 14.398460435472565
Mg 13.133371480791922 18.31570875611121 11.422384343963348
Mg 14.963074148361097 15.69095061073758 18.0637625990637
Mg 13.430925615991868 15.58940514655476 15.421802290439071
Mg 17.726056056725277 15.142944036045165 16.76705846926983
Mg 11.47972298987311 16.34256859237693 13.01591934778031
Mg 10.701812044282843 17.260906598287306 15.859046702811046
Mg 13.456752147947753 15.421155222593926 10.442986568848486
