26
Energy = -21.89384977 eV
Mg 16.893966939478464 13.605977262978874 18.7790667906497
Mg 13.13732143582075 17.75266953414317 17.645545909300225
Mg 13.809734453878024 15.24481733187497 15.186586857858579
Mg 13.246220816941005 14.948646592137228 18.4902611015225
Mg 18.56400717321462 12.622578223371324 1.3717346883229673
Mg 17.896430645858924 14.11874409684401 15.953909695594454
Mg 11.913461799663501 17.86254748952047 14.783228316890794
Mg 14.81142540997962 18.38533339330751 15.332638565998266
Mg 13.369478583180202 14.254634182312353 12.12936279632694
Mg 16.493166430854657 9.87617690502149 13.565890517995237
Mg 14.759808103397765 12.915230386854759 17.007731845462942
Mg 15.715204622996016 13.238219569984052 14.025995082489299
Mg 11.019772310367047 15.081882458911087 14.0007851860683
Mg 11.82276399112886 12.140791125210722 13.455103071557849
Mg 14.198501549163653 17.08397706688963 12.674658585476871
Mg 18.638972425708054 14.324953719226631 12.914765825668391
Mg 16.964898485086906 11.113025587123278 16.28981194518571
Mg 13.9393992278319 10.826175355434701 15.090776159776325
Mg 16.795369279000365 16.40257283284277 14.189701195730605
Mg 16.14969347938621 15.117596257515213 11.472041238498065
Mg 17.27500133021643 12.095562804911552 11.459423874891506
Mg 11.884375458047552 12.9909642165125 16.301059752698293
Mg 14.4049732266026 11.322820260480452 12.002616979784818
Mg 10.834078204991581 15.853883013635436 16.90179179248868
Mg 18.889358040778188 11.669491379740164 14.103880414616913
Mg 15.923634071771085 16.0713488662812 17.200081454917775
