20
Energy = -15.09521635 eV
Mg 9.90004194840673 10.554940935096733 7.497927903663879
Mg 12.223035667634885 12.600385713529224 7.735245372029435
Mg 9.400923133240513 13.222800732095942 8.739809435923357
Mg 12.15715114124658 9.734566729996498 9.17492156758432
Mg 7.712490165924436 10.506359963327137 9.406414625029061
Mg 14.541117273204625 11.574090049810597 9.68729289969389
Mg 12.203683166183978 7.297245342914629 11.128262357261896
Mg 9.524820588749392 8.152179155969106 9.681799409383945
Mg 11.743579609435747 12.392474143205769 10.665563694998248
Mg 14.874208064368142 8.389037678741643 9.644510921152724
Mg 8.790908103247206 12.13251621719532 11.58919253775498
Mg 13.911253409189266 9.619872226831525 12.107424177057284
Mg 7.97302612507797 9.077218229386618 12.148635418803865
Mg 10.174231762374253 14.91497556320954 11.302978307509763
Mg 14.059398815228674 12.550919349780036 12.620725179500432
Mg 10.835629410966382 9.877310523681132 11.968165341070312
Mg 11.315737496083438 13.262308388318424 13.594690571211316
Mg 8.533744923909456 14.06170667246611 13.964009812603772
Mg 9.263268824300342 10.97062303423485 14.375078796103283
Mg 12.371510265130292 10.618229244111197 14.477111565567226
