20
Energy = -16.46238228 eV
Mg 10.38169528387157 10.437945326798753 6.156535318032805
Mg 7.585424440554412 10.446123445198968 7.2573799015363285
Mg 9.387554054851046 12.464831106106287 8.386765258372563
Mg 11.991271884262057 8.172940452373664 7.342212681586731
Mg 9.102103530182129 7.89375595320247 7.184331492839879
Mg 6.4807996582180305 11.820188269804293 9.683412678750914
Mg 12.305419052700007 11.20319813339661 8.249289536232316
Mg 12.828922251991141 8.66073511511861 10.122228716336625
Mg 10.238542890902405 6.963440820997825 9.739446711670979
Mg 7.571609237891633 8.722426995143246 9.659214939938325
Mg 11.49250676756343 13.674540650529677 10.070824623383352
Mg 10.189797580020178 10.11116458938416 10.087266277014688
Mg 8.723802449515803 12.574293971313539 11.409484213280559
Mg 12.532385583018248 9.730538842240765 12.82534927717125
Mg 6.752800838913541 10.17417513076804 12.15100213831057
Mg 13.6379691364127 11.691876649858564 10.830781371846504
Mg 8.25544750594394 7.3750869433797375 12.212169962441783
Mg 11.188076446178274 7.091953428134634 12.512322830971616
Mg 11.362821078142485 12.429708485124948 12.689582906691879
Mg 9.584478469513199 9.954503831770861 13.023827304235839
