25
Energy = -20.55063303 eV
Mg 8.857520764189646 14.820950764017482 5.5521725896500165
Mg 9.78733933286362 14.179421221046248 8.381149568004979
Mg 12.665800740155392 13.50561044395364 8.725287186300449
Mg 10.619075249397994 11.322748912938026 8.347913903030818
Mg 11.013973862498876 15.131932345769068 11.02487707306656
Mg 14.077564295247162 14.527195005702412 11.453580088392902
Mg 14.996784536443942 12.021087057215441 10.02703837722351
Mg 12.013449848336096 12.195223128072188 11.459760196548492
Mg 12.917787669862385 9.74059624009261 9.850734034090644
Mg 8.995087251314178 12.628741198968115 10.81184116631969
Mg 10.026139211537725 9.742298602265976 10.811556243452351
Mg 14.884507126966076 9.969524316366218 12.139635909174208
Mg 12.178089626528736 9.16320576995663 12.912835963515638
Mg 16.18203101573725 12.623422092651603 12.664642441415621
Mg 9.912471513154015 11.165015398555814 13.517509033047226
Mg 13.36486308560868 12.139395148836085 13.958632220537003
Mg 9.443895149365245 14.134322172186248 13.427055748733974
Mg 14.434358710968462 9.559204686586362 15.142608459480265
Mg 12.23912005468915 15.059901409251015 13.820771059741702
Mg 15.282642832795622 15.00930229132349 14.167554483544444
Mg 11.404170803846332 9.800816659621587 15.733755757431938
Mg 15.891216145419742 12.300875384134057 15.778142681657165
Mg 11.010979360179226 12.890499964326946 15.734686821119126
Mg 13.408296982130379 11.382728109550957 17.292607549212722
Mg 13.648271825294687 14.241418671142752 16.519088439838466
