28
Energy = -23.93893979 eV
Mg 13.973371378484327 11.578599059764557 19.30248440285066
Mg 15.92797343854739 18.633840144902738 14.157261280893156
Mg 11.892466286756099 15.823666237186227 12.91128285202917
Mg 15.759977010920606 13.160931440966245 12.06434996072651
Mg 17.696802127876083 13.046332954918128 14.421546799274717
Mg 18.330116950408225 14.613014699206468 11.913042329056154
Mg 13.12751718117395 11.945658181979578 16.332699065481773
Mg 16.046876704759587 15.814445411028888 10.019614964442832
Mg 17.329960606618616 14.666365956990536 17.22391234815712
Mg 13.240260709168213 17.149031403171712 10.195721646171114
Mg 13.783202875430282 14.14984328238822 0.32550220847647826
Mg 13.460053399486705 17.067542498287136 15.373337514893741
Mg 16.0423105175972 16.165763191674838 19.705957449935873
Mg 14.997626062268013 16.13105249761261 12.746700247601954
Mg 17.67481520734134 16.109012698999855 14.612260625495601
Mg 15.441739690860736 18.891590220424725 10.891347054379196
Mg 11.788120787954151 14.573235213410777 15.626652894739477
Mg 16.43581434010988 13.199761039256089 19.771606203484634
Mg 11.669714879416153 13.405270975320741 18.64477739340407
Mg 13.348379079073776 14.260182764315493 10.648805756180693
Mg 15.183487237395456 11.184168269517569 14.255137884340916
Mg 17.820509464240864 17.545194406904233 11.907045080236351
Mg 16.067562659115595 11.870986185353646 17.050176974860356
Mg 15.004081866553223 14.359002293506975 14.995878763895334
Mg 13.068045089433928 18.653448955857733 12.807930930318301
Mg 14.123770236184104 14.923060422736894 17.731648806888874
Mg 12.84507830350575 12.902388697242351 13.300439039060743
Mg 16.01920557422497 17.404357491698498 16.873933909262554
