21
Energy = -16.74185251 eV
Mg 12.18864126500345 12.401268307845507 7.873641802387284
Mg 11.793489640188476 9.456353035847648 8.287188516176156
Mg 9.387210981932707 11.341139013740326 8.076681686737853
Mg 10.33151176846504 14.182468384045018 9.41910355661007
Mg 13.708788067716878 10.874761845954476 10.039816823485324
Mg 9.218948818232644 8.51754847039346 9.369115787902471
Mg 13.227501985573747 13.77663135227433 10.326266132354533
Mg 10.78739242292801 11.388771388954217 11.001920728001025
Mg 7.707921458285787 10.694658893750727 10.884749153142774
Mg 7.430778766809629 13.284265028797494 9.351890901437434
Mg 9.076267639283664 8.389659056910972 12.345390707700764
Mg 14.988264235571688 8.268308558214821 10.969009073816258
Mg 11.927171762185013 8.570749630027521 11.254264195962747
Mg 8.594275295108991 13.354702234652144 12.13909160673848
Mg 11.297123993420291 14.765672765985064 12.31725496579322
Mg 13.08685038640894 12.048447484400835 12.894999937730812
Mg 8.314098599357306 10.857301879468034 13.869937646450392
Mg 15.858014764175826 10.861888432922788 12.204948625727976
Mg 11.175035105097688 9.879835418407936 13.922634854304546
Mg 14.064968296566432 8.999795594297662 13.734685038741556
Mg 10.54153104844795 12.791559523868587 14.423194559558773
