28
Energy = -23.65185632 eV
Mg 9.77770963610223 13.583608084227345 18.841827980215417
Mg 12.636222621199648 13.078120167188837 17.633000539981126
Mg 14.651471067822055 15.260439453452497 18.105698979010505
Mg 13.758346133369809 14.04529660227699 14.879283374084148
Mg 15.38810358315999 15.487362971091672 9.848834688814323
Mg 12.049822129120667 16.263266105372036 16.91052951538507
Mg 17.4289063500312 17.241596227493773 11.264428159942376
Mg 11.052384097670188 13.025101722659246 13.611361259731744
Mg 15.923093625914067 14.829311945978134 12.968530535653239
Mg 14.239458064754992 17.34196089202251 11.960163480625114
Mg 15.683065647556296 12.531369580070184 16.835583564731213
Mg 18.390977252525648 12.776309235082948 15.317159041487562
Mg 15.888039511525248 17.8254919728255 17.07639380771864
Mg 13.058292103338616 14.506926449586176 11.641389720410363
Mg 13.387551185555168 11.653192262598221 12.433253847530615
Mg 15.782448510439226 12.653012829189482 10.887218372808908
Mg 14.181060327360278 17.011376448460258 14.880438476175472
Mg 18.184865319563574 14.539108625915642 10.358804503937055
Mg 10.357620821594898 11.673685645999171 16.297629253510863
Mg 18.499672746528095 12.426618832716773 12.40452808738466
Mg 15.905175276331434 11.66266611203651 13.970140575146761
Mg 16.726798891074115 15.175541286622085 15.847155662418418
Mg 12.06135930464454 15.20285674592775 19.796439210330657
Mg 11.548951160851495 16.12316615158976 13.77555792831312
Mg 13.163470121991022 11.03992693205141 15.424324835466006
Mg 18.87298151049441 15.306438372329811 13.378590760999462
Mg 9.881900345510223 14.5974895508544 15.881058525489077
Mg 16.977680878354814 17.719536461621946 14.107577463197838
