29
Energy = -24.74402969 eV
Mg 9.107245733091911 10.074547460917644 10.233698464029006
Mg 11.747854884290954 9.214437928205289 14.060028202810996
Mg 11.66589265269213 12.080001589683354 15.459061714121558
Mg 8.949062210842687 10.957827059982547 13.32753902525231
Mg 18.000379290841654 13.712675030011166 14.393767296326628
Mg 15.535054242814278 17.93159081126275 13.21747789086008
Mg 15.230622978689233 15.377089543000718 14.40071985021371
Mg 11.27510021740938 11.773467725636023 9.09842901861664
Mg 16.04542462435975 17.92217166576362 16.382510319763693
Mg 10.249682941521929 14.128760969384679 13.455322935510827
Mg 17.496214028869993 15.593151098722634 12.016887737417797
Mg 12.41031667019762 16.406457812386797 12.96845445787392
Mg 11.826154331178397 15.109407724868559 15.7611103552015
Mg 16.325569082314168 12.794991971768304 12.161944515426784
Mg 8.964813958960608 12.960361821309652 10.959248905226117
Mg 17.09460137605174 15.09880017977942 16.85194195438428
Mg 11.730259550008618 14.48131563626451 10.674994915460834
Mg 14.210739010250519 15.53173096329629 17.414459389486463
Mg 12.187658026682902 9.29646369006649 10.714301217926497
Mg 13.209959974634659 17.773262982212547 15.525311392119667
Mg 15.069579762491216 12.728719008161573 15.716593260694527
Mg 11.510701865105084 11.647674153483726 12.214284239950048
Mg 13.955600146285633 12.222914859337267 10.477069084211655
Mg 14.650604949525059 15.234469979616863 11.136999290492485
Mg 18.19420286765981 16.860833037526337 14.611272982758141
Mg 14.459225761643289 10.621256844604236 13.193611167767006
Mg 9.695736636811537 8.08518131800155 12.24224957339417
Mg 13.357322326416872 13.517572991691804 13.32844597308367
Mg 13.765434837337738 10.009480170754822 16.077290632587573
