24
Energy = -20.35887109 eV
Mg 13.483608203205304 12.196427509083064 8.725311666107853
Mg 10.842664833509595 12.65018002197756 7.275255856820185
Mg 11.983945919611498 15.02860786534719 8.733297786415294
Mg 11.337602662396433 10.001866944004487 8.573824125056916
Mg 8.585991001359387 11.402617158790774 9.066127857900462
Mg 14.015153450256983 9.563872515025905 10.093550343788722
Mg 9.160272033372372 8.624167855165819 10.330805605351703
Mg 10.989926972954834 12.537151280085242 10.580575687948706
Mg 8.924715731002177 14.57448577411347 8.388296550822576
Mg 11.947626837019497 7.324087628909553 9.702021705028676
Mg 11.487468902203325 9.879737939580616 11.858966137404405
Mg 7.858744612253076 13.746159457708899 11.019449698477683
Mg 12.779195707258008 14.724706146075546 11.640401350909569
Mg 14.448818312589129 12.153488802188452 11.538131847094727
Mg 10.061967700272643 15.764831936672621 10.984398191653158
Mg 8.484437724540268 11.077124824898508 12.15940217521464
Mg 13.990455013081117 9.871938443520637 13.542159738338833
Mg 10.62684379754398 6.371162174495433 12.170645231984825
Mg 8.986975624839591 8.43368756930819 13.465596475676723
Mg 13.579660249424604 7.236156113950968 12.203538553504126
Mg 9.919887410223362 13.594826616024797 13.290620777623452
Mg 12.694201379956944 12.630881730733748 13.887171809277142
Mg 11.782477825914 8.039225041497357 14.526885932352204
Mg 10.367649398786318 10.912899954416087 14.583856198822026
