29
Energy = -24.90192565 eV
Mg 11.018775969071703 17.66857148542916 0.860754091367787
Mg 10.695121446057227 14.67854318377079 13.57157322883093
Mg 18.28867762981447 15.832278375841275 13.674937547185307
Mg 14.366882765182138 10.780386261590724 16.488236577139336
Mg 14.911456887446718 12.975789592957781 11.111216085360189
Mg 17.039911888940757 11.062605437059128 12.228084775725392
Mg 17.874815525729545 13.781237269939616 11.586044997358032
Mg 11.124523548713766 17.56939408653635 12.522591042394168
Mg 16.937150110994807 12.260918247851635 17.09558322784327
Mg 18.45530212305414 12.860406299960006 14.527736787476252
Mg 12.116765129009902 12.400862793058169 11.962330288271078
Mg 14.247613029164613 10.60639990713548 13.314147987398048
Mg 9.65231489193065 16.337720566176998 18.34542937615678
Mg 13.565068192875328 15.550063199044466 14.498788965301884
Mg 12.680057072477256 15.55506010272429 19.238808737295614
Mg 13.969050261549805 18.247339476946156 12.195169332656052
Mg 12.531055134416341 12.533365281467196 14.891583280604348
Mg 15.480362244767306 13.278313053958707 14.168134590274184
Mg 10.335511613675747 17.12971600024222 15.349574075771049
Mg 11.907761287057543 18.275177983145063 17.738879627937294
Mg 11.394064966257565 14.62883977331041 16.649691729362978
Mg 12.841663287363065 15.265646485874775 11.437968434277579
Mg 14.524761129506487 16.95443694645675 17.16284378890826
Mg 15.974204244613988 17.650599854923815 14.50313041338552
Mg 16.822187708834225 10.150199245364592 15.020462500534665
Mg 13.026457798709602 18.719712434605768 14.966444649147082
Mg 15.744786895986586 15.761028710850404 12.105120578782996
Mg 16.805248697838834 15.181184070944429 16.162072422522364
Mg 14.29493978264367 13.777412477847845 17.238735340862142
