27
Energy = -22.72303878 eV
Mg 11.463735669504008 12.17235337280926 8.295270303789103
Mg 8.523457279361926 11.299683177711564 7.907461557986858
Mg 8.242225560710326 8.365974124053881 7.887876516428207
Mg 11.03940835035981 9.190991195057517 7.383686923287843
Mg 9.256134486980415 12.98854737837261 10.470957011428247
Mg 13.398865389862712 13.809061392677338 9.900253685079267
Mg 13.475068446677858 10.572510573284672 9.83555593985899
Mg 7.445606997513403 6.724169370411792 10.196966199579666
Mg 15.664882885676727 12.264066607915872 11.141765080656029
Mg 10.847958685794453 15.003744799258303 8.824919146088018
Mg 7.252245659026313 9.828348227600364 10.349710085713534
Mg 10.351791916125043 10.027874868154385 10.262255094204466
Mg 10.410806873759482 6.950105820032693 9.360845857559418
Mg 12.430115375379618 8.080266511299442 11.442275670602175
Mg 11.745253854580639 12.124971453796668 12.05217905488973
Mg 11.290112083689154 15.236193179201694 11.746841854045977
Mg 9.301748190804851 7.9493452574334595 12.17837629602111
Mg 9.018380324121221 14.005022721699865 13.329539560768366
Mg 14.189547773350856 10.0927080462824 12.725368228972435
Mg 8.830658735993469 10.993929181433291 12.819173517743726
Mg 16.989189897830574 14.763458772807661 13.134264075568812
Mg 11.340193710393606 9.653492550571622 13.847121554086822
Mg 15.997173241430081 12.109864810188428 14.123624250051963
Mg 13.935875943173864 14.22248242749823 12.899282968151388
Mg 13.064994581907568 12.020362250040195 14.911846061933302
Mg 11.519891127548798 14.62306752627374 14.760303451927326
Mg 10.07807015807494 12.030797603765736 15.315673253210232
