28
Energy = -18.00292456 eV
Mg 10.927754336624313 13.391254024237755 11.876847016577713
Mg 16.70249014643185 1.1538582212136088 16.002349305378605
Mg 16.40169481328116 15.849981355377361 16.258234279466066
Mg 11.915240190802493 15.173387680934395 14.001748461155868
Mg 14.219028857200714 14.253946218967702 18.426392653803184
Mg 14.293785752885434 10.216760255846513 13.763627313940352
Mg 16.712510989704207 12.873218011747516 17.404356340079026
Mg 14.400063804774765 13.52352733478234 15.281407623286174
Mg 18.965790368713165 19.275170938401125 0.7379396223711033
Mg 16.86726575294234 15.315723826789144 19.16226705008939
Mg 17.3961165205603 1.1090032936813876 12.877661852899896
Mg 18.930123975048623 1.1804090448833504 9.94377642619719
Mg 17.076901639717686 0.9804994875701422 19.143571708445545
Mg 14.916262040614882 15.961747791376272 13.576150423737039
Mg 12.096138983394837 10.697260564703614 11.637122523054215
Mg 14.820890473511795 10.69228504505701 10.461637068137788
Mg 17.0148329065054 11.125503002624091 12.511981543877209
Mg 13.932791289227215 11.132351050757782 16.839977269671696
Mg 13.04551068593038 15.453473998432688 11.16122881219802
Mg 18.160483564066304 16.721784617191144 21.416514213365886
Mg 11.784185324549775 11.916802957863087 14.376264243940096
Mg 16.72446553075516 10.629254435416692 15.40332983865559
Mg 18.200011229147005 22.120026844957035 21.905282056542248
Mg 17.178845614847177 13.53883717619559 14.216818790030807
Mg 11.765047352527564 13.806241716896519 16.793320234173923
Mg 13.411188722760357 16.407535995381 16.29949935203315
Mg 14.498650292469048 13.076681444468413 12.332342238950645
Mg 12.864427521926977 12.788958292996123 9.597553716423452
