21
Energy = -16.45997556 eV
Mg 12.269291202388857 9.007047444900966 7.002944641476411
Mg 11.646558863735091 12.004585560798887 7.137395919586984
Mg 9.491160056099812 9.828716642007876 6.88269329018347
Mg 8.88581375580149 12.52602756850761 8.301131852799347
Mg 13.388715384026224 8.572296455661869 9.770211922270589
Mg 11.250821244922388 13.5668421939813 10.026362825688839
Mg 13.853733237792524 11.736839337515358 9.336287561610387
Mg 7.868942024117912 9.906547889929504 9.508871862949674
Mg 10.2587235615829 7.832323699076478 9.505109191566623
Mg 10.973733377712769 10.59767194163291 9.765050726029143
Mg 14.55466694158407 10.323368172811081 11.846084000262408
Mg 8.42960653644924 12.557070207273284 11.238987909351936
Mg 11.94718514557853 8.774783058429197 12.381788034436857
Mg 8.851722704459489 9.641163874393332 12.341059747224868
Mg 10.395551901821143 14.395015387045602 13.068917781872125
Mg 11.131298497669851 11.631274642949439 12.50571648401637
Mg 13.587402863011594 13.201440371789678 12.040678883388695
Mg 13.23403301778039 11.01109357614485 14.522359613041948
Mg 8.532082917017936 12.180096637876792 14.204767043076671
Mg 10.435214781427216 9.950686905887261 14.998911290826953
Mg 11.090875724629495 12.832242170996377 15.691803157948184
