28
Energy = -23.42610378 eV
Mg 16.55454517666958 14.016800187817962 17.814226031712
Mg 16.2501365336447 16.91704771367363 13.495863155311532
Mg 14.966421970769877 11.303995208525208 11.871576643077374
Mg 14.973266835704708 19.035087258645504 15.195938527162248
Mg 17.888683214868344 11.627342213148363 13.209730793093623
Mg 12.979680014969363 12.269316117247678 14.307911087126696
Mg 16.043578592925464 9.146418701093584 13.514870132522708
Mg 16.274283226517614 16.850149564366717 16.697027825268073
Mg 17.61270916035477 14.58514325004379 14.900647259945202
Mg 17.58993682996318 9.266819085625537 15.994757937410288
Mg 18.71070989046444 12.039487430789293 16.287723542261823
Mg 11.563617791361539 14.28253177884051 16.32133981393961
Mg 14.544224937296123 14.686700798028575 15.588861697558418
Mg 13.17089390673103 16.12659649759922 13.48521154652577
Mg 13.772936686996774 12.392839645198073 17.473998791880827
Mg 12.845765954386955 13.485636426672311 11.517554110509579
Mg 15.57752190408754 14.119779494757516 12.623731394745986
Mg 10.87694848212239 15.78823900218982 11.393030468911927
Mg 12.164294094413929 19.125337001426935 14.123172989173824
Mg 14.517696726581113 19.05606587300754 12.203280366724321
Mg 16.473325020389627 11.047427628922444 18.10241363940068
Mg 10.504100254825655 13.725397045042007 13.542326657736105
Mg 14.528986817440062 9.59079108995257 16.12944828498504
Mg 10.376230154858062 16.575160598334016 14.495503158908942
Mg 12.935596933090856 17.121349924154444 16.41685838741447
Mg 11.770057692879607 18.558189531148937 11.249149363828138
Mg 14.07701901023885 16.376340544927462 10.746299391909059
Mg 15.83260126372996 12.050257997431624 15.162982253878287
