22
Energy = -17.87808391 eV
Mg 9.936826874576884 8.443191004637013 8.526376650513365
Mg 10.209805711827793 11.434340854549538 8.167955522043195
Mg 12.707267832927302 9.418221312060412 8.762309751508871
Mg 11.062703675854289 14.183726916073892 9.638803451345074
Mg 13.115597313056579 12.453852892337212 7.869004518784129
Mg 7.523841289050289 10.117312072177013 9.652199552809313
Mg 15.256281683568266 11.17091592512411 9.719303818993081
Mg 11.720612715091198 7.257888388597988 10.609038724893761
Mg 8.225760346994376 13.101865037810846 9.683240520538893
Mg 14.512766387499262 14.018861167623362 10.146875885835984
Mg 12.311663709934386 11.774877350264115 10.68223984183879
Mg 10.071599368284986 10.165241995908117 11.153990114376159
Mg 8.622987953013848 7.5643629866230295 11.337194601002778
Mg 6.9314387238680215 11.92002868700754 12.136649452249324
Mg 12.456801780042614 14.182581939103065 12.488802765011629
Mg 14.706728635785547 12.06250962288009 12.601053606936636
Mg 9.686190710897444 13.066876657348034 12.344315374394473
Mg 13.518229006973122 9.278571189924646 11.819341761098995
Mg 11.080008730329046 8.299945496797832 13.39690329928138
Mg 6.371172070894128 9.060851256728613 12.385734365539468
Mg 11.851818900250104 11.276093916772693 13.70392678381276
Mg 8.856102318695225 10.484089069065554 13.910945376606804
