20
Energy = -14.81062894 eV
Mg 16.43698155927161 14.42637508437263 13.314210106122461
Mg 16.119419574650685 13.144636014304924 16.00164602366875
Mg 14.982507176370982 15.866586021970337 15.62508101157157
Mg 14.723030001742291 13.182961115403758 10.613903656705665
Mg 14.742156221776344 11.936510035247554 13.433706592146294
Mg 10.93201444655199 8.40823349570161 11.304557318986042
Mg 13.868840032233345 11.063715726695715 16.13633872667409
Mg 13.504242198943668 14.882339044508754 12.99291229013998
Mg 13.435002240133157 13.897693893912923 17.229072108322224
Mg 13.394783248503062 9.953451078183042 10.424741970235825
Mg 12.32953905640759 9.851218766170701 13.510006236980644
Mg 11.910633003263426 15.696491364895408 15.382623084567529
Mg 12.522624654086666 12.174047248448582 8.533339212202167
Mg 10.399453502506866 10.19567588719236 9.049886773802463
Mg 12.183369319386044 14.855962658369199 10.110912238856377
Mg 9.598197478815312 11.006833583364271 12.139980871104665
Mg 11.849847093684588 12.749720905304004 14.755611832765544
Mg 10.400775068062686 14.38883868506033 12.58186049510366
Mg 12.151711378324807 12.231258722427258 11.658576504163127
Mg 9.713339553694853 12.959005159926534 9.811406701639813
