21
Energy = -17.12933931 eV
Mg 11.422495611606754 10.185169997057836 6.797101545923746
Mg 8.879851931306666 11.378173400835767 7.738550375884358
Mg 11.681429983368101 12.650009582049927 8.62721324964696
Mg 9.387437630343454 8.246403685589346 8.046600703568876
Mg 6.656752933318969 9.328321645493217 8.53910670617643
Mg 12.423678426511549 7.742742085081547 8.168882143721746
Mg 9.150840874883551 14.113986554767424 9.206051096885448
Mg 13.823182103185964 10.428811472193706 8.529692930468249
Mg 6.912362234130005 12.104950373430514 9.78592510019892
Mg 7.700248671503953 6.751561317208745 10.192762364085073
Mg 13.4876719795983 8.563605748966499 10.820210454386682
Mg 10.743273234744008 10.126450849680989 10.001849436333515
Mg 13.058153106564244 11.572999090522702 11.296491231203245
Mg 10.745218956092652 7.176433801835279 10.696367236846955
Mg 11.637102004159916 14.331171484780286 11.22988909049736
Mg 8.978263401315553 7.504399012042654 13.067363270795312
Mg 9.347009561566976 12.310754835049792 11.583306514816156
Mg 8.008880272671613 9.639983467243958 11.191313890652745
Mg 11.568116023717653 9.26267027257894 12.965014256798153
Mg 11.46208026173052 12.288318896404899 13.710240920538286
Mg 9.055251305700233 10.422382935206908 13.935367988592711
