28
Energy = -23.9948514 eV
Mg 7.312312118744188 11.725298593785471 6.632291704769887
Mg 10.103447297350769 12.897869171639309 6.58965164895739
Mg 9.588875361468643 9.930470930932193 7.5943770717539305
Mg 12.398661359563143 11.245994947665965 7.4328124331532885
Mg 6.898471773893964 10.200603847501343 9.17830167776054
Mg 11.445401394785712 14.123765212058224 9.091127223194391
Mg 8.523784233508819 12.906637077531874 9.157795697722722
Mg 14.356093188797216 9.71536436621874 8.973270766760708
Mg 11.815673482470897 8.253028355088459 8.76564297667554
Mg 9.12816255509445 8.584823287806527 10.37068738979032
Mg 13.818406284462476 12.553691256740628 9.989615703313628
Mg 10.989644569770155 11.217173081183555 10.191682458146811
Mg 12.710655140374252 14.896759104314675 11.862465790369777
Mg 13.790299154525353 7.518152909801395 10.935624856662207
Mg 8.197395844577175 11.333652665685582 11.749584994905526
Mg 9.83665065883795 13.858975111182406 11.746950570261117
Mg 14.470490505326973 10.322474154084027 11.978846093497012
Mg 15.157181248303331 13.168815041694636 12.749650856825754
Mg 11.564725331962354 9.031360478540691 12.16717007132416
Mg 12.04811992002853 12.042214291718214 12.938299816318956
Mg 8.970365828566822 9.14902095193684 13.564626218777152
Mg 13.668987664834408 14.404858806208098 14.927832480407302
Mg 10.815094482234382 14.844595652321011 14.449381866745778
Mg 14.171259207265958 11.288516998140043 15.023748839983087
Mg 13.850814306524008 8.304692408647997 14.078352446098389
Mg 9.345217449504052 12.101864365539395 14.446937326400713
Mg 11.4859654518405 9.84720213776695 15.248628201756226
Mg 11.680607739650062 12.674888348531649 16.30740637193536
