22
Energy = -17.64232917 eV
Mg 9.936382403481051 8.65895754829396 6.458521411381059
Mg 12.262841399430151 10.782835132470442 6.782868747994732
Mg 12.617802448762742 8.022448197081955 7.875099421831352
Mg 7.8209134408754855 11.666083015935587 9.416647884156449
Mg 9.8850937997229 12.522557360740349 7.443589783124304
Mg 7.689148139066974 8.61029093264692 9.001923586419126
Mg 10.105582614184085 6.762727115716061 8.983512822465316
Mg 12.475976550174734 13.318404735866064 8.667625288375838
Mg 10.359784219689733 9.996405380639091 9.068742957734765
Mg 13.292707776328433 10.564692323205753 9.675176137960923
Mg 9.952363150450278 13.671423775249467 10.265634477096064
Mg 10.571398979068295 10.94375872549501 11.645529023782977
Mg 12.797512833994865 12.87960303351329 11.683431374935141
Mg 12.139567206711789 7.965609798192068 10.924761986921384
Mg 6.8078887208555905 9.959194513381346 11.627292145918949
Mg 13.707249208306083 9.983303153489897 12.580420384334714
Mg 7.6475441686467205 12.781423485201381 12.16862726022132
Mg 9.192964722782852 8.162098177077702 11.607206146618717
Mg 11.291645724671604 8.607631680328897 13.740491517044548
Mg 10.185568236625121 13.595191598493653 13.383692188142923
Mg 8.821712958880205 10.520798480792179 13.935025505075538
Mg 11.871614398395446 11.457824937294658 14.49744304956974
