28
Energy = -24.2522533 eV
Mg 13.701528698516924 11.005260941712265 6.982126803905791
Mg 11.388897790806157 14.288911383329951 9.076441520142463
Mg 13.653398017336196 15.958983273975642 9.826825473627334
Mg 10.665811651483681 11.402182268479168 9.017802208532855
Mg 14.548042258004838 13.027538055479994 9.087440058595297
Mg 12.02699618745961 8.715965847012221 7.981089485835073
Mg 13.408897308559284 10.391470478449623 10.100731829118143
Mg 9.397043552494313 13.41994612938472 11.204741683114232
Mg 14.035733173557233 16.55413877614258 12.714382614894133
Mg 11.207845003411306 15.770697376422257 11.91667972393807
Mg 8.012955121955118 10.921673556668988 10.51264909109794
Mg 9.291929680719266 8.655307824793958 9.15977449357293
Mg 15.850590621435536 14.535378270915427 11.390818786374004
Mg 12.783470070863347 13.156484480094603 11.70632606556394
Mg 15.366532974807754 11.565648144573549 12.016161980421323
Mg 10.976492540352835 10.798605025369023 12.107962488390012
Mg 11.688810663366741 7.971750659996188 10.988375665055818
Mg 14.174863950634268 8.86235322652314 12.589598588576088
Mg 14.614081213115337 13.881180699583156 14.201306894108889
Mg 10.564302320590034 13.438467065583607 14.001862756387654
Mg 8.826356523729144 8.552971300519674 12.251576368930937
Mg 8.265786905184678 11.46831750356932 13.504973501298974
Mg 12.167656039639361 15.833332834492943 14.91089722222472
Mg 13.187195539316019 11.197923942251668 14.226078079693037
Mg 11.418353592597144 8.5304920415916 14.106329758245092
Mg 12.626929310860778 13.281982546946006 16.392926771605467
Mg 10.64074199364521 10.964263157252777 15.85822405963907
Mg 8.587966795818698 9.029685044628977 15.222674796236479
