27
Energy = -22.73022807 eV
Mg 11.895963952338509 8.607875366761556 6.535582889526399
Mg 12.4702590065967 11.524547707854355 6.289074203050525
Mg 10.07727199141328 10.69315775120869 7.8392762317345195
Mg 14.504595317856369 12.799392778761558 8.014786976705672
Mg 11.631804911854443 13.716727172159848 8.195992087944012
Mg 13.97310621233065 9.74224515661315 8.378502585019225
Mg 8.889261237604721 12.98308400082773 9.401161657931617
Mg 11.277301644015756 8.316267056029371 9.500874275414596
Mg 11.98850503356435 11.392793258934386 10.238891234163546
Mg 15.46172542339279 11.40841064498417 10.454103695702281
Mg 9.03679989686209 10.273996121140154 10.731507569109283
Mg 13.566582317019249 14.04320612711779 10.629792906231007
Mg 10.702032490022848 14.32575517138996 11.354641019712332
Mg 15.688785746732126 13.660580708275228 12.595513167939497
Mg 10.752682271065117 8.420803361901479 12.44402712945703
Mg 13.63462046599454 8.879088130924307 11.36633479364353
Mg 10.698362992761483 11.556043405237805 12.952940417303235
Mg 12.817794790064305 14.297092626083389 13.638628472214775
Mg 8.032435227214947 13.053729474205468 12.190331812669715
Mg 13.716149531790304 11.473914595072626 12.893994646234306
Mg 9.958135189911182 14.14514586533048 14.566589237224273
Mg 13.0797882339296 8.973739389362132 14.324836568393792
Mg 10.421265038738376 9.247862032705028 15.492433859911356
Mg 8.077235385134493 10.337369492199576 13.806845399764923
Mg 6.985819938567292 13.075255827102813 14.928562429138236
Mg 12.152421155768002 11.927170970212803 15.603972150859883
Mg 9.179726320175755 11.795177530323755 16.30123430571939
