26
Energy = -21.70514599 eV
Mg 17.949790428381963 10.002956605359037 14.096030642968568
Mg 14.327668596339475 14.968238836329 15.40857932640693
Mg 14.95709180497674 9.86830368709095 14.411580066213963
Mg 16.30765253699 10.866345272368862 11.744877557734958
Mg 16.175832862439584 16.492351308013948 10.857648679199833
Mg 16.071410593604842 17.01823499105045 13.866052100583474
Mg 16.290642389412227 12.374790361813302 15.320599992739666
Mg 11.151197012215608 15.146616123813365 19.54932013449045
Mg 15.371251569806581 13.753525338404037 12.79201162447501
Mg 14.419338674028033 14.859693477686548 9.250219395378581
Mg 16.27895934244524 16.879053108240726 17.028744304735984
Mg 18.393855786682508 12.767945644564955 13.085250343737936
Mg 13.248199522657163 11.430444552282427 12.563555711297255
Mg 13.510732064937523 16.048033870703495 12.387714328319621
Mg 17.695158910015312 14.92964756736922 15.18588522015946
Mg 11.78264933661461 13.889116510830329 13.678538023978735
Mg 14.477578723214338 11.96941149776414 9.730452867886138
Mg 18.49709487781235 15.644769342280973 12.425482680513214
Mg 13.213589047128892 12.929454877989327 18.742911641466684
Mg 17.141626713684612 13.605590765920638 10.307176989919842
Mg 16.117335498864552 13.931741350312677 18.112768348154578
Mg 13.132809148092417 11.970124080775088 15.68355543476609
Mg 11.57689216594756 14.49488224141883 16.67149658011253
Mg 13.811333898922967 15.964920207422525 18.419817328392128
Mg 15.213960421245467 10.980740956957298 17.849127012058112
Mg 12.198443157140751 13.68262506794491 10.782968245394091
