28
Energy = -23.33831752 eV
Mg 12.100838080313217 15.691123524693927 17.12011414724884
Mg 14.353502698395483 14.078126836317905 12.724042652819938
Mg 13.935389763217886 11.260284623572197 11.462964736914323
Mg 15.72444584279835 11.185432979623709 14.069667035811248
Mg 12.419619845001538 13.437199290509746 9.844780566989487
Mg 19.94151327475357 17.265656118170373 21.089939176383357
Mg 15.32196902010078 13.19128797192774 9.362048113163725
Mg 11.118934230491789 12.424321987870316 12.218142883546426
Mg 17.03320839187497 16.780763247747206 13.591044342480396
Mg 16.766577997223937 15.300039528838042 11.00009887670355
Mg 16.914912382969348 12.042244188118067 11.416774603265143
Mg 16.30853416856663 13.399307829660478 18.574054848293397
Mg 12.847537054809179 11.309518923884315 14.428765316048777
Mg 11.596480993840839 12.41116254057491 16.89869537840749
Mg 13.34171733048241 13.510555480454874 18.8956618029459
Mg 17.756961372861902 16.22552694156559 19.09482965642137
Mg 14.841124686314128 16.111805232512953 18.29795280963897
Mg 17.37062234952118 13.812612433244656 13.740588825218062
Mg 11.878479597307026 17.199524727111136 14.364997240932851
Mg 11.734505845088933 14.243245002837096 14.500835564026373
Mg 11.710637632031505 15.627447751247466 11.74012315471688
Mg 14.556519682164284 11.215125312130034 17.107708447600046
Mg 14.626133477343876 13.886255742853999 15.712983855764193
Mg 17.263550082231024 15.371801545922203 16.30901347507114
Mg 14.27977009818891 17.24089123840841 12.416252560962436
Mg 14.638996483272239 16.910899002172332 15.395681953093312
Mg 14.058990280325734 15.966185586561886 9.76130654869997
Mg 17.50119789240391 12.165698077589203 16.258032917961696
