21
Energy = -16.94907287 eV
Mg 9.037115287606762 10.741809316281778 7.508014895401525
Mg 12.03596955036203 10.345376288472226 8.292109607349348
Mg 10.45322046567148 13.028395591010035 8.829535927579508
Mg 6.820655877216436 9.133340141278559 8.939675036369653
Mg 9.887414915450755 8.897735366642676 9.767797888351698
Mg 8.28282392069666 11.575256909328608 10.342043760097276
Mg 13.472370781047239 12.920779963855662 8.523607438271199
Mg 12.678171792025159 7.973714499131103 10.267537231191522
Mg 14.447446521583554 10.387433137551879 10.260607365210705
Mg 12.105749271234254 14.875066185131795 10.443331420046006
Mg 14.651769677035066 13.414283548580944 11.186993180801972
Mg 11.546167592308853 11.252658217223601 11.259566239780225
Mg 7.55635190520047 8.736373629351023 11.770621037016802
Mg 9.614009917470135 13.808999481261596 11.856325000204093
Mg 13.600989088281676 8.463996462843658 12.964428836165872
Mg 8.927141994101719 11.013025556848763 13.211304525781776
Mg 14.274143558998391 11.310501564483742 13.179087553767788
Mg 10.62381754308801 8.459972345772757 12.635443437106435
Mg 12.31664447756252 13.578754350317537 13.240755729527285
Mg 9.83885021073349 13.240764389511373 14.895579900775118
Mg 11.651164647287594 10.663752050083966 14.447622984166745
