26
Energy = -21.60859753 eV
Mg 7.928803040087866 7.577739964898429 8.804395024012463
Mg 13.692038669900255 14.190744434525806 15.628956826531837
Mg 14.854054373088726 11.993884202534725 13.818852652892831
Mg 13.993106913703237 10.859895023286198 9.458383656841885
Mg 11.626179170453048 7.329970767683849 12.313404021272357
Mg 10.391172767334545 9.417875191335126 9.825286255123045
Mg 10.326064572325768 6.176532213990894 9.859945215119613
Mg 10.664869760103858 7.535419747984729 7.216060132859352
Mg 8.620562565220492 8.176421035909335 11.855302340022442
Mg 15.037523555470353 14.948071535509127 13.191690232918816
Mg 9.510491044212644 12.33368938525282 8.560047672376227
Mg 7.794125305735348 13.193009785568226 10.898665488972998
Mg 10.60177598178274 11.710322551739567 11.423247110441112
Mg 11.81420558036152 12.257503828754956 14.138972513717754
Mg 9.318524093169804 13.924626855729667 13.501504381878144
Mg 7.472025384106219 10.351548871865827 9.946494795499648
Mg 8.717930399360606 9.873512067742775 7.017160584787041
Mg 11.931735713670665 15.24215082471137 13.168490697722085
Mg 8.038520441551771 11.01886149393081 12.978035528260971
Mg 10.503483251713517 9.54403410805464 13.836159629671908
Mg 11.787532286365819 10.384118322281147 7.3366237762850846
Mg 13.065215204874729 9.941312056583326 12.163362588824688
Mg 12.921017553292556 8.059961402677143 9.48629400922522
Mg 13.319209960468227 13.110833729140744 11.394767384257532
Mg 10.597734833509707 14.64001708316586 10.558643696997414
Mg 12.348452426939147 13.08429836394577 8.495608632290233
