26
Energy = -21.38155564 eV
Mg 12.095273524821774 9.355000483252098 12.0446120175769
Mg 7.241274996750223 13.314116192614856 9.607933690808549
Mg 14.290192196307155 13.803269438851217 10.300904094674166
Mg 10.870680324279355 11.759756493905932 14.079998014542241
Mg 9.09951874038797 9.58786167381684 12.852944842755301
Mg 10.953415632421365 12.195223193495034 10.871899615367177
Mg 12.869380691851607 7.0117497004473295 14.16170881169451
Mg 9.887518447732399 13.57921230601115 8.202831068695454
Mg 8.21134405058472 10.483671217018397 10.110415400934457
Mg 13.566861518901366 12.061044440708498 12.686728355240778
Mg 10.6893014629605 8.694511676489203 15.31947855919374
Mg 13.399066973647312 9.899731970885508 14.941304759559639
Mg 10.016150412894701 6.66551082888264 13.160791788036025
Mg 13.591189589405582 10.911801629129474 9.850007511699971
Mg 12.80070825102786 8.04218560687216 9.052511673642249
Mg 10.746234934086187 10.42597131715049 8.430525974871582
Mg 12.284469163744326 6.152572425090947 11.324857404091432
Mg 8.027739948157912 11.463672838554746 7.285651302139461
Mg 13.432481060324067 10.056877102211464 6.930858060711282
Mg 9.749697259450013 14.53849622760525 14.075450922032996
Mg 11.998990579691464 15.3383002305079 9.367593417993211
Mg 8.260532796475482 12.457031166045208 12.4202688670116
Mg 9.923561506011792 7.979971111260023 10.314394018671788
Mg 9.44539764880869 14.979074010058339 10.958379293640023
Mg 12.173732239672695 14.71194216702585 12.34310962812773
Mg 12.789747520025024 12.945906022530666 7.719302376709122
