23
Energy = -17.82508988 eV
Mg 14.265329039720282 9.45382821258161 12.026466690318973
Mg 15.45951126815324 11.567270713508341 10.28455664790186
Mg 16.155150926274377 11.264660084954206 13.470769334436824
Mg 11.313954527308947 9.799839159946593 12.704554265557107
Mg 12.499901649650099 10.704304860594016 9.977878413764289
Mg 16.063096561911184 13.896490872490899 12.058908635545645
Mg 13.554215755461744 10.245225345998836 14.811754368364827
Mg 13.849777113100481 12.237150667559144 7.731139746038584
Mg 13.93480239429341 14.250777910147434 10.001454714507643
Mg 15.77010842104868 11.398589477601636 16.536688264147475
Mg 14.9898781348273 13.789448996538143 14.835929951643987
Mg 12.981310315304492 12.55586970306589 12.601530291210372
Mg 11.190332307105223 13.30407533333543 9.018279995441588
Mg 9.582210233047286 11.065430740078218 10.503867162883317
Mg 13.700010859328634 15.694732190928276 12.745693433139346
Mg 11.58479994769445 16.010812090278165 10.538029593295043
Mg 10.699138098931762 10.577690091501122 15.613890434849232
Mg 12.863261457704258 12.573677544518 16.681287168259864
Mg 12.700509921156957 15.524966567045128 15.647194053346876
Mg 10.087217392959346 13.729448604824729 11.816085513813341
Mg 10.823144534831401 16.22731812057154 13.425000749674533
Mg 10.724853684912249 13.452294582238997 14.710871628991438
Mg 8.870357125105832 11.405505762207378 13.391433662157546
