26
Energy = -20.19641554 eV
Mg 8.484996139629745 13.27794009375384 16.980228915181783
Mg 14.02242429012404 13.034319106652223 16.47614294492746
Mg 12.421990513060628 11.290102581680646 14.59604959638041
Mg 9.62972739785766 12.510881407609727 14.486968402781214
Mg 16.968335151669113 17.875388504243695 18.24267126750988
Mg 12.43266881890592 16.985340449863973 14.866444428839802
Mg 15.511565817384167 11.244510874964137 14.741521961698234
Mg 14.182748333250975 12.607516596039225 12.66509123677433
Mg 19.253174325205432 15.860311724573483 17.115311190920398
Mg 17.136547622450408 13.00426337056604 13.119314566446965
Mg 11.2336498732152 12.475766625825868 17.05025708877897
Mg 12.18796252870613 15.330007752029703 17.299557774606157
Mg 16.460891125874323 19.87548100808274 16.16776405313709
Mg 18.05536474010713 18.832632414635707 13.939136491342435
Mg 15.148458824024003 15.404888899673937 17.653169463784817
Mg 15.144412464117396 18.17041994390119 14.07299279112891
Mg 12.037633931456735 14.150014723897351 13.99541403403665
Mg 19.406051406581145 14.244982519604484 14.595543268280167
Mg 14.212654055645787 18.01710334539753 16.93830436172813
Mg 9.853205499851342 15.330294307704438 15.52062255991838
Mg 17.616600325764825 15.988347612872513 12.937262023402166
Mg 20.166691530877955 17.026209848067314 14.52513553793169
Mg 16.983932073074772 13.589731711506127 16.09966310453185
Mg 14.820979161499412 15.121025582393413 14.220508138268467
Mg 19.23152771242662 18.842425447598337 16.650144933093827
Mg 16.95087016123931 16.56716637859005 15.671809053393213
