34
Energy = -30.92248233 eV
Mg 12.17686987043927 13.836225208543308 15.4854305745047
Mg 13.841463196824133 14.464853803118583 9.755720233041789
Mg 11.31006986940674 15.82584529873341 10.833540009092609
Mg 10.98250071166482 11.503051151638262 13.36273692062502
Mg 10.985749484616331 12.703967045739558 18.106345762616236
Mg 16.029270798216903 12.63770417468503 10.95522721975201
Mg 13.522746881903739 10.93790527909892 14.800000557433986
Mg 16.0317458917649 10.106560563880405 16.371031090230417
Mg 12.014834141343679 16.523852674145942 13.786988832694963
Mg 18.353102674125928 11.697156150535184 15.593156105499519
Mg 15.464776359103857 16.154831608575947 14.334179401773378
Mg 17.578181638269857 13.685252429546589 13.296849365983617
Mg 16.242685212659875 10.932435739688987 13.40888980981251
Mg 16.517148069081625 12.615619448495735 18.066591839481617
Mg 15.32141613803371 18.600358969692486 16.73479216195923
Mg 18.356241675958966 16.744272262295294 13.562602470352344
Mg 15.279471824097696 13.35323674578072 15.444426122724677
Mg 13.637139270408401 11.086226856018921 11.7210178378434
Mg 16.005586849487486 15.676516673874463 17.575152730167524
Mg 13.73142334512831 14.018433763607005 12.861939024652896
Mg 13.189555349827023 16.46304460485414 16.53121445171026
Mg 13.626314543031025 11.138829724863388 17.82509128183408
Mg 16.42638838174594 15.556330039672615 11.208239276803596
Mg 18.108718017556267 17.514613229498586 16.47748898236585
Mg 14.043994639495878 18.883884052626012 14.037777150080743
Mg 9.174943883698012 12.810737730867727 15.628436428127934
Mg 10.053126304161779 14.342589002122875 13.113023965900979
Mg 17.081272433647165 19.50693284157058 14.52215655299011
Mg 16.431203068994478 18.494637420608168 11.918731142024342
Mg 13.689200342748993 14.040130577689549 18.342249618967294
Mg 18.377686488965896 14.574516498721565 16.043466932454958
Mg 10.893940405826696 10.373756020844551 16.218516776117774
Mg 13.873116381377397 17.097207510249476 11.479408430695084
Mg 11.433000807747248 12.909109542828256 10.698317494036063
