32
Energy = -28.24183621 eV
Mg 17.381590223157136 0.40520736482467445 17.507306506656015
Mg 13.89577124814684 11.884089159663644 11.026608971320949
Mg 15.609256642477147 15.599156009439096 15.559512112740551
Mg 17.570036761381626 19.67990380681236 19.34000272018583
Mg 15.035875450368584 10.07116457029151 13.055487417001103
Mg 16.282562485087887 18.347210481223563 13.981879510716642
Mg 18.67974430515222 16.673055339243252 15.109592294958578
Mg 14.031737030191358 16.540340474104806 12.845300313559672
Mg 18.74615274803865 14.458496141464527 17.348832009540846
Mg 18.27650029070663 19.53436557167252 16.0534469306557
Mg 15.146772502240454 20.701374643687764 15.890813280877534
Mg 14.625537311737382 13.343460996820648 14.048223922417892
Mg 14.80752006786286 14.617787163279118 10.81486829952076
Mg 14.88677115479012 18.162687764546128 19.94405066441997
Mg 17.15762772758035 10.974549764063958 14.816010285481
Mg 16.969647507493054 15.69748753646132 12.599942921202743
Mg 16.06105506287719 15.403791468917388 18.663411379301767
Mg 16.3693502059096 12.740685386804108 16.99180712726123
Mg 13.609258878529308 13.676844548765294 17.3247266126208
Mg 15.002360910981862 21.171857031806297 19.06438086967755
Mg 12.930722364234708 19.590945494792102 17.829766693169805
Mg 13.196609952888863 16.541516526045694 17.89164267182084
Mg 16.806076432438534 12.596092817753561 12.079866537514148
Mg 14.091254148048193 10.992158895783573 15.879912309185494
Mg 12.07483333230706 13.950382437832735 12.45419575949821
Mg 18.695363762857866 17.186531508801032 18.106639776860774
Mg 15.885797631532647 18.127168818609785 17.166369942109643
Mg 18.150553029792544 13.696253236931135 14.509418501762521
Mg 11.519077482152717 12.689289842700486 15.332555352318314
Mg 12.184097308192555 10.883633542966349 13.217980751414641
Mg 13.4199239916635 18.288997040941624 15.17141778120564
Mg 12.340804337994145 15.529357940004623 15.157982891438401
