37
Energy = -34.06209407 eV
Mg 11.13931103728042 15.967627204458646 13.312380312804352
Mg 13.495044963537369 14.571838938830163 14.902142114594438
Mg 11.153549069922594 13.027366707416649 15.858835046473642
Mg 14.013555058937486 14.889172508670546 11.907907150648727
Mg 14.222639794924332 11.930962097215733 16.413868263998467
Mg 15.549851405349765 12.784784505303943 13.599649960382505
Mg 11.83534786568091 16.133672652912328 10.234038629346198
Mg 11.564308649520605 10.081881137481062 16.51719695597067
Mg 8.68252475702067 13.682227938049737 13.81681433669867
Mg 9.797932197972763 10.819770195483407 14.236750772789891
Mg 9.18995846692187 14.994100762144226 11.060227522912463
Mg 11.570729532731294 13.102770879715456 12.804792126000073
Mg 16.37759327234365 10.079618171633003 14.879693027184242
Mg 13.91792774897479 11.644543618196257 11.169903567357505
Mg 14.103677361034968 14.510323630645841 8.845405495865675
Mg 13.09758400190374 10.908346621251058 13.947615505979012
Mg 14.066068761679375 8.6387301825233 15.854463337758553
Mg 16.56718700231443 10.425892951806793 11.923771387964173
Mg 6.470158708201262 13.443722840654344 11.51118446528199
Mg 16.26978388796996 13.265018117044258 10.518521090047852
Mg 7.01433867618871 11.07097687656448 13.203220749448036
Mg 9.209139576229585 11.995873195948004 11.224846678899704
Mg 11.47613335367604 8.224122074151781 13.971663729187926
Mg 12.282242351598363 12.727608403124863 7.019833920685538
Mg 14.669825798105633 8.884264314762856 9.751132988031255
Mg 11.433842492947148 10.164841426831554 11.536565094928797
Mg 9.906200057932464 14.60121825827188 8.021900923058608
Mg 8.757009144161213 8.78165714407434 12.21534263558217
Mg 7.202607074984717 13.548022264493849 8.699687479237978
Mg 14.804075139175742 11.620081985495421 8.252488440008875
Mg 11.669617943169538 12.980704441920102 9.880017272847313
Mg 14.261736826448026 8.444186563926282 12.682604929272182
Mg 7.031977389020322 10.580023421800105 9.968990645661217
Mg 9.502420318918265 11.564556746725037 8.139043951901003
Mg 12.042304760616995 7.426113139324493 10.705701976119554
Mg 12.179204661946374 10.001919943200665 8.484427516154
Mg 9.524201066874085 8.804477918203533 9.358342948439562
