36
Energy = -32.98060913 eV
Mg 13.848232689546146 11.363963689928465 17.23224799522304
Mg 16.391550838087237 12.61460422946991 15.99880453570837
Mg 14.703186962654836 9.950716663666464 14.687328827012646
Mg 9.406084036381657 9.3312892977663 13.170074103884396
Mg 11.646113034283584 10.209105267362835 15.559952880075485
Mg 12.970931595572878 8.294877942083783 12.862477229547396
Mg 14.075670257348483 14.305222904966728 17.434905491882244
Mg 11.375091688600799 13.134960647865615 16.521246719255803
Mg 10.866391177011836 8.6317979302159 10.705345132658836
Mg 8.09345271683852 9.866500735340274 10.122632338342479
Mg 13.70936550740219 12.90012891821112 14.478695900362546
Mg 9.233368741408915 11.949622729386068 14.694976165190782
Mg 17.413779833164895 10.911206824625795 13.727339577850389
Mg 15.821693983911507 8.925160447678794 11.88227751185859
Mg 15.505812656759714 15.516975234203217 15.145196322253307
Mg 11.92068649187344 11.01146820128013 12.711909505363657
Mg 14.896122038318406 11.694502486371452 12.018492953981244
Mg 12.531065631974895 15.709385376722839 15.29429036774442
Mg 16.66816518944915 13.841640457176334 13.038247385520096
Mg 7.105980202234335 11.21386384991796 12.746591996382843
Mg 7.998832131614649 14.201944360371002 12.508192942993995
Mg 11.056041250152427 13.972282456163535 13.379007056168609
Mg 16.217481034648955 10.872742459029363 9.284513180079587
Mg 13.587510656936303 9.648016040557659 9.902940382113094
Mg 11.072569178331227 10.852414514812832 8.718441453526848
Mg 15.76684878606466 13.858551580380194 10.047476739515785
Mg 12.574725484275032 12.925633592675707 10.695167002499593
Mg 13.868540566278176 15.175443884213147 12.310502427066341
Mg 9.670967729118408 12.255952299073428 11.066979514731207
Mg 8.260766737539203 12.023058909923066 7.999207621064348
Mg 13.914608890040025 12.336699919276976 8.045527394938416
Mg 6.3634449264747275 12.442786896018267 10.160881283500766
Mg 10.739388737312924 15.45399254923067 10.853404921652352
Mg 13.35808706017105 15.287655411530858 9.082678018943367
Mg 10.83415350510518 13.823656206659978 8.246106104700708
Mg 8.145445293744963 14.711161100288207 9.471398903906504
