38
Energy = -35.84007226 eV
Mg 15.945632750820737 10.72828321817107 13.503056336608058
Mg 13.778905298698817 14.899738080782985 15.30717448807857
Mg 13.484043632915922 11.87742972117446 14.828567947101462
Mg 13.636263413148725 8.95315395271506 14.08225207114749
Mg 11.701923043373448 13.304975927268968 16.762745600142576
Mg 14.729663981443775 13.53206091445381 12.422613753085342
Mg 15.303066629856252 8.61382176974352 11.341675188991166
Mg 16.745341533268014 11.374259491998364 10.821118339069146
Mg 10.897765277887371 15.704551226945313 14.881058294144287
Mg 11.053549704836815 10.346069849623147 16.193659700136696
Mg 10.785002953859399 7.7505564151486155 14.518665558684773
Mg 13.367244234701294 10.944361027062566 11.269465312613208
Mg 12.183693777442036 7.656881670566327 11.821956470865574
Mg 11.697243285730003 13.526802916772512 12.944732172598714
Mg 9.44350044138763 12.578468889589665 14.997781186966757
Mg 14.661816403993074 12.938120906904276 9.348574869689928
Mg 15.417911805277225 10.089947679514854 8.573278230415122
Mg 8.498131413177793 9.636955140761025 14.295361340718319
Mg 13.211933228774374 16.54645439663083 13.01909267032748
Mg 11.19366953340151 10.53896046804466 13.182207948317325
Mg 9.14333813920129 7.355980541204622 12.011778650231678
Mg 13.056798101775726 8.336453023930476 9.087870343952359
Mg 13.09939948731122 15.319617974170102 10.255191356111185
Mg 10.482720131687106 6.749334501086886 9.279524864552222
Mg 8.565118825846538 14.71935206887086 13.080329733030945
Mg 11.205160504651438 12.866076370231674 10.176229299738276
Mg 10.572347361384226 16.138499053406623 11.504790480699068
Mg 10.484212352920071 9.837954959130785 10.40521324860437
Mg 8.83107520160153 11.958774987892587 12.03046258354132
Mg 7.136935195677033 9.517467055097223 11.569055553213795
Mg 12.438620235560899 11.082559038440106 8.074542546946061
Mg 12.599501693902184 14.02296295735489 7.460215548067136
Mg 8.39818604717074 14.129056794965413 9.983789894978068
Mg 7.887952881532696 7.955119656105235 9.152482984985921
Mg 9.949040410682922 9.33510237681016 7.4688959355537206
Mg 10.45414589148093 15.668716358830249 8.52246305503382
Mg 7.987182889240198 11.126371945225396 9.101275684694931
Mg 9.849769321368742 12.712595595406546 7.3997429936987
