39
Energy = -37.20089937 eV
Mg 8.061970009071388 11.652829945928923 6.310387541071796
Mg 11.086178295275156 11.553963494269528 6.71961631518948
Mg 9.258189449970066 9.11001881098678 7.167656278775206
Mg 9.065198306442298 13.790371894698207 7.971641164698247
Mg 12.200551547934813 14.11289153264502 8.244603177460563
Mg 13.872403544980838 11.505955509807261 8.298195328380734
Mg 7.584524173699643 10.640281390076229 9.146911821384917
Mg 11.962270412680152 9.17722745046307 8.517405324757185
Mg 15.172178371669363 14.227685985484307 8.573838558396568
Mg 10.487760130885135 11.689063264565362 9.786439273788861
Mg 9.374821810357792 8.343378268311518 10.090334734035924
Mg 10.391098440646273 14.868166384078275 10.50287430391703
Mg 13.24449304373097 15.811863849931205 10.602423951706681
Mg 7.898889956134671 12.970645233608911 10.911491131537687
Mg 14.24715475862455 9.316968659770545 10.478200808823644
Mg 12.010140036117996 6.908924173375014 10.515194743593822
Mg 13.093136533518035 12.718987592705387 11.047883289383693
Mg 15.982189329028303 11.783887278421785 10.626325788407017
Mg 16.020555522413524 14.729537268808679 11.285944352946787
Mg 10.17610462267957 7.298815369043986 12.774569941332185
Mg 16.107828446816903 12.663277287662122 13.590990366316937
Mg 8.77631042759648 10.285016797637057 12.528377216030954
Mg 10.55633208414471 12.804746866166118 12.769762681593393
Mg 8.130133585149908 15.429601353915439 12.598115457704626
Mg 13.800439989789483 14.675154038956698 13.364084551797795
Mg 13.219742821384301 7.575054524885428 13.172725237810655
Mg 11.079827959880555 15.893297245955319 13.231987182974173
Mg 11.69419271645318 9.966954766680239 11.831816092989557
Mg 13.166372457106625 11.569163096628733 13.89198249649987
Mg 15.47576392500583 9.73943751868066 13.190106412674268
Mg 11.819819481948796 13.885138516377472 15.510901406444846
Mg 11.195497258115575 9.27490076871741 14.79506964415249
Mg 14.775016250636163 13.638317012433737 16.157929196109126
Mg 7.369093446651984 12.735278595743395 13.825716139171972
Mg 8.959930633174013 14.716053421656122 15.315089901249449
Mg 9.687724113331662 11.689863457554218 15.471722376448586
Mg 14.024366094518852 8.666064224239625 15.82648170084941
Mg 12.748874389980184 11.248706957010947 16.87393667595652
Mg 15.827399263383203 10.936983833049714 16.085741074566116
