34
Energy = -30.59005682 eV
Mg 16.504324303660812 11.142288116475218 10.972482126790267
Mg 16.717094902110055 10.261908318628594 13.848282124536848
Mg 15.627003579849115 12.345911355936721 8.343670371924597
Mg 14.726101963641536 14.022383368790255 10.780710923511622
Mg 15.518936822302093 13.05749012735059 13.38840926620782
Mg 15.204098817434954 8.489457178893229 11.897540254194766
Mg 14.44174411779298 9.657650022332048 9.188053060590798
Mg 14.067218256310579 15.117491202730866 8.095791435892034
Mg 15.360665303087554 12.039062387756621 16.133963453666112
Mg 12.170796179358373 8.458533727017356 12.427652156362958
Mg 13.534992230352064 11.251371579373028 11.726753431973693
Mg 13.924190095310784 9.697770837148958 14.552875094139658
Mg 12.667495545338344 12.429923950092952 8.336860164464635
Mg 13.349601975774647 15.302822932671203 13.336632183884529
Mg 12.674197486392199 16.460718714698615 10.510149740303046
Mg 12.649364139269462 12.59511171304864 14.331119305103835
Mg 12.866493085048328 11.30472055685995 17.316967502722104
Mg 11.726898001087758 13.558542398803318 11.096967493605366
Mg 11.125718548838794 15.32878342929769 8.18549431302171
Mg 10.986867555552063 9.999055471512797 15.2209290164916
Mg 10.428815981375935 12.875574381493045 16.429958539410013
Mg 10.50282422064403 11.169403865812033 12.381400708909142
Mg 11.449441125186448 10.188127127833193 9.688114002316743
Mg 10.048261016351935 7.6308752994572355 10.541339504759833
Mg 10.225000352709486 14.336004686506847 13.672849420689339
Mg 9.097053082434357 8.65191574701014 13.327106834365491
Mg 8.429099257968907 11.782038069322322 14.579697135321986
Mg 11.003030437607 17.223607977418744 12.911074357635789
Mg 9.546856675145282 15.748778737177826 10.744116627625703
Mg 8.264434739000537 13.10485817231537 11.564409323752672
Mg 9.65807293664306 12.839270975827072 8.828512475358385
Mg 6.8360940885682835 10.551768231611506 12.451245025598208
Mg 8.467334968885725 10.37739295856536 9.91862522592716
Mg 7.190395293354154 7.905281093858616 11.050583135147583
