39
Energy = -37.02501445 eV
Mg 15.024272185076484 9.173494364116594 17.68242960705202
Mg 16.494989901725283 11.594335193879235 16.715477020446922
Mg 16.648967332849946 14.0788966771558 14.400871306009536
Mg 15.165912130695158 14.313886528642145 16.970997517505104
Mg 13.42905235225514 11.801727581194362 17.41400546914325
Mg 14.64741865490621 16.376827179700392 14.882466093610713
Mg 12.426480810371615 14.037853435905737 15.628792325824312
Mg 17.50082828564486 11.119736950053419 13.963837746054475
Mg 15.662626636773677 8.811672484070305 14.854431188952514
Mg 12.548082040755638 9.34986318340795 15.913509548784285
Mg 16.394409844985578 12.77030251771324 11.706657411995883
Mg 15.975583043186901 10.997484985591933 9.167316308583716
Mg 14.428293891848657 11.685311617638641 14.317020440069921
Mg 11.654711178245645 16.304363849562982 13.679259937574315
Mg 10.499858883382478 11.608134697227678 16.37360483826265
Mg 15.894858155493756 15.952358215822034 11.84173396797562
Mg 13.851407747798754 18.112814118585966 12.621759743146283
Mg 15.796412577238499 9.718673862901701 11.86078805960653
Mg 13.754716686945814 14.199487244987791 12.856253579673306
Mg 10.978380668166503 18.263759960336863 11.434262856956057
Mg 11.046533848358445 13.926953472727911 11.621684793881409
Mg 13.079543991825455 9.020358124221518 12.98405551711858
Mg 8.902314980387729 16.190959890777282 12.03245764807551
Mg 8.028960408060296 11.460617851710522 14.659190911920728
Mg 12.992551032239637 16.184791111515626 10.503265349054836
Mg 10.036136748857114 9.225945678783113 14.153166352026743
Mg 13.440178570426104 11.722384217747182 11.260413661121369
Mg 9.644059140319152 14.068555280771404 14.501363120327133
Mg 14.764474011423289 13.953795207653044 9.516886523092882
Mg 11.547246799522812 11.757870400628404 13.559530312954546
Mg 13.49561049665877 11.60634829573842 7.874350963599918
Mg 10.066921466278359 16.51394036054452 9.229098084333401
Mg 13.522114735601201 9.124688720938757 9.644627221393092
Mg 11.779184248818714 14.134708462906406 8.58687224023932
Mg 10.829702359617503 8.89925815861038 11.145409309077124
Mg 7.445423407303458 13.615078267696601 12.519029600326167
Mg 10.977834865350248 11.3909535111802 9.553153571223298
Mg 8.75119112420521 13.832949867820732 9.726226208286482
Mg 9.059816186368858 11.251335473448657 11.82753658047898
