33
Energy = -29.67787982 eV
Mg 17.912718767298106 11.555408030992693 12.526165191057176
Mg 13.704794523484862 9.558434344631223 11.935073393917971
Mg 15.52823194637944 10.782196899556933 13.96739648929419
Mg 15.277765099338602 11.992720874272063 11.123273139702388
Mg 12.729311698232241 11.861283944439938 9.82946402925929
Mg 17.721974875395187 13.698429529717076 10.517076291947566
Mg 16.93332769293751 16.290497445118955 11.85403258994912
Mg 19.11878745182501 14.080948218242098 12.968059144149311
Mg 10.848780585767257 10.021143324052154 10.937147739185558
Mg 17.37280938226287 12.790881290655529 15.303009909789097
Mg 12.895216486719994 9.915784895378883 15.142335704230943
Mg 11.392814124137422 8.381951246569765 13.27367119986491
Mg 12.833292934835042 12.216182827802161 13.288392960604972
Mg 15.1055647849718 14.768943110393309 10.011775466911752
Mg 12.675022617936284 14.374714662718297 11.437617922651542
Mg 15.328955513310119 14.078852107260344 13.341646754569698
Mg 17.7188636301645 15.737849925905099 14.762412386119923
Mg 11.393463750243614 12.356367450180596 16.056236182424378
Mg 10.858725360386785 16.429750276978098 12.171486232879616
Mg 10.101381434199897 13.963950910582216 13.722658355029766
Mg 13.888456609606994 16.958563563560073 11.844290046580904
Mg 10.050629486556126 10.934635078471986 13.771368464940574
Mg 14.322596408171355 12.48069687606863 16.030616417497278
Mg 10.169620200343426 12.782723439737907 11.109575608701615
Mg 15.258561684201933 17.21137376323042 14.327490662935054
Mg 15.511625612616957 15.048367989697118 16.44294331509775
Mg 12.80285500344666 15.041177431908743 14.627550358046243
Mg 9.792222258367406 14.677215655063941 16.639833943144513
Mg 12.258895854952957 18.08973825418278 14.244904932427243
Mg 9.53477333256112 16.82657608833974 14.678271039356451
Mg 12.678405949480778 14.57750896173472 17.695903644464792
Mg 13.742481746903582 17.263274702809873 16.795515563490373
Mg 10.945666610169154 17.20698262637082 17.13070595680207
