35
Energy = -32.04708295 eV
Mg 14.135563179196359 17.945788809582986 20.380312603491664
Mg 13.94805612197786 10.850304605597 16.937466304014045
Mg 16.050308503803613 11.458414219543439 14.790518156546971
Mg 12.968124360808487 11.687496075463097 14.069565583508327
Mg 12.79631306053527 13.260762305523604 11.414809989108925
Mg 13.335704634901857 17.290096542103473 14.16392719331652
Mg 14.918168132037755 15.01288738987822 12.87056984197258
Mg 13.618910487395642 15.530990861930725 9.439185362603899
Mg 12.065211979091226 15.883222003859355 16.605183707970184
Mg 11.481346719715331 17.383745592235254 19.21926324998628
Mg 16.2768517814443 19.556443343754157 15.695303785338938
Mg 17.91300301220676 15.448881850367151 17.87851985538234
Mg 16.149439254227648 16.499062003034048 15.519955910861436
Mg 18.027658668814365 15.824095938093224 13.030466705399657
Mg 17.831071694045434 13.734736850950608 15.352697851727326
Mg 13.721718160888871 18.349370348142443 17.072195267872836
Mg 11.571008424886001 12.774547257915405 16.546493910735077
Mg 16.40323448672313 18.146277468502188 18.40227157756431
Mg 11.661975008892387 14.425875795478404 14.013306937998564
Mg 16.33610629081328 12.691658918333951 17.7600377023647
Mg 11.712216071843276 16.1451611727453 11.640775356666564
Mg 17.381678481846176 12.957466104195063 12.441256329128583
Mg 18.721527045966223 18.546697821086077 14.161763899576542
Mg 12.917175322277208 15.306446583803927 20.963527848092568
Mg 14.397098556788361 14.003064690702372 15.678112590072024
Mg 10.810906149706435 14.438642155989992 18.93471609714873
Mg 18.95428701924529 18.37070366470118 17.078573894037596
Mg 13.466574674765392 12.972300193267293 18.96643059850095
Mg 15.655158790045954 13.449612795822254 9.974753735219984
Mg 13.847241351986149 18.019809441354635 11.055857841985812
Mg 16.061099125459524 18.197332050937742 12.923472338033122
Mg 16.416424769828428 16.302170102416305 10.473184089015708
Mg 14.99987939922406 11.280742669779702 11.963919696493873
Mg 14.827560465507965 15.52818451277598 18.325849395101198
Mg 19.769605899859183 16.040641498000614 15.529397048594415
