34
Energy = -31.20399416 eV
Mg 9.068880149372847 13.549164582582671 15.226214821121825
Mg 13.55942388164246 12.887462959652922 16.582977748796413
Mg 16.199687638588166 11.279188855167273 13.158856035045181
Mg 11.186533432085799 11.471994493884644 15.466075292637546
Mg 12.641268764391366 14.747385681549531 11.674083452903844
Mg 13.67893064527194 13.495798867251525 9.066923182921114
Mg 14.144335344991726 10.808170748819183 7.522631352653834
Mg 16.232472582278422 11.99887231737496 16.043190488359677
Mg 13.995287211128879 10.002299625156985 15.267601354693701
Mg 7.835207146282245 13.26362069081083 10.34727788205697
Mg 15.034040319614146 14.261419662254598 14.370887608253701
Mg 11.514357405848239 8.008091724759018 10.691829917684872
Mg 11.46421723781069 12.00874334561169 7.331532788457302
Mg 7.0335918332111005 13.110228974078668 13.183001050060007
Mg 11.416679585365795 9.359081962833757 13.37718631134476
Mg 15.57509605522633 11.066051988082632 10.224401230213081
Mg 14.182545763677572 8.453374443402137 9.315698073365475
Mg 11.804765791386014 14.418534750419973 14.543376375545703
Mg 6.9158297803004976 10.583272054112973 8.462945331640686
Mg 9.035641111638695 10.02148039311902 6.547619163838586
Mg 8.901703487185015 8.328589533781981 12.05135732717878
Mg 13.26922414178786 12.060876079236069 13.138409363870203
Mg 14.20753195883634 9.071539007721272 12.293515536080127
Mg 9.674017033557513 10.778806692666443 9.759551506932214
Mg 7.090925617924018 10.584736374434607 11.551750794948543
Mg 9.571618437159508 14.966518342759835 12.39413845195419
Mg 12.511914996617644 10.993648895967343 10.390451772246024
Mg 8.61247305520283 12.881342163884074 7.39906665742967
Mg 8.765376575900905 8.048557257488355 8.922108274319472
Mg 15.541360439557353 13.784507027862256 11.429208611763746
Mg 11.591524384879435 8.98604244296988 7.800068131209386
Mg 10.316752461592355 12.098163770544021 12.375087409972165
Mg 8.497931565761169 10.498193627043362 14.213938319366205
Mg 10.680332142901868 13.875718641693394 9.628516360111886
