37
Energy = -35.03167119 eV
Mg 11.831663658671589 13.445336734024988 7.506579077454688
Mg 9.511343180105289 14.881127772467327 8.905234507503062
Mg 14.502740310924239 8.915987177953637 8.640812223298402
Mg 11.828409352312729 10.281633151564641 8.234779992668912
Mg 14.307864766341577 11.674206885215868 7.176130667687724
Mg 14.636038035016806 14.287771436039119 8.516063508018744
Mg 9.239656340188843 8.756176774214369 8.860526788296943
Mg 6.994590842279462 13.423888540063675 9.944656006470257
Mg 9.369247284563828 11.879158469539544 8.709848515807808
Mg 11.847337766022914 7.321438028945931 9.351993598814225
Mg 12.246654691167494 15.519959880276563 9.980220590702583
Mg 15.575181454831716 8.671240865682476 11.684044456418258
Mg 9.645679964628446 16.341217241407648 11.61818835672981
Mg 7.131187645397664 10.406633278301433 10.325527959148143
Mg 12.292503842363418 12.485334116953755 10.33348873885406
Mg 14.678962197056967 6.304017955635685 10.130522797144422
Mg 12.875365621209506 9.695309940212079 11.216627334362386
Mg 15.21504186681796 11.556205226838012 10.07235169722647
Mg 9.721302499995634 13.231754656798493 11.579528573371086
Mg 9.618869729232363 7.192287584796847 11.437182268541404
Mg 12.617994532382335 6.860659691268503 12.324264539584291
Mg 7.802819595675163 9.242058176387484 13.013553164596399
Mg 6.93094499802215 15.419250358468311 12.198350449364417
Mg 14.659479890508813 14.217396557802545 11.568414613935456
Mg 7.028283384037298 12.26759867088486 12.743833928575166
Mg 15.158663566143312 11.560712885620427 13.088172588426904
Mg 12.144043233645471 11.746407603369772 13.267473447611655
Mg 11.966838721916682 14.769192097459637 12.96164050843914
Mg 10.075490843278727 10.389573590147089 11.317225076042648
Mg 9.079374326047759 14.519534578451806 14.220335536281056
Mg 10.737197156016435 8.755072471023325 13.813633373409083
Mg 9.410849567572814 11.496504580600336 14.417457788607008
Mg 13.692896070666745 9.179880492368678 14.278103774831067
Mg 14.384134376377 14.128339853162586 14.61349373201169
Mg 14.216527146771394 11.651523700735025 16.133785165695798
Mg 11.62914729918458 13.40060351469562 15.80811632644229
Mg 11.628649496122993 10.357980714119705 16.240813581124513
