39
Energy = -35.93046097 eV
Mg 15.811017307350635 17.59338397421861 9.346052879610184
Mg 13.288648091174313 17.92285115113634 10.7363278989013
Mg 15.680489611437615 17.198119608681083 12.569003662923881
Mg 13.610512254199707 15.476977619281959 8.825869363332538
Mg 12.807901952350331 17.13659003577473 13.590356542680068
Mg 16.26061673473463 14.947588277079769 10.594454832602597
Mg 11.049291476512453 15.955086224059091 10.552662852491927
Mg 13.500316730007658 14.6477809449656 11.84533494855144
Mg 14.809121091108553 16.391432378506853 15.836906133302872
Mg 18.63376010596536 14.85593746811552 12.560824312521673
Mg 11.708794367610409 13.114319442340507 9.523578303621557
Mg 15.92061751256051 14.547086494567202 13.868211890884366
Mg 14.72314683543279 12.66058683419105 9.470618927917581
Mg 9.086561720686937 13.753991457594566 11.066882934907145
Mg 11.858820576614049 16.27766139074538 16.327287645005615
Mg 10.542338951699895 15.162516598558277 13.520821113543512
Mg 17.573488244073147 12.332297412736995 11.071537228080562
Mg 13.081866130235131 13.865142187251182 14.817252739649485
Mg 11.613227156817205 12.330834637206381 12.673554339974364
Mg 13.730434767238414 14.75349573583683 18.159921276134515
Mg 7.078643998669572 11.595940236683065 11.606582891535718
Mg 15.903367799674442 9.923324046364574 10.176702691959019
Mg 8.667685452858114 12.747388854945338 13.91539277571766
Mg 17.56612987060931 9.664756599579427 12.606427965553562
Mg 10.297498522671434 13.712192097299711 16.30156391186883
Mg 14.905692933989732 12.01921866093474 12.598940853117039
Mg 12.95609613533838 10.430183605637191 10.500693520256112
Mg 10.562632623160534 10.756522091861596 15.335067324780134
Mg 15.488086985520406 12.877500280003972 16.40235513078147
Mg 17.90346244557859 12.35717836129715 14.190071455887596
Mg 12.614749560523633 12.102879557731333 17.51332361561971
Mg 9.863620412067812 10.697258189708766 10.67637069449761
Mg 7.608035630254755 10.574954865502756 15.990038059634534
Mg 16.243907420059788 10.122446250911333 15.218470210847142
Mg 14.598505978418407 8.895744673720092 12.742012919852014
Mg 13.421797027325356 10.7491821906943 14.882216730921522
Mg 11.515566281881298 9.161477138713991 12.846782409639799
Mg 8.532838176282347 9.610450994452613 13.259229321507377
Mg 9.575752603403204 11.28812556581432 18.188057265598207
