37
Energy = -34.42183269 eV
Mg 11.269431041505737 9.791093420363094 16.801791323953584
Mg 11.248464697283126 7.7169448153581115 14.584968083341561
Mg 13.406127157220249 10.137100887564305 14.505372315428424
Mg 8.730989681580757 8.541340470499213 15.831125805053208
Mg 14.013001789553782 7.480063292563672 13.394072590584244
Mg 12.217787158551838 12.491470780491182 15.988361760758254
Mg 11.665356756464927 8.061113522443007 11.520921857909464
Mg 9.162000039165333 11.86094428888199 15.95034481414136
Mg 8.80924780398311 8.257361838877706 12.575037112337597
Mg 10.546339158796927 10.586326356457697 13.507153833886655
Mg 14.4867509785549 7.257717899561189 10.46823309125396
Mg 15.16396899579358 12.456726786634471 13.868147174248023
Mg 13.077377191477046 10.736639439252684 11.279944192880757
Mg 15.747834862488423 9.677453107120153 12.446142881318895
Mg 12.33563704772248 13.056819539253814 13.03992348528199
Mg 7.1831737000287355 10.251806631334297 14.090680937435243
Mg 10.228661976604643 14.47098653570072 14.548352817121577
Mg 12.732654807741632 8.982450585600962 8.700612385155813
Mg 15.79670973485456 12.25342405024633 10.892586561238266
Mg 15.723450111572348 9.610746759344181 9.387454716670877
Mg 7.317867494258976 10.542115026652313 11.021246770144813
Mg 9.65720994469473 9.155889627107268 9.56565355308533
Mg 15.080774879208128 14.90820983129073 11.989082959885408
Mg 10.201391568582517 11.911064904194971 10.859772270948882
Mg 8.18142576387611 12.792633600700485 13.058597842086522
Mg 9.68432050218492 14.865241290156796 11.514785672024098
Mg 14.059861807583804 11.873413520007116 8.322078735915648
Mg 12.593815207703503 13.69323711216153 10.203126575982012
Mg 15.625388163701153 14.520993763423379 8.844005697499835
Mg 8.05692341894228 11.469399750282344 8.160573307586896
Mg 12.31581052459373 16.095087573752622 12.341646356727578
Mg 7.316010423160952 13.45558175945336 10.177673377945757
Mg 11.123494580299047 11.462225701879026 7.939286108262224
Mg 14.099366285011714 16.787291278951272 9.805938347207691
Mg 9.739059999545576 14.076375500106503 8.46102912429648
Mg 11.188955821608545 16.473496852937448 9.465768828975914
Mg 12.919331991862887 14.888964294613379 7.512021976318156
