35
Energy = -32.3382976 eV
Mg 10.170909808136544 13.699505789660652 11.73205893291239
Mg 12.166975852369266 15.627401267521213 11.03605881829188
Mg 16.567389259274663 13.122310518513292 18.223598769064157
Mg 15.950711333122273 12.511744372882559 11.937910484303176
Mg 11.116730890273773 11.01977942853657 12.466043384259205
Mg 18.438771535348675 12.714773142810344 13.62191707178631
Mg 15.51974913522984 12.439895996561251 15.210196215894214
Mg 17.979463710014542 14.629992642493136 16.006457854094823
Mg 14.53998587107439 9.277321620284159 15.689118855880562
Mg 12.361436387640468 18.92241146748373 14.927529979403618
Mg 13.050799743947737 12.632914658413878 10.715889984875448
Mg 14.659301316684251 15.224529174815274 15.933309341178663
Mg 13.935126845303275 14.648675446981555 18.810212849098082
Mg 17.04302356621369 10.057386707690995 14.142072279185962
Mg 16.547134573037905 10.078225178183514 17.56175472883378
Mg 13.908458332280444 16.801042063933398 13.463350450725692
Mg 16.259269928173627 18.10370227910531 12.18495935474777
Mg 13.2897353758063 13.734076576607581 13.527969398384865
Mg 15.288378677847518 19.75328556392049 14.62207683842467
Mg 16.50135161495547 15.063746099324474 13.408827875078666
Mg 11.886567250786 13.799088635739448 16.673803513007467
Mg 11.008351256068433 15.870861341225798 14.148521590420273
Mg 11.994587994491186 16.710832772113616 16.983491444481484
Mg 13.896112383076234 11.705798670646622 17.811759239167664
Mg 16.561369816291947 16.159670431938082 18.22066417131818
Mg 15.073904741885311 15.25954844632058 10.851127799229374
Mg 13.853560977013215 18.038884706130737 10.273624941601872
Mg 13.653964833690004 20.208364687498136 12.2608125315122
Mg 14.061686298903373 10.497636623564908 12.894450473597583
Mg 18.641070065884275 11.667763943732822 16.33594603839339
Mg 12.26658016116085 11.201936753810305 15.268296707002577
Mg 9.97298237305595 12.989779652543161 14.53642650071655
Mg 14.542862596844817 18.208287885385538 17.120413708942554
Mg 11.387485443450872 18.323726923122575 12.112905077522313
Mg 16.88350585204054 17.391768231123084 15.318415701498285
