30
Energy = -25.61028951 eV
Mg 8.308902909993554 7.980338350721235 12.678317680098202
Mg 12.61733714725818 10.370824413561131 12.207665802065433
Mg 9.639656753891254 10.665255759744051 13.282172330651877
Mg 14.756047462689372 9.94716615683485 14.32959594784563
Mg 15.683471332710639 11.221408312315297 11.851957417071942
Mg 11.911139605717654 11.071955910639492 15.092469461210932
Mg 13.38221656617238 12.636625414421818 10.335057547656218
Mg 10.479078780534445 12.366161147011823 10.998929035079968
Mg 16.5398000180343 14.056724223620249 12.707752291588086
Mg 16.911969553956823 12.06127025133208 14.861220146435635
Mg 16.27071987548309 13.322909406211657 9.709831749441703
Mg 13.522937665475629 13.21519318175205 13.426779358559672
Mg 10.211992881063145 13.646305095893405 13.7297048056553
Mg 14.411630776237267 12.073591362576495 16.460185093002384
Mg 18.32233915413348 14.740384422732944 15.032842714886339
Mg 16.82753356413918 16.250015700180075 10.543602483327007
Mg 14.087261320853045 15.399602522503933 9.43821391470359
Mg 11.651584249582404 15.082464964012331 11.354563049822891
Mg 11.884286579877937 13.891569214137833 16.2673101299464
Mg 17.10093372129412 17.057307672378947 13.441262620643517
Mg 16.805983939859214 13.94410189543333 17.55772068437441
Mg 14.295138914756029 16.17013261010125 12.39785390196414
Mg 14.870507118463323 15.023620021902296 15.3783366614616
Mg 11.88606847745126 16.163810218971832 14.286084355191159
Mg 13.747628721839629 14.012183992563894 18.625161568360046
Mg 16.948832183111133 17.081834825481305 16.44179720356004
Mg 14.41531681367666 18.003546121100932 14.795638554978975
Mg 12.75347982669624 16.62978878783568 17.23805796665556
Mg 15.429467029527471 16.338654744087734 18.876563895171767
Mg 14.663720135204082 18.91955880877521 17.59097900104887
