30
Energy = -26.96879318 eV
Mg 18.043435062990014 15.587486308408348 14.997207140709229
Mg 17.857266304153104 13.140986454362515 13.161033602036591
Mg 10.363249543684281 14.481141970286439 17.314827557741133
Mg 10.492514194143913 11.609197919991448 16.854982626114214
Mg 13.14664130315335 16.455113029278706 13.791290374476507
Mg 12.54289017019841 17.029476895699105 10.98736948588865
Mg 12.915487617629356 11.396300179179205 10.041224245499663
Mg 15.8161471546087 11.601003962540458 11.39825170646769
Mg 10.651908204847656 10.629297172179918 14.145904778977648
Mg 11.933206182292029 14.324032028607297 9.496105355331496
Mg 10.468106778696914 16.21409631534213 15.019606880847027
Mg 15.511676154817616 16.99921443518293 15.505641203423561
Mg 16.956300278532737 14.281303125013709 10.576378708560485
Mg 13.785043942977378 13.993046529369543 11.93161778268184
Mg 18.08387165147938 12.930332086664142 16.192772372101327
Mg 15.72743661787229 11.680148907327698 17.374701008310694
Mg 13.36050423768632 11.00612100959168 12.950421670735995
Mg 9.126252930274418 13.332174580044288 14.54906448112301
Mg 15.983490845408348 14.797167146597342 17.56518393222552
Mg 12.167478854689216 13.49460621749497 14.602615021696627
Mg 10.59382137367851 15.199169573853503 12.24538368198079
Mg 15.116012832879857 13.910828867287442 14.72509632207428
Mg 14.777123795816719 16.029454643853647 9.51531323834117
Mg 13.135656435568364 13.113860328974507 17.76248049073834
Mg 16.019184630976756 10.987010931814654 14.422562235449433
Mg 14.775518087737494 13.17051954866597 8.756357398614607
Mg 15.915633543614181 16.290505665017676 12.573719130140784
Mg 13.055455242990002 15.923228659113802 16.75134045896347
Mg 10.608639475178496 12.308833829455335 11.68753412999725
Mg 13.285808487016498 10.70604149348264 15.87758895718232
