38
Energy = -35.61972484 eV
Mg 18.118988826843502 12.445242502817191 10.306994182757803
Mg 17.36795921003921 15.2662696336221 9.985368503809479
Mg 18.413780329134674 14.42541637705845 12.689578519882701
Mg 17.563563196239954 11.427853825641968 13.063872754447175
Mg 15.35228982277566 13.097661126480633 9.139867704875638
Mg 15.950958281713792 10.37677402125106 10.55327521276926
Mg 16.2366252343231 16.612376551611 12.3870288961855
Mg 15.40359858803981 13.560380443012557 12.246811505525317
Mg 14.351789544910776 15.870520860806138 9.99273200120638
Mg 13.372685029320998 10.847573276445395 8.988582758270358
Mg 15.817977142794403 8.86914771360528 13.150897439680447
Mg 15.661952139858842 10.890072274824544 15.471979107194787
Mg 13.414729806646307 11.302468891939638 12.056534751258743
Mg 12.371768564715305 13.79679426979833 8.823277760489141
Mg 16.972984993959436 13.578657297402762 15.182595405846264
Mg 13.413640810445642 8.460327944548807 11.415833747282718
Mg 13.16993836905696 17.0595462962918 12.584317764914795
Mg 13.247703252577605 9.225228824086395 14.592115680182932
Mg 11.50828460529971 16.612194573884 9.914591317126348
Mg 13.228960905449144 12.61384689907254 14.606647771492883
Mg 14.711936754794811 15.492233977205032 14.762093451195295
Mg 14.608623309838302 13.430264699002958 17.138597330801183
Mg 9.622052084451573 14.277687663524196 10.291932108912622
Mg 12.432219752560307 14.15527342879579 11.893990625075736
Mg 13.300905973133109 10.783607531336184 17.378640696221908
Mg 10.83283296876133 11.581550338543884 10.401644184998752
Mg 10.140779040319602 16.18691683303283 12.589070782148777
Mg 10.818185306574131 9.67442390318021 12.754685889175073
Mg 11.813984131280321 15.402242140009372 14.912990289889533
Mg 10.820449221258029 10.4057649562725 15.779156411584525
Mg 10.336557008943052 12.759806491498718 13.5699346545697
Mg 11.373351711879069 13.206579554371379 16.96830067831335
Mg 7.517371633672726 14.752364407083329 12.418445041203276
Mg 8.074383399002993 11.782166572684442 11.749122257037508
Mg 8.815473952814449 14.800823449459246 15.283009229415976
Mg 8.526360748533248 12.118536785299082 16.662989031117252
Mg 8.180446264582125 10.167404725308026 14.346425114768413
Mg 6.755246216203773 12.753204325527449 14.329439589381938
