31
Energy = -26.62465181 eV
Mg 13.914621321877831 15.783562809573636 9.004656180930242
Mg 11.611493064352272 9.1401221022882 14.936423200839258
Mg 10.074234462069727 10.773205078322516 11.612406806584785
Mg 12.182111533324976 12.006856472874642 13.415207127843612
Mg 12.780625089071455 14.808866643564237 12.04516382339557
Mg 8.265972378113375 12.514803513021583 13.880529743566422
Mg 7.914113390556258 8.714585600115457 11.143866994799259
Mg 10.562450770409296 7.742706500817454 12.450806781279391
Mg 7.380678819216474 11.979779553246162 10.810567630798715
Mg 8.775606929270035 9.554994891364279 14.211230127439523
Mg 15.012041901785958 12.973239742175029 8.819374301159286
Mg 11.075221671728373 15.484027803029345 9.465492009874875
Mg 13.467142403958638 10.961562104045003 7.144003458520672
Mg 10.429774882345038 11.6956890266024 15.947266004457399
Mg 14.401107111446379 10.187845211478937 14.664018520962923
Mg 14.91205762805707 12.0326678303817 11.923143183814974
Mg 8.56747636828572 10.154176915981338 8.652441421294313
Mg 12.865531308863726 9.585087410190738 11.815789342548523
Mg 6.087540435086458 10.573748011933382 13.048427094968327
Mg 13.730256784688923 7.413648893175855 13.809468461787292
Mg 12.228526767021904 13.771049793583215 7.266781213217705
Mg 6.344835382180521 7.542504453141954 13.566140643893412
Mg 14.818131808142423 10.00006457209198 9.603176733582385
Mg 9.84223688448085 13.824632843682178 11.675006113801366
Mg 9.548205574435011 12.980041794883556 8.778015326646663
Mg 11.53187539369185 9.462187258463704 9.122595118626583
Mg 10.71650962026875 14.37206672132211 14.513382843899548
Mg 12.299147751840268 12.321093391085796 10.14865268086704
Mg 15.690329300503162 14.846057286101015 11.118852176853055
Mg 10.619387607666573 11.241651405512991 6.5748502431687275
Mg 15.896608092068083 9.103326802756335 12.378117125385367
