36
Energy = -33.51268892 eV
Mg 13.34391553083275 17.83697586688746 13.699569765432841
Mg 15.706310767137827 18.247145281116538 11.686558451725086
Mg 15.495108856916833 14.301289666141292 10.830107820760773
Mg 13.193358253245705 16.048714220628423 11.217887048666725
Mg 15.406683822169944 15.651645818695261 13.521258493325627
Mg 12.678673186499761 12.58289830556927 11.138225227434182
Mg 10.873718255415339 17.357751262970517 15.215080112124395
Mg 14.70743720926624 12.605503380174255 13.389759018261563
Mg 12.175030348119776 14.475987053508987 13.545035119826796
Mg 12.792838952924184 14.44758152347996 8.775961905855869
Mg 17.306991800168095 11.945372780106792 11.003002952659934
Mg 17.857378441737215 13.847615123194412 13.276488586415972
Mg 10.69850004979423 17.36311410069259 12.156574622357327
Mg 14.9405687997569 12.039758933973328 8.892933380820098
Mg 16.221190910798597 13.894459704676054 15.806578784261934
Mg 13.559961449922254 15.85238984105692 15.971740468295264
Mg 12.701711609631463 12.111799142832755 6.848915952112134
Mg 17.234257576710807 10.970475079140503 13.864374399147728
Mg 8.970480887019951 15.618000737037038 13.68873406313478
Mg 12.34795661196741 10.25624779578439 9.128237314386137
Mg 15.545079149817308 10.990772153562148 16.300250294642275
Mg 10.26800225927415 14.506181541509577 10.971273045693074
Mg 14.82540644563893 10.259737897146051 11.309120184952507
Mg 10.321703917094323 12.660061902251059 8.503458129062821
Mg 13.168613957699781 12.88953491457331 16.18379937989803
Mg 14.475305800091741 9.29053810435129 14.075133259707961
Mg 12.068445118328821 11.26270508910767 13.806227610178814
Mg 10.525353902266694 14.532675448395121 16.112964172636516
Mg 12.104019253730103 8.993445222650111 11.790067973267858
Mg 12.716198218681441 9.865463797695082 16.599402077739924
Mg 9.427486321076895 12.72726933298106 13.465302807126655
Mg 9.924533131892776 11.052705862220595 10.970984398381924
Mg 11.771615820444564 7.890104585750869 14.530379473704908
Mg 10.175026305012636 11.588528012389201 16.24723874891063
Mg 9.36872859590131 9.630159429830268 13.614484320689897
Mg 9.733193581927628 8.677767719927829 16.424550646368974
