34
Energy = -31.73172986 eV
Mg 9.882883666927878 11.189248830529952 6.124134707241093
Mg 12.706859057966374 12.569010633107448 11.111260003864793
Mg 9.556967969871586 9.075901583571108 12.218732845516419
Mg 10.65890715651948 7.631921665065612 9.67043137163946
Mg 9.128977683985424 13.650362174735223 7.482507039694082
Mg 12.358316698723316 9.795610471501888 11.209895781237883
Mg 11.815505460036663 7.084768525270298 12.556570350619538
Mg 12.572603891196566 12.652558876602665 14.410328922820545
Mg 10.014875565810021 14.29979147750189 15.005200872784824
Mg 9.001689606998033 15.342006777910605 12.384908172901946
Mg 10.171882735858102 12.050845776067014 12.45726844378872
Mg 14.736449424892916 11.009402435326216 13.0321665345731
Mg 7.496152822653429 11.122189603361722 8.162944904448477
Mg 14.278704802992428 10.911154278890402 8.97214686489018
Mg 9.810371940854125 8.256412007460256 15.219493846122974
Mg 13.791031218756537 7.725997912415504 9.754466015758133
Mg 9.132921742116524 8.601644433918676 7.1849675643258815
Mg 12.277096572110219 9.685326186042383 14.282187244409604
Mg 10.803616330907003 14.508003404275163 9.856344042188233
Mg 7.274141945181966 10.852675790260914 11.429219570643564
Mg 9.926427134241555 11.325196745818921 15.501741181372871
Mg 8.042650830793479 13.393191031274402 10.312499992660475
Mg 12.051989966775396 12.636935572612066 7.7525902633435395
Mg 16.255573374398363 12.432731302348964 10.70908920116586
Mg 14.582919131187142 7.935698923636568 12.91234748519845
Mg 11.986030443889215 9.530533432236197 7.699128692905957
Mg 7.786872437563345 8.458043318888286 9.773576983826922
Mg 11.924693508846715 15.096880972929188 12.766237060855364
Mg 16.10326875911932 9.39958155915685 10.844909774661959
Mg 7.613893940004899 12.900424133194832 13.737042952343376
Mg 10.108407396051696 11.04119238249075 9.613947242708317
Mg 7.510634626305559 9.943357309548354 14.350763219519111
Mg 14.808983173930507 14.112170914016746 12.637175513715277
Mg 14.247009042774687 14.19853961827308 9.283085396494009
