38
Energy = -35.64763021 eV
Mg 11.356296600946466 14.150906041362695 15.633323033728685
Mg 14.439150435580062 13.307996206425061 16.236846000479318
Mg 10.96702443777338 15.948879848911982 12.988978343718722
Mg 12.15542343357322 11.74706239215298 17.493133121452605
Mg 13.482383689594924 14.501819414095774 13.677698622092446
Mg 8.255708349259542 16.844777402280542 11.970462268145717
Mg 10.651170799160088 17.594510101292276 10.364993234864764
Mg 8.577649577631638 14.504451974676034 14.187324576442485
Mg 9.736933943778002 11.702144811573344 15.68512931704782
Mg 16.150650111781257 14.724507092876797 12.5051962646408
Mg 15.695976070588552 11.895074366829954 13.779193242515767
Mg 13.600333197347434 15.958547291317243 10.999569649748725
Mg 14.640904618562823 10.337625220430162 16.54529631557207
Mg 10.773011281189527 12.727588843522323 12.62432570539842
Mg 12.755493263621036 11.444848475055142 14.213085911146555
Mg 11.924867297461516 9.037254254910769 15.881804265713326
Mg 11.020443581415353 14.480809677042798 10.220631254030229
Mg 8.498911372788163 16.03092233191066 9.01588887814263
Mg 13.665970359180749 12.730506413130401 11.314433703480157
Mg 16.053147655792145 14.716782679969347 9.502883073557443
Mg 14.401426024826042 8.766804202928904 13.996518785476045
Mg 8.039878265112426 13.861385622010491 11.192676486239531
Mg 10.039520117407505 9.666826173998402 13.595392303148415
Mg 17.066726394929866 12.377320907296244 11.02529686846708
Mg 7.861531212134968 11.664364483790878 13.277098305841093
Mg 13.395293397854775 14.295925926133485 8.411395672683046
Mg 9.083301697008357 13.048331623141433 8.399735899714589
Mg 15.072147842529843 11.745339502691076 8.768786999838742
Mg 12.205192283832217 9.921877801187257 11.522432779106834
Mg 15.294491873684887 10.004263701508133 11.334327837058563
Mg 9.24814387551713 10.954767119087217 10.62709834034296
Mg 11.862749630275994 7.270309333235426 13.1593481085824
Mg 11.907868268399483 11.706907401170344 9.015782776782611
Mg 9.5037044287692 7.944422454864845 11.232045232919317
Mg 14.388783746402478 7.072723231607622 11.47737110292358
Mg 13.649589221798367 8.980643680601595 8.975079463527564
Mg 10.600454066061461 9.021419504413588 8.71244657195949
Mg 11.909254572897288 6.653553249235128 10.059388385772008
