34
Energy = -31.3316017 eV
Mg 14.290690196874081 10.70553057003095 13.700824251910786
Mg 16.811768782216824 18.763204091541095 16.350883276931178
Mg 17.997863949871387 11.638234820695784 13.832966143668298
Mg 16.8391483490154 17.27314819924817 11.419187646579278
Mg 14.000883064002176 19.34336204467833 15.823938338363483
Mg 10.792387060339575 13.760278929350255 16.174265196999798
Mg 11.957361655626778 15.737425607576709 11.876035596870054
Mg 17.43024835204347 17.38493507574936 19.188453098938577
Mg 15.697231381844366 15.141632657965664 19.798254406918414
Mg 13.407332645798668 11.760942330232973 16.401987077934216
Mg 18.438398088345597 14.420712211946709 18.407037325917678
Mg 18.611119711073336 11.79977976606366 16.791493868210463
Mg 14.521288333192311 17.53634086567542 18.26697010098498
Mg 16.168363345760138 10.355554236292814 15.968638445539538
Mg 16.3003576535024 15.690447129535352 16.573035316528593
Mg 12.784958693393655 12.638309739241347 11.872268762289286
Mg 10.080412176071693 13.547774298777746 13.071524777096023
Mg 14.046022032162767 17.976363281456667 11.107064036094503
Mg 19.17432127573397 16.93742249863144 16.865378219339167
Mg 15.79340751168122 19.361532455314084 13.357391746068831
Mg 14.974129904817994 16.47641190474132 14.04223414810174
Mg 12.378082854885887 18.223435121265204 13.555180021049969
Mg 13.567291370027398 14.521041187192111 17.59413611731678
Mg 11.347760063993201 11.233006980439365 14.317003169686402
Mg 12.401681842782248 16.777771934707744 16.19309531912006
Mg 13.044285850771828 14.294512397261595 14.344668775076359
Mg 14.834201571277093 14.957115479367868 11.287610358831563
Mg 15.944519017913274 12.677104590362081 17.939102231622336
Mg 15.848971856910866 12.162848970642559 11.651428352568553
Mg 18.072921039501956 17.139640465321992 14.07439147636495
Mg 18.80122287462874 14.333089495117243 15.256676595076748
Mg 17.60919960355669 14.560350419096268 12.490003138755284
Mg 10.150187769824358 16.178688159420037 14.327471429818573
Mg 15.73846246347103 13.369646622563218 14.821097506747975
