30
Energy = -26.60169077 eV
Mg 9.300720101313928 13.030629252483429 7.290121502627517
Mg 13.157117521731507 8.998689536115164 7.218358981824692
Mg 14.524769815402989 8.294848161644037 9.908616597760108
Mg 12.105274095037144 12.064074071110106 6.520623291305167
Mg 14.681797038376933 13.042433049533955 8.158563319798846
Mg 7.499554572818675 10.648950489363987 8.478439475034488
Mg 10.279541086832252 9.763853787548276 7.842910665489008
Mg 6.929453732343967 13.398011436955619 9.37123010786097
Mg 11.552474864167893 7.574114621612772 9.672451596371815
Mg 15.907557246384812 10.917794942894929 9.942015529196606
Mg 9.015278775517096 8.904798265265416 10.561855364869894
Mg 9.333261902404233 15.05566995522664 9.815114445624111
Mg 12.029077318281542 14.016636270837955 9.080003510523769
Mg 12.789369187481627 11.006708729730823 9.277687360331361
Mg 9.924273740616862 11.905809749766963 10.01602531139938
Mg 6.9121572017515245 11.076139201270621 11.41602748774133
Mg 13.93244328851906 12.781451411666437 11.41030204299667
Mg 8.165398979535402 13.786529373275238 12.288146784720066
Mg 11.982257653492871 9.775276130260044 11.669169318579893
Mg 11.247164096612439 13.842583343675699 12.082205378198044
Mg 9.721712251039095 11.102225888002707 12.747023956833969
Mg 13.25421603593793 7.020221575357241 12.299490984756531
Mg 7.726089739680956 8.909647179783951 13.4939397244573
Mg 14.798865729292425 9.96295900641321 12.640045824692434
Mg 10.384336767180558 7.6510735647820125 13.065632556961098
Mg 7.365171959821306 11.722409902505863 14.594426489495934
Mg 12.540406199555184 11.738495673507279 13.990762174626784
Mg 9.97989330593051 13.216774349430022 14.84422625258026
Mg 10.105437361011766 9.976929294966293 15.45894820094784
Mg 12.781032081673315 8.740365434759118 14.771739412140853
