38
Energy = -35.6179068 eV
Mg 7.466373082691991 10.622121676160244 7.991054684287708
Mg 12.694340698877133 9.771588462965948 7.64808706311313
Mg 10.16859305493225 11.82602492143798 7.23454208057258
Mg 9.721802863848449 8.817314361831555 7.7872688349474695
Mg 12.935824636498056 12.904864005416519 7.8939477729917344
Mg 15.14348903841398 11.124829104652683 8.809799647816904
Mg 11.674356763068502 7.6468820722405 9.742826812008843
Mg 15.028384563020369 14.106943424328168 9.798879248798865
Mg 8.750960222966786 12.761208326400249 9.863135324629647
Mg 10.675631679518453 14.751712511181966 8.66213333010377
Mg 6.007548315055065 11.557301957733895 10.405028804881008
Mg 14.683606126716464 8.172535527220166 9.3938203573815
Mg 13.273345804980645 16.083759897350472 8.265608391250383
Mg 13.574321871102871 10.362608361664781 11.225481937645258
Mg 16.30100837442644 11.86703499156818 11.47721646444625
Mg 8.417211799996652 9.541902136300163 10.831516290632898
Mg 11.0199868563379 10.751201589811146 9.926061628604325
Mg 12.979615456036205 16.266049457067314 11.175636610792113
Mg 9.968133595845492 15.031848196300873 11.65072116869519
Mg 12.32945468720935 13.211602502357522 10.978275526945422
Mg 16.057451800645826 8.92924275660307 12.256378456217757
Mg 7.295248431732581 13.439482036437782 12.547655269992175
Mg 13.66621285936999 7.029969644348349 11.96276561889408
Mg 9.934985427702538 11.874375381442487 12.657219818526395
Mg 6.329987001045024 10.728680501360476 13.15882111247275
Mg 11.235768739918086 8.943221986984975 12.515693773473688
Mg 14.867426007719159 14.18320637817872 12.81732606171054
Mg 12.739685415368822 11.859220265630162 13.650717123045935
Mg 12.103517275127038 14.927446390241899 13.83551982602827
Mg 9.224849647116148 14.532398066204655 14.577403069616492
Mg 15.705928526744197 11.34083720678606 14.352899473459967
Mg 13.73480182296351 8.932215145996896 14.349123187187859
Mg 8.592662291812452 9.099717270945666 13.90425652724168
Mg 8.336528398895561 11.817398216174835 15.328438679516083
Mg 10.960257929120813 10.068129615354621 15.428999204638403
Mg 14.202534850608838 13.729088575846774 15.745442824523554
Mg 11.2000078112212 12.97109187930028 16.156376598599795
Mg 13.587178295782932 11.003967222609743 16.582943418746343
