35
Energy = -33.28001867 eV
Mg 13.760859287785314 8.906675647672904 16.00905425915568
Mg 15.6657486965857 9.09296367277765 13.847247353775137
Mg 10.87841724603027 9.322885861300712 15.123756287588158
Mg 12.6019875678205 11.586814107428125 16.326609336024347
Mg 14.996555573637538 11.906951132693674 14.616601263787773
Mg 12.937611707583242 7.665780093242152 13.324386255627962
Mg 7.729459608809276 13.322091880183233 14.567389376011665
Mg 10.482582895250752 15.538457651534113 13.977124687968148
Mg 15.197232852475512 8.148724258930594 11.135404538025135
Mg 13.121848142116558 14.279095839184981 14.934630425769116
Mg 10.08189959873053 8.516663601078276 12.324725046660319
Mg 12.576269804863074 10.660636148427756 12.930506982889488
Mg 15.178284707427345 11.248354623065893 11.662184460468556
Mg 8.175612887656554 10.292343712470618 14.041143781774839
Mg 10.584327436698175 12.466364883551805 14.356922624197201
Mg 12.226869647619482 13.618337482108133 11.962394139007055
Mg 15.130718258061547 14.248980181546619 12.625688857579183
Mg 7.35973282401734 9.409860412365878 11.202808422371172
Mg 9.760697568470999 9.44956215018289 9.267582219259394
Mg 13.156900241086051 16.78690578169483 13.2651315517703
Mg 6.474863844199402 12.03627509889894 12.1747503211326
Mg 9.869375197343585 11.48593728046648 11.667085703322925
Mg 8.623203710100281 14.311937600078423 11.944461129972513
Mg 12.392172505590404 8.568851280926411 10.398622867452294
Mg 12.306120709157517 11.547653419769471 9.922181768516225
Mg 14.807456617652388 10.102572770598396 8.848118720416872
Mg 11.076056525762915 16.258255804343666 11.002780945196019
Mg 14.8920008577068 13.328841757529604 9.62266646439222
Mg 14.084024833147753 16.20048033284839 10.53494537450494
Mg 10.409798229962997 11.783268922038994 7.410082272055309
Mg 7.780674534929673 11.829342256519498 9.411159644946661
Mg 12.231916145745316 9.373801831830532 7.328848533724654
Mg 13.509796948413513 12.116816404034312 6.98798071484697
Mg 10.070680860461165 13.733657418147859 9.571620687851025
Mg 12.542905949361456 14.627310212784112 8.482083817521618
