39
Energy = -36.97382214 eV
Mg 13.164606778407201 8.072727855954277 10.214310084450432
Mg 10.89915587049579 13.06725186680504 8.259304269441424
Mg 5.8933485580097535 12.07215087832503 10.209822296118432
Mg 13.335193011791796 16.14200047820922 11.637831774555087
Mg 14.017122487495351 10.655674470833949 14.139795933348509
Mg 8.142085630149484 8.293217172315494 9.774168280410365
Mg 5.488567439425995 9.244286183236914 11.175970258486231
Mg 8.63680355463542 16.042810759171623 11.96964818933762
Mg 10.680950472360317 7.47353032396701 8.254257161429893
Mg 10.870945950821243 15.660995008208594 10.03063863023712
Mg 8.677648665149173 13.245805682982539 13.39115414860673
Mg 13.22279160866284 8.509965561349322 7.068162711708479
Mg 11.053214042255886 12.883893086018688 11.417746878340779
Mg 7.9379679132522405 8.391756463785724 12.815210082988177
Mg 8.310803254917966 11.44273938499734 8.141668072958288
Mg 11.372236451349409 12.386407117518367 14.733738480662598
Mg 15.717281861098405 9.231335441748625 11.886743776909254
Mg 13.51569678850756 13.88030297245585 9.680448349006118
Mg 16.4658948213111 11.970735932122595 12.856849606854855
Mg 11.096416259272896 10.069626836444256 12.681449721303327
Mg 8.605656768519877 11.030853287363522 11.254701052566453
Mg 13.503730909170745 11.097113120313116 11.063027954093037
Mg 11.09472726356703 15.179688660772792 13.437189690062718
Mg 10.51988153053846 7.300410178954076 11.403706015439912
Mg 8.356454228503187 13.917760716621256 9.963332814783326
Mg 6.347280311440893 11.188164494486568 13.270037901459682
Mg 13.697808372620365 13.505113924871626 13.173497485172822
Mg 10.952033383090052 10.172722605567513 9.606999795617638
Mg 13.076585928167034 7.861043626920055 13.2935274810869
Mg 16.001285456068523 14.534398956114783 11.388585637319533
Mg 10.884734307804301 10.312760959459558 6.549907523063751
Mg 13.499642514135326 11.36324606503041 7.9179535705771675
Mg 8.965576920123455 10.472822607720573 14.871678611941293
Mg 8.34472023049727 8.761384250518844 6.76507996940712
Mg 5.811547322563687 9.70471383095731 8.260157401077912
Mg 15.564386015552532 9.316652744348536 8.800723123909469
Mg 16.213238092955127 11.9689076287147 9.840455227783377
Mg 11.80695019144236 9.53429412298651 15.780690570359196
Mg 10.229551212585816 7.472996549450928 14.482950651264154
