38
Energy = -35.20324588 eV
Mg 10.33868385 12.530104494654646 10.33868385
Mg 12.633237083687677 12.633237083687677 12.633237083687677
Mg 10.33868385 14.713583016463327 12.52273968938999
Mg 10.33868385 10.33868385 12.530104494654646
Mg 10.33868385 8.147263205345356 10.33868385
Mg 10.33868385 10.33868385 8.147263205345356
Mg 12.530104494654646 10.33868385 10.33868385
Mg 8.147263205345356 10.33868385 10.33868385
Mg 12.633237083687677 8.044130616312327 12.633237083687677
Mg 12.633237083687677 8.044130616312327 8.044130616312327
Mg 12.633237083687677 12.633237083687677 8.044130616312327
Mg 8.044130616312327 12.633237083687677 8.044130616312327
Mg 8.044130616312327 12.633237083687677 12.633237083687677
Mg 8.044130616312327 8.044130616312327 12.633237083687677
Mg 8.044130616312327 8.044130616312327 8.044130616312327
Mg 10.33868385 8.154628010610011 14.713583016463327
Mg 10.33868385 5.963784683536679 8.154628010610011
Mg 10.33868385 12.52273968938999 5.963784683536679
Mg 12.52273968938999 10.33868385 14.713583016463327
Mg 14.713583016463327 10.33868385 8.154628010610011
Mg 8.154628010610011 10.33868385 5.963784683536679
Mg 5.963784683536679 10.33868385 12.52273968938999
Mg 12.52273968938999 5.963784683536679 10.33868385
Mg 14.713583016463327 12.52273968938999 10.33868385
Mg 8.154628010610011 14.713583016463327 10.33868385
Mg 5.963784683536679 8.154628010610011 10.33868385
Mg 12.52273968938999 10.33868385 5.963784683536679
Mg 14.713583016463327 10.33868385 12.52273968938999
Mg 8.154628010610011 10.33868385 14.713583016463327
Mg 5.963784683536679 10.33868385 8.154628010610011
Mg 12.52273968938999 14.713583016463327 10.33868385
Mg 14.713583016463327 8.154628010610011 10.33868385
Mg 8.154628010610011 5.963784683536679 10.33868385
Mg 5.963784683536679 12.52273968938999 10.33868385
Mg 10.33868385 12.52273968938999 14.713583016463327
Mg 10.33868385 14.713583016463327 8.154628010610011
Mg 10.33868385 8.154628010610011 5.963784683536679
Mg 10.33868385 5.963784683536679 12.52273968938999
