37
Energy = -34.95195576 eV
Mg 13.289449776693916 11.134079741166085 8.37870514953914
Mg 10.235581342856028 10.819052063861172 7.646643640760403
Mg 11.761209126603367 13.302221486527682 6.905482647159218
Mg 12.043326923945438 8.445117852998056 8.76619198381453
Mg 8.929512654056769 13.625788746947652 7.344701738887596
Mg 14.833647746942782 9.061362647872919 10.168659649865935
Mg 13.680351562358702 14.081146320516764 9.001428741632568
Mg 15.660752535127548 12.018116893386477 10.247876966357751
Mg 10.978885286918072 15.61962208165813 8.80769373256692
Mg 8.163675729472864 15.093896061701892 9.790540060435127
Mg 13.610923474601869 6.378718611716949 10.576803278585762
Mg 10.908689644509682 7.051305241584047 11.200678363872068
Mg 7.965479219393862 12.086674829332187 9.884171317592369
Mg 9.582897804289079 9.673513662711557 10.385085097326368
Mg 10.97925813851641 12.753387996411893 10.027023380425776
Mg 16.737884353111248 13.198690415809475 12.957386578718516
Mg 10.323452933154178 15.244102904186619 11.85484450475814
Mg 15.950220547116535 15.028616237049112 10.767773785295805
Mg 13.092590137585317 16.12547370866995 11.218440927290924
Mg 12.372775033501535 10.37029992323852 11.367825026069593
Mg 12.224693562101178 5.547769454833097 13.699941955470148
Mg 7.719442886431658 13.695419868318954 12.525515927229712
Mg 13.336735950210103 13.16674181383796 12.034986485310705
Mg 10.555913449360222 12.279634264430964 13.061383403640608
Mg 9.341775071528904 14.914533475067074 14.738593625908372
Mg 7.942126080942128 10.705696445613128 12.780706009321866
Mg 10.352299496043619 8.995608118090258 13.339766228615014
Mg 13.560264308353776 8.12034277241298 13.038927633837837
Mg 15.143818551016901 10.695531875751612 12.963995192049294
Mg 15.14832758773763 15.573452558291983 13.599321032418194
Mg 12.242427152447256 15.10994561454998 14.202331921791844
Mg 8.102366164705778 12.338004847282722 15.36407222586501
Mg 12.603950377146223 10.56197127703928 14.67868581864804
Mg 11.595909855990493 7.494151344001488 15.822724406307001
Mg 11.147256981692163 12.875305922378496 16.05279204684117
Mg 9.817261452851284 10.054179341515601 16.05401668707145
Mg 14.316915170310551 13.012571648862336 14.9963308983448
