35
Energy = -31.65097157 eV
Mg 18.741078612610423 9.347476434498638 19.090612052971075
Mg 14.89021035857429 17.202955748805376 10.900119307378304
Mg 17.43275074833852 19.070952992435043 14.992690101764973
Mg 14.964701485824639 16.992663374808217 14.275879210165535
Mg 15.012455963978317 12.212899941602695 13.25976249710242
Mg 12.337810842356424 17.73977254124219 12.232114216630404
Mg 18.420072069437307 8.325376934672889 16.341050594020714
Mg 17.384929487383744 17.973362338539737 12.203508237607931
Mg 16.464903166474663 14.883103400196365 12.214600705378139
Mg 19.194553044041403 11.287234304485795 16.821526570602284
Mg 17.059816363945938 14.415457732907397 19.410651782632957
Mg 14.757241717133054 19.640259483145783 12.9821301752516
Mg 17.868355198777856 13.111695492019722 14.284307583044441
Mg 18.096921720636907 16.07628951713014 14.431977324854977
Mg 13.129149754636751 16.98316469368508 17.023298988019715
Mg 16.07449069622135 9.994251460787762 17.987709433614715
Mg 19.077555370943223 14.584661105949165 16.902940399182235
Mg 16.36708355129238 16.430084010623077 17.043194746927345
Mg 12.129697947841342 12.887623171484057 14.4027230329627
Mg 19.541706522010486 17.64930983217914 16.515854804690374
Mg 13.94960353317937 11.384414854320314 16.18364501476901
Mg 11.719321384171252 15.900429631142218 14.689703761645328
Mg 16.66377771579498 10.42778719150506 14.99193436325247
Mg 19.114104329834724 16.69012845150154 19.201937545472962
Mg 14.4562210427577 18.66365928631863 19.135400309559667
Mg 17.400831253531248 19.116734758684572 18.207489138023007
Mg 12.367049904561366 14.030901620558252 17.262278363607837
Mg 14.431267650547655 12.563048158332316 18.98468910245308
Mg 14.181398481707362 15.531162374280493 19.393710744650093
Mg 16.623109998452097 12.837264258156189 16.981232992783596
Mg 14.75259568208409 14.443241782987696 15.340347271606978
Mg 16.53795257290316 17.201202053417653 20.520404057891707
Mg 12.261711523679502 18.977520153731355 14.836671023134114
Mg 13.464225342471227 14.829738686095272 12.419938916850015
Mg 14.839732315827979 19.493694872527477 16.284000553082475
