31
Energy = -27.49112635 eV
Mg 16.290034452494556 14.272754599064939 0.5579380911293862
Mg 13.907550563787533 12.782594737426141 20.55053773656648
Mg 17.073877999111566 17.530031556756832 12.11451368044025
Mg 11.325823562030385 14.338000207348712 15.38590319318994
Mg 17.137873690938832 16.42000681417702 19.874847690772246
Mg 18.676389572307322 13.673759307949997 19.26626235744594
Mg 13.149767272528706 13.105619351649263 17.499392495471152
Mg 18.152285766755604 13.109999084983071 16.045703981911238
Mg 11.960988600374696 17.004655261079733 14.063296588720178
Mg 15.036953024442168 16.65940995691776 10.081167783312813
Mg 16.98156348295729 14.65262966563593 11.16360303767974
Mg 14.617647922134127 15.63290007649813 13.167647671402152
Mg 14.281253183123516 18.592790775005785 12.551053368643132
Mg 13.676403169205722 18.99100427606707 15.555429232246109
Mg 12.949533709578986 16.315039929370002 16.909916739913058
Mg 16.787781768192637 11.541204040695387 20.854457369715306
Mg 12.30477424959567 16.79195130936895 10.942914865276911
Mg 16.30640115062925 17.758783327251557 14.980193657760964
Mg 11.636078156428178 14.336523752407759 12.450552371789211
Mg 15.557481855933693 11.39139673699212 15.938749365405195
Mg 14.7668371631953 10.622002511736355 18.722186696739822
Mg 17.93167697189876 15.344350140743508 14.02595810067803
Mg 17.710040845146423 10.919807338099464 18.072491551873707
Mg 15.458208018147065 17.764457360676673 17.86539391070189
Mg 13.472274308776782 12.663818604921028 14.14726055414006
Mg 16.37999481205654 12.811105513288089 13.423900394565495
Mg 17.94633367884443 15.960397786064203 17.051971184949377
Mg 14.187932208992759 13.591173685227776 11.045613703321449
Mg 15.302701352318788 14.770915869586679 15.780269464290798
Mg 14.15082746922569 15.728349434758504 19.729503946034114
Mg 15.961374000130453 13.62391234449483 18.40699663076279
