38
Energy = -35.25581979 eV
Mg 14.227358274924386 13.680402868726695 13.782976286042386
Mg 6.171692866619593 12.156564874606664 10.59138645768352
Mg 11.671259932356461 9.695719369327833 9.799567526244608
Mg 14.125537101468439 8.01587337623346 8.803393669060778
Mg 10.721498112015457 9.660188636043602 16.36305483708398
Mg 8.497616425652055 13.161296763345566 8.618155021249457
Mg 11.694067730835721 6.626093745598515 10.224552540305071
Mg 9.309944707585663 11.754952889104093 14.761014808287818
Mg 16.612245117058766 12.435660189688143 12.110532008067572
Mg 7.891340572971685 13.509820934827614 12.867759145226335
Mg 9.289866813553074 8.16189823971438 11.215945891467161
Mg 11.249821107034078 6.766468334862391 13.298484376305014
Mg 7.563275982651391 10.290360074186939 12.511667040104074
Mg 13.635027184485647 8.287115951475895 11.851061390609932
Mg 12.97038701232306 11.947127393306564 11.561220165321426
Mg 13.59851697942148 11.18497875369612 7.925407574694719
Mg 14.81061651965026 10.490063540104757 13.561570926426668
Mg 11.20542235748173 9.896504413462477 13.049155233058103
Mg 15.876247887821568 15.30289742402144 11.756331081289401
Mg 11.046056556000877 13.902645391234813 13.366672176206746
Mg 9.81996661423873 11.860261343609556 11.110736559985773
Mg 13.15065630449522 8.484389429227736 15.018426115977961
Mg 15.3698722737671 10.29373257058317 10.40503337885314
Mg 7.940120464262311 10.087060651519383 9.323367589697558
Mg 12.17351832485716 9.022904116709471 6.554001787209548
Mg 8.85781611114515 8.35911304839216 14.387306050177903
Mg 14.881403747975153 13.336954618501597 9.545165646326165
Mg 12.429015239086647 11.8404300254543 15.218709250953452
Mg 9.710002905732027 7.89575354657304 8.149183791137329
Mg 10.285976570431394 11.091736051381409 7.432434309862293
Mg 11.68915585474568 13.280455526026358 9.013108036689859
Mg 6.807810441092243 15.067516750967714 10.447616960198195
Mg 9.86807255126887 15.018116853236428 10.683321067013248
Mg 12.887250945593069 15.099239401098654 11.119579709491394
Mg 12.155565300302634 6.123717729773997 7.28053129850671
Mg 8.109268389541873 16.600479125077776 12.738589795624666
Mg 11.070730892637 17.018336928702222 12.651797177341919
Mg 13.92327317459619 16.762307412639185 13.55897885196211
