35
Energy = -31.75720577 eV
Mg 8.836061367623586 14.585312021627805 15.718387945295408
Mg 15.388227421019177 14.510778518044976 15.679629346103411
Mg 10.976283077813935 16.39145092766911 16.690091404691724
Mg 14.882489252944097 11.371234311888648 14.21972083627334
Mg 17.187981762512052 14.850932054158628 10.013676649075919
Mg 11.80592470059923 11.516780602914867 13.630083745973739
Mg 16.337272759428167 12.72252735449633 11.876146256166813
Mg 9.839473341292544 13.963300733860917 18.315108014443034
Mg 13.943686766972347 16.600804788541407 17.478617221578936
Mg 10.061835024633892 11.94179114632441 16.173698966571475
Mg 17.580509123814664 12.875819697430217 14.513102832186716
Mg 16.84953681431777 16.16404015545978 18.0099078192054
Mg 17.575892540569058 13.47498722996615 17.54032671776928
Mg 12.509852475987179 13.855902543759626 16.017081907524176
Mg 13.060822421501252 16.37592151107799 11.625021889960177
Mg 12.335322064059728 12.346342244315622 18.64828727823027
Mg 15.988413817886979 15.574399277780083 12.92166712908145
Mg 16.112998182906335 17.478206800515725 15.46347417737552
Mg 12.181230834014311 15.23347789061201 19.265113925722527
Mg 17.940729297191833 17.50000556447549 10.857141668171806
Mg 18.306892848837144 17.76122406379552 13.650982810888479
Mg 14.915588669611394 14.097554973344563 18.998255214978755
Mg 18.874215119627927 14.998382510219804 12.616444438140766
Mg 12.721087848764832 10.572986201267858 16.160208560129693
Mg 14.303833406388337 14.144482206698518 10.131903249315856
Mg 15.447210045489063 18.40841610091516 12.571289269593876
Mg 13.407258608307272 16.70117601965133 14.567827905329189
Mg 15.062433743239744 11.843253222003726 17.18298915572046
Mg 13.627617703468223 13.941427933976453 13.272155571465683
Mg 18.470676910770756 15.494557146770127 15.568173271635667
Mg 11.492774583398594 13.568494842201588 11.288808484195938
Mg 9.337423863593177 12.881153051415732 13.370170077996436
Mg 13.692312409629395 11.562001310145485 11.340026261590703
Mg 15.281260353260748 17.02134372707317 9.858625496342531
Mg 10.88639481504145 15.359708825397929 13.714014483711969
