32
Energy = -27.93308656 eV
Mg 14.089157313387354 14.160990330045887 14.921555016858441
Mg 14.87710438083409 11.429599810268916 7.796463961770789
Mg 9.897020778513854 11.665881396109242 15.550283950617631
Mg 9.631833203163383 10.539086440193921 7.8562840242872
Mg 11.46461212899818 15.49270399407433 13.080577121801449
Mg 11.921692248892235 14.66400803007581 10.017015252343718
Mg 13.599325489726283 9.307826863564658 17.702964332685486
Mg 14.020428481511683 12.20611373077626 10.581772895472097
Mg 12.574326334968038 9.559699898883457 7.161531905858768
Mg 12.665982087823503 12.0471410191657 16.580314188042607
Mg 12.49749676506668 9.510029035474517 14.81799870711252
Mg 9.195128114385184 14.225277372309678 11.10685642655707
Mg 11.64499360680912 9.379821987859295 11.95968958456402
Mg 15.208956035352895 11.034639557908262 15.518119812356378
Mg 11.06404423413257 11.746311203995665 10.200283379996739
Mg 11.233734480899875 14.514750436249582 15.840226271168047
Mg 11.797605548235989 15.437827282872867 6.944822240574186
Mg 8.878463165025854 9.418860428839828 10.635091945104161
Mg 14.569799128170974 10.069777308325545 12.722120525065556
Mg 7.6682114040020455 12.03341728912629 9.725691453843627
Mg 9.549218412270143 8.92596880362178 14.19183493857908
Mg 10.653267483123741 9.045530796148581 17.198870543611488
Mg 14.365822823994417 14.434710784746173 8.381148849173757
Mg 12.087267031950418 12.511503930944697 7.457415952676126
Mg 11.099365261099424 8.098514364156877 9.1541162510765
Mg 9.4761934927505 13.800561803583456 8.074967487831888
Mg 14.212485994035006 14.801107668112962 11.948314912174055
Mg 8.899372021188158 14.251125815709068 14.136015112409659
Mg 12.21985247377424 12.318918371224054 13.23820510842096
Mg 9.185338590532234 11.596641752151198 12.64408608589194
Mg 13.877368970261697 9.225134988651817 9.796374623298759
Mg 16.0048059889009 12.676790978610297 13.189260612555984
