37
Energy = -33.81133244 eV
Mg 15.285674965830024 7.2493766039043175 11.833523313934219
Mg 14.811566562233619 10.935740728170375 8.045127640036148
Mg 13.553116000393834 8.745715062136835 9.487824823526815
Mg 12.747206451055238 9.02206066265615 12.321529924326029
Mg 11.737181013477644 10.923991745280128 7.908116620145609
Mg 15.656921093176356 10.249844100780887 11.360634246284805
Mg 14.822778026713035 8.616302374219961 14.47540078507813
Mg 10.603738645361664 9.613600217312303 10.247649871864605
Mg 15.921147045317607 13.094344980276002 9.696656011070289
Mg 10.004467823147317 7.7791951338078595 12.551617146887793
Mg 13.144727629173497 13.57045380128085 8.050544650981994
Mg 8.522608115555855 11.379750140042292 8.926494266832496
Mg 8.469829232339755 8.776422642641156 14.782575998148456
Mg 10.160218252684318 13.474111647720436 7.2361617517221095
Mg 7.835374733639888 9.785599115186068 11.646112655478
Mg 13.105870754324991 11.69281513911434 10.837931444389742
Mg 18.000167610530344 12.2707697647356 11.84348903909941
Mg 10.604511586737852 13.046498385031985 10.351534855879967
Mg 13.613549316352008 14.9910675663132 10.5990860329688
Mg 11.563614935926553 8.73501369236627 15.050335624805127
Mg 16.481552968629188 11.105794701261543 14.240625068657483
Mg 10.441052027810413 11.139560765584449 12.864241632976716
Mg 7.309780032443078 11.375070868590312 14.177484263405606
Mg 13.207492965034342 11.30342249612355 14.345295130077435
Mg 15.118483197933243 13.251810434207894 12.59009241133745
Mg 7.8509177172509705 12.838576549112993 11.59315197697906
Mg 11.059539558450355 15.79193254924914 9.095960417935034
Mg 11.841665621317864 17.178036334318612 11.69831994077929
Mg 12.023506395691195 13.793873712212136 12.935440063903151
Mg 9.949890286506413 11.190541758182057 15.876313323829153
Mg 14.794767297932756 13.693416090551851 15.50104352530703
Mg 9.167089253280155 13.747333690473605 14.23955298825526
Mg 9.400725934064614 15.509461850889632 11.773383597236837
Mg 14.095132676094533 16.061750927126695 13.47576855676666
Mg 11.714128045989657 13.62220392535749 16.01396155578957
Mg 10.951012443350155 16.26430523628238 14.44144918153295
Mg 13.300405388485384 16.135398763733182 16.335467496157925
