39
Energy = -36.30097361 eV
Mg 13.579266077144862 11.005766195630516 7.553311670428924
Mg 10.691017327077047 9.609182037255334 7.0264140990542865
Mg 15.81831566565953 12.456884426992291 9.220602437008194
Mg 12.96456621829565 7.967607914428443 8.115327612105586
Mg 11.034954693930576 12.508731497059678 7.91999713894734
Mg 13.622319657945201 14.226311089973072 8.0182090106376
Mg 14.870030765910338 9.538896014332755 9.834743845423514
Mg 16.028940571747345 15.47938377910162 9.185609440363615
Mg 10.910597185332314 15.206896350706124 9.355189368638541
Mg 8.634417230548376 10.664565674375341 9.181217027507218
Mg 8.459911178971891 13.8548682950136 8.261125496718865
Mg 10.102118374303943 7.886867619404033 9.610691798144872
Mg 11.747132997920353 10.339926948986395 9.97266780983802
Mg 7.979574719519719 14.975202733169896 11.105478031234409
Mg 12.799317916279223 7.535593191308885 11.062092707741984
Mg 13.149323259289595 12.908899869224483 10.732448451430995
Mg 10.073494992704664 12.671675293506615 10.905978444961326
Mg 7.828077490609974 8.56295750365903 11.620828497603544
Mg 7.37497392622699 11.532338757193802 11.867662098114774
Mg 6.106403515671706 12.971654921062068 9.685782300984929
Mg 15.744876884680247 14.312204339113771 11.927181793984097
Mg 10.229820394646566 6.9730725088153775 12.648795763891185
Mg 10.291930090587705 10.073529532571817 12.67899637302959
Mg 13.538043833439344 16.047671687201568 10.715454494456285
Mg 10.857736160995215 15.35978864502559 12.390243183547879
Mg 11.790727323152659 12.553760173948051 13.369691985590016
Mg 13.369846953136566 10.253597608451965 12.432654286144945
Mg 16.1864519391939 11.283861552049261 12.038778963672971
Mg 7.731755020016446 7.160968744499537 14.273407401659917
Mg 8.775294959015714 13.383690882759494 13.730982034472582
Mg 7.660334566320434 10.104174469516181 14.493430714001756
Mg 14.7059773091181 12.634492873551595 14.377621529806708
Mg 12.740774284359471 7.847496096266714 14.13896189091862
Mg 12.634699266292689 10.506384807017902 15.553579820899564
Mg 13.522501035958514 15.315953529156644 13.716372584644173
Mg 11.133078952875055 14.468116913851654 15.469278070509679
Mg 15.405151899374896 9.711421133307928 14.602230582105712
Mg 9.90060926444305 11.632812730589896 15.84521326916737
Mg 10.116967535043313 8.584123097660253 15.473079408348903
