33
Energy = -29.9915269 eV
Mg 16.5866000965196 10.731288175892281 10.293603449190297
Mg 16.556910171746424 13.853708934355627 10.32048781361339
Mg 18.475127441497804 12.344326161642032 11.960969316793788
Mg 14.04848712091341 12.235118799109891 11.286145543749768
Mg 14.344504231828259 9.13116988940291 11.540972684753937
Mg 16.015452978263202 11.131998146861084 13.357291750554134
Mg 16.15978866699612 16.72351483296083 10.940452277035329
Mg 13.658144457191415 15.105829355747192 10.622003742463235
Mg 18.330982534618496 15.248989218321752 12.55060038619541
Mg 15.378140025178563 14.513015428044122 13.273755764704438
Mg 17.826396877743367 12.98129570233593 14.86506756885535
Mg 11.75400720072155 10.391680256807499 12.56824220117504
Mg 11.343879148676457 13.353813244528942 11.693171203169719
Mg 13.776503747249595 9.228449766919214 14.512222839436188
Mg 16.889363596522475 17.872566526671545 13.518330363466228
Mg 13.765167761030641 17.63062303016737 12.699210237314448
Mg 17.782424995700936 15.861932741036314 15.488770965638096
Mg 12.482973417514179 15.262200790740042 14.011540760540257
Mg 11.043845902856921 16.376822798097457 11.109557341641157
Mg 15.617356791246346 11.023398880740404 16.361669813235693
Mg 13.323082993282545 12.45312810090776 14.383426665923842
Mg 13.32390714552855 9.42620277157761 17.47655954814639
Mg 14.984544150260128 16.848190637525075 15.57924724420954
Mg 11.164712748727714 10.573237962480864 15.704075406390047
Mg 15.340406164816175 14.02767410349975 16.42745880028253
Mg 9.447213572168152 12.048465210777813 13.636277041650466
Mg 12.975437838922678 12.434214487215716 17.552023038778525
Mg 12.438653528726759 18.24592756500421 15.605115645402673
Mg 10.520680030634669 18.009220755203707 13.401663636055822
Mg 12.74983311197954 15.477739773659383 17.191681445454353
Mg 10.611838483694088 13.54355011192129 15.937361902357633
Mg 9.368889657313918 15.082885120103475 13.396007531158865
Mg 10.115074454827932 16.483195373858475 15.999335963113229
