32
Energy = -28.08574765 eV
Mg 11.042241045955318 11.83174048273738 15.349108471046014
Mg 14.705630229284703 9.085583563236009 11.862945878729866
Mg 16.442555481325655 14.269564031134399 13.517399518846176
Mg 13.373762886465649 14.916786411669746 8.666606441354807
Mg 14.136943941105839 12.372262987972947 11.142518015469841
Mg 15.421263467525227 15.322650760051916 10.878374697296193
Mg 11.166843434439647 13.06872857303319 9.531354989601978
Mg 9.596236347074557 8.795362046288748 10.227024203467389
Mg 13.285589451543737 11.931070700825995 7.707410792487034
Mg 9.289628894365006 14.609191722340828 11.490694764297428
Mg 10.846551960831714 14.714583416635627 14.11257579129868
Mg 8.5022234507952 12.495110026198791 13.43995417384664
Mg 12.39930978400262 14.881177756210501 11.561104397020745
Mg 8.9947518073376 13.816386605508397 16.532869346175545
Mg 7.798922083696514 15.371456983736495 14.137705054145083
Mg 13.348343772262663 10.120608627601275 14.346011552129257
Mg 11.664809762984301 8.451150865016247 12.481555992906014
Mg 11.344263702909663 11.695755711047102 12.317923189095092
Mg 12.543017538277963 9.985636600780817 9.933857381759728
Mg 10.662662791352167 8.824928970199382 15.308011829453099
Mg 8.92211670529019 9.59412942383425 13.019480148882208
Mg 14.189079629814405 16.18790282035029 13.572505846582438
Mg 17.60317081445413 9.718400111781666 11.371393489761255
Mg 10.247813608437987 10.676378377283092 8.037364124600929
Mg 16.037479701770327 11.278084921712304 13.510092559866486
Mg 8.608280102453733 11.628387871547988 10.536205867731578
Mg 13.592577238778391 13.180544936364207 14.093207929346947
Mg 17.29827295865426 12.6831732906925 11.079391833961287
Mg 15.637244183839568 10.42085243809034 9.238615083268531
Mg 8.27750820075972 10.758889732573696 15.942373671686951
Mg 15.847463841677968 13.311700767769286 8.548643545266465
Mg 6.313087919799837 13.141465205040326 15.645366157883883
