33
Energy = -28.44673225 eV
Mg 14.133976079012523 15.633611688006107 12.493610897567862
Mg 7.122519652864966 11.593998698901233 8.238065624650297
Mg 6.644517888331206 11.832012259065149 11.315193800304614
Mg 15.101957255825978 8.004334573661072 12.961306991802502
Mg 7.771675767106369 11.549095970259824 14.478182365051893
Mg 10.156823618425967 15.027023210996147 8.115173877657096
Mg 7.545039099386881 9.223693806812417 10.053588434738424
Mg 8.779686055787948 13.520087405512326 12.518303807473911
Mg 9.073571736740941 9.432734211522668 7.483719159768818
Mg 12.079492979469956 10.131626288203408 7.936185565893649
Mg 6.529058220313727 9.305231682314108 13.015180251616723
Mg 13.737772958902587 7.038848644404874 15.479592502231188
Mg 12.710527213477013 15.720146847203464 9.788735672596559
Mg 14.962742280524783 11.03391988818026 8.932908203034815
Mg 10.864142841598424 6.510338425708023 15.24210530924527
Mg 9.3998237398828 10.31314117277717 12.1986520067742
Mg 10.61694342151283 8.651421510942798 10.053452138257013
Mg 12.553982803258021 11.009180010145803 11.199938304867413
Mg 13.980391540056276 10.137705700268805 14.683113664763143
Mg 15.566845835626818 10.773549378849278 11.926622471748315
Mg 14.052604439468361 12.85761964786249 13.602547481827331
Mg 14.821710378556423 13.473122106212214 10.605017582803821
Mg 12.465878685392338 13.021842530717239 8.575848520293851
Mg 7.639305801572118 14.217388498693897 9.6821168439027
Mg 14.64510368711351 8.457957429125441 7.412119027833591
Mg 9.011620213278544 8.778508608857683 14.853866098419257
Mg 9.826317734138813 12.017222610309108 9.885657132760995
Mg 9.79239947391979 12.371231993173565 6.878052704258774
Mg 11.677469671556404 13.744747719450277 11.83099551032524
Mg 11.87213169764461 8.551191068668908 13.020137532974175
Mg 11.17932147543394 11.60360810033729 14.165274587622823
Mg 9.732228814718258 15.927772118189175 10.925436598532528
Mg 13.830817266487456 8.414486522054197 10.327699655787798
