36
Energy = -32.94138949 eV
Mg 9.552082757174599 14.635655322038753 9.69473465550131
Mg 15.182790226418563 13.085923012944306 8.691585683922813
Mg 12.347096324610337 15.236748813888346 16.385245165219395
Mg 10.560544388852527 16.55693026073351 14.40193621515097
Mg 10.246245148023085 13.55641129368885 14.920082188007267
Mg 16.476935348851814 15.093967969187112 13.545301026117732
Mg 12.491468567375902 9.207297428477549 16.528112752252234
Mg 16.456615507902836 12.802762068747052 11.461473153639764
Mg 7.935663280439076 12.014240060503832 13.680085278708834
Mg 10.923989117523604 12.0609469743146 8.711728934212262
Mg 13.81248460999225 7.885159193449944 14.043701866751979
Mg 13.469746227845922 11.900028055166553 10.872846313943993
Mg 14.886534318671803 10.76087858585036 15.71908130551403
Mg 15.095981643761554 13.979192731818893 16.062907769939915
Mg 14.566894308383707 15.054497339112299 11.161366874991257
Mg 10.637035115914333 7.66430196982485 14.867851760890273
Mg 13.864829195185607 8.66815511281022 10.931191645460249
Mg 13.726262004293357 16.26364519577863 13.976190572858311
Mg 12.238152886022464 10.384653333339688 13.493157916162765
Mg 12.411705418269753 12.208773477492734 16.403226239262064
Mg 8.311309420346806 11.778625073616409 10.569711179613295
Mg 10.46449976586703 14.20928796189155 6.512181929794917
Mg 11.677339687383 15.450733364556152 11.833007594074894
Mg 9.853952172993615 10.615736163736793 15.549124409850064
Mg 13.475171167915564 13.204646318512275 13.590560234943062
Mg 11.482418940443011 7.277388181955417 12.152804682497605
Mg 10.747563741060208 12.478074721421342 12.034166960728012
Mg 8.678936409500206 14.775102128771406 12.527708885310803
Mg 11.109119297376328 9.752980692295223 10.474740979409187
Mg 13.128216342402325 12.798468798163308 6.531406107937913
Mg 13.495997532060155 10.358562859330437 8.309076706168035
Mg 12.534663545252155 14.61828878627083 8.985038930140755
Mg 17.059049285676082 12.344671057334498 14.401619872769592
Mg 8.00298200834918 12.933660181640992 7.676581978196287
Mg 15.411194446366508 10.351349189182008 12.828925685285792
Mg 9.269177652162423 9.484007012925051 12.763681943895783
