35
Energy = -31.61305164 eV
Mg 17.280491453874017 14.987603057232986 10.382827167001391
Mg 17.473750947658743 15.424606817741426 16.007803401356636
Mg 13.281113070161036 16.327958444871992 18.512914938746302
Mg 13.231730935884139 17.535213739889976 13.581884159935482
Mg 10.471806122534272 16.37618129896738 12.630018950604347
Mg 11.20095877889013 16.891104438098303 15.589816306630803
Mg 15.710248351211552 14.323797331346725 18.405202205135257
Mg 12.895437883481215 13.415392598368859 19.314925786967695
Mg 14.261262480916178 11.384455237233547 11.90997477315472
Mg 16.009138555280202 17.597309664101406 14.673187820040425
Mg 11.880344686648565 12.186741488811307 16.55639380933668
Mg 14.55244340650893 11.49035600596026 17.83946294784718
Mg 17.12367036935739 11.288480833649082 13.30933080586911
Mg 11.504150540312924 11.56280704354062 13.46206325308229
Mg 14.240335309244928 11.801378747077084 14.78383648431639
Mg 18.21706581706987 15.894466208397807 19.298337858238625
Mg 12.783305707123082 17.061201721289393 10.663593237129723
Mg 16.649040623892525 12.15789994772757 10.405820566118491
Mg 15.916585928347368 14.059648509639606 13.316615614037381
Mg 18.361466406426256 15.930835156410266 13.109207803735584
Mg 14.301707362274753 14.212349367848834 10.291554782096595
Mg 15.549091826088052 16.88176186382517 11.81944629845178
Mg 14.02457964663164 14.973197411963234 15.737073648130183
Mg 11.005704945706379 14.956669510430588 9.82925741768228
Mg 19.2279522511199 13.30790470790713 14.70084431276788
Mg 10.893086888022474 14.778298155317193 17.651250656044304
Mg 10.231468018373976 14.15604501534701 14.793414102556937
Mg 9.646964401016653 13.474208160909509 11.983815206763914
Mg 13.639632858296906 18.45912056747772 16.428505523958165
Mg 16.7717947028406 12.512789385001248 16.109752907083987
Mg 16.03493789223632 17.431571450109363 17.825570533938002
Mg 19.13016032977203 13.464004756342307 17.8955046293894
Mg 11.865897617132468 12.23423511892206 10.425011218399362
Mg 19.07429850251565 13.152664498690406 11.841763701269677
Mg 12.85224961586806 14.358894940290563 12.981017201194616
