38
Energy = -36.29759378 eV
Mg 15.238896863584099 13.53062015715416 7.4752125160024265
Mg 12.386602122173544 12.398384038418383 6.890902486661709
Mg 14.658874933647276 10.73464246238485 8.588903365987507
Mg 13.027536364544982 15.37945639835641 7.480014510439242
Mg 9.565470096574701 11.442750957351777 8.391736050825724
Mg 11.870254546318712 9.531249231466802 8.451858046860911
Mg 10.36295118470885 14.355804324671045 8.600243572466864
Mg 14.31521920182122 7.861905890209801 9.485757857232457
Mg 7.541621479477881 13.659927301810368 9.347325176633658
Mg 15.548384791410355 12.959279537141166 10.631433761320379
Mg 11.61614935262414 6.983141762075551 10.346361972227122
Mg 9.535805057792272 9.144103041473103 10.499850779487279
Mg 12.633440479863507 12.669204592238065 9.779856641972787
Mg 15.190054191508498 15.761206526633712 9.53309571773921
Mg 10.095692738694868 12.166283541529173 11.278566054224404
Mg 7.10050601077394 10.867263799418247 10.281869343062784
Mg 12.345745930027501 15.59372415117621 10.623699961726848
Mg 15.520360422513853 9.990728409907113 11.37185369853585
Mg 9.367044501751831 15.186620955874757 11.33103321054584
Mg 12.770487472718605 12.926626406786559 12.741274188658824
Mg 8.343207933527019 10.389329217057709 13.115938309690819
Mg 12.413760816058808 10.13371991302164 11.345537762533807
Mg 14.773747675868131 15.320832819506656 12.486838023351922
Mg 11.12912069208765 11.011279104017067 14.159501639233097
Mg 7.016489016446586 13.116764192262536 12.232266064370354
Mg 13.772650879676096 7.322876394684171 12.379714708564837
Mg 14.034616071661853 9.849620592851561 13.881368404896195
Mg 11.718664360806015 15.607552148649104 13.622756679948694
Mg 10.826296071149166 8.15200579586228 13.127861467412496
Mg 15.593019754516398 12.4210126694082 13.659185009793665
Mg 14.111779471187504 14.597977322080789 15.360725176594155
Mg 9.325721710762062 8.88682492430183 15.896805801220504
Mg 13.60086193847286 11.679194143174417 16.12249340692621
Mg 9.433142552243746 13.628299782333961 13.843714935470155
Mg 12.297482709791257 8.586315405690334 15.889266121708841
Mg 11.32108260930973 13.572251804676698 16.101743115762694
Mg 10.92674774379765 10.727285063736018 17.567582246882246
Mg 8.57558373229919 11.759008702800786 15.980925695219833
