30
Energy = -26.74864302 eV
Mg 13.975742011296726 9.08559524061746 14.178068720277766
Mg 12.953015052548668 8.510146935671276 9.354956057038047
Mg 11.135494308260505 12.936901907617196 7.297960027538898
Mg 11.115466625211441 12.968205038995613 10.845694354207481
Mg 14.834662230452881 12.194113848821747 13.682902965282512
Mg 7.72693109144913 9.994893724612062 9.695032583835888
Mg 8.571699435576498 12.856081599636894 8.947236360814173
Mg 15.869174105780216 11.069554807099825 10.573970908935909
Mg 16.700720600188976 9.930793171843153 13.210411629745881
Mg 7.048833389648654 7.255373419318252 10.747096820805234
Mg 9.105098648611984 7.233104140631918 12.904624993046287
Mg 13.063051733182384 14.810306934751448 8.476582793091618
Mg 10.222848704095176 16.24381542091017 13.548018485755902
Mg 10.17583402577162 15.499815007649769 8.551193390000643
Mg 12.212449621063223 7.449966775762191 12.124756296760964
Mg 12.904224631629393 10.648716922812529 11.601568020533374
Mg 15.131473318570167 8.171231565923474 11.396771654227509
Mg 9.932178480526128 10.339888315198685 12.184412660628272
Mg 14.15465256797083 13.650005177332005 11.055360456087211
Mg 11.043068639753047 8.618229940053649 14.659642374574783
Mg 11.847964543602753 15.987232539024257 11.042316523700563
Mg 13.469714103576504 11.72587433344805 8.748321446470362
Mg 10.029540160193068 7.7605014350831425 10.03933162504891
Mg 7.488298511368516 12.308404797166434 11.739380951260815
Mg 9.622124755506206 13.174837848641355 13.634448904094127
Mg 11.907275134675928 11.47117881287398 14.426642776404933
Mg 8.796299425622504 15.074808990207009 11.1958753728705
Mg 10.677448278695715 10.548150671489099 9.042651848882178
Mg 12.51470848849784 14.219749700984776 13.522685357068648
Mg 6.962310957160354 9.45482455630864 12.764387221497326
