31
Energy = -27.02343865 eV
Mg 12.755803429161038 9.596287402508867 14.508464456970023
Mg 14.855079875958022 9.352930562780296 12.281721396001712
Mg 11.179828511621322 16.297713088399586 11.921497648933043
Mg 11.632647903576853 12.747448603047015 15.49761363563936
Mg 9.801729742943671 10.744228875498157 14.06071551188619
Mg 11.621609670748827 15.700233276802807 8.99668139807256
Mg 8.47710879633123 9.226663318484867 11.752154682841311
Mg 13.098273892064169 7.117159352615076 12.631250179688196
Mg 10.679186597212365 7.226665200411165 10.682351893269477
Mg 13.698753439051146 12.11954824447498 12.981723527372523
Mg 10.724003386703853 6.435475274844552 7.688352748363869
Mg 14.160276123557562 11.379099549657598 10.121512780282451
Mg 8.404576765574314 8.148805181924963 8.887446049804542
Mg 10.456058041655783 7.78850010207167 13.594370379361091
Mg 8.286389019489961 15.466779186458544 12.91342625489797
Mg 13.482737180819761 8.329065516145533 9.739069685414034
Mg 10.968733779122365 9.588161167493642 8.262809290649697
Mg 14.600578655033134 12.837642204752163 15.756349896867805
Mg 11.248346226415224 12.487633838228707 9.44411915593504
Mg 9.092199906819014 14.544299576790783 10.230419125635477
Mg 7.985276182402162 12.342332030087084 12.186290293053963
Mg 8.720115011545184 13.435295780365227 15.02625479350037
Mg 13.63429810522803 10.545990866356844 7.287892376342802
Mg 13.450200134358019 14.409972113003153 10.96798683363643
Mg 8.591635911041449 11.163104029752285 9.507400362186887
Mg 13.202275487368746 15.059914410918099 13.934102016206758
Mg 10.515015658273176 15.7901590103275 14.92257375276048
Mg 10.896124381241668 13.280705418460013 12.505163112597605
Mg 13.113078479992463 7.638077480031583 6.6632686496477875
Mg 13.655479593296983 13.52328441047767 8.065547273969774
Mg 11.500742625452649 10.164987440891167 11.469633352271398
