33
Energy = -30.89462338 eV
Mg 6.770610345584436 9.68151057507326 13.362165735975704
Mg 12.006864293070043 7.482852943630643 11.35788105216415
Mg 7.995157997463913 10.77647262816497 8.353997570515626
Mg 12.957915667799213 10.39588801009212 11.724620975403866
Mg 11.521338983723012 12.94360541976002 12.007032660834184
Mg 10.761417959363593 11.632984806542217 9.50731754897636
Mg 13.388759297464107 13.768585235223345 9.638600367123953
Mg 12.617008040644087 9.221827819433027 8.820697896732307
Mg 12.738346947436561 11.939997519256629 7.237773070113972
Mg 8.3921076507496 12.240204280500592 14.080788510790402
Mg 8.735786423496913 13.791587058585996 9.075299640460072
Mg 7.47003902918748 11.818337872281043 11.127824541279443
Mg 16.284874135359118 10.108729079520018 12.164609997139058
Mg 7.001145202747355 8.858287518454937 10.601137471828327
Mg 10.660536782401632 14.520440847836548 14.27562773491394
Mg 10.94990888408525 15.550837596988512 10.412090695554149
Mg 9.750705135070994 8.47785999845487 9.553483615497301
Mg 14.959570233060365 11.184490088107188 9.478808353619165
Mg 8.654193020788947 14.44986687520974 12.02967797128973
Mg 14.976131265870952 8.224562031977758 10.370827485235885
Mg 11.73090462929163 8.545734028765267 14.142333773001877
Mg 14.268762749931621 10.693841200482016 14.439015056793224
Mg 8.987489026747134 7.560211531675432 12.631793628556768
Mg 11.334742153910897 14.625035042397279 7.608205402328946
Mg 14.543300724765695 7.895688540214442 13.245662211782196
Mg 9.912928673110626 10.319754457952541 12.118897447428564
Mg 10.41286185718402 9.769323228344835 6.843101502352751
Mg 9.05012098483776 9.406146958280662 15.118936759001452
Mg 14.944035232236793 12.804113270396646 12.161713588912168
Mg 13.356669412817885 15.393357707789201 12.339401103093842
Mg 13.508511118663522 13.613652371386184 14.709408410834845
Mg 9.714123833491506 12.529136100747698 6.366273709054255
Mg 11.329922073816679 11.461867122646268 14.78178427758391
