33
Energy = -29.59616539 eV
Mg 9.536445843962609 11.87565827360017 8.76583604431407
Mg 7.839126646261616 11.082653572612214 11.145614974592753
Mg 10.794845762236372 12.706351583363993 6.245257536831744
Mg 8.691490763091366 8.34827925359086 12.295614165801895
Mg 10.460068749184892 9.47474053318993 10.253133653647778
Mg 7.174171638547801 10.228091185501087 14.188704321160124
Mg 12.198126472793088 10.451874257359538 7.9605832646150425
Mg 11.720883041796002 8.512261235806129 12.848378862865333
Mg 13.464024848102499 9.141080034335264 10.32613122170998
Mg 11.28699292640167 14.404636219985548 8.804966506619227
Mg 9.570451063221851 13.637289271264414 11.195764334352509
Mg 7.615568389800251 13.099362638303448 13.490881640950313
Mg 10.262900406098177 11.186237043612875 12.956764895037487
Mg 12.407070722051726 12.11762377579002 10.69609903606141
Mg 9.680589603299016 8.798950024725752 15.107197385173741
Mg 13.517785948393994 13.17511449010061 7.128377228570054
Mg 15.03895249487008 11.506995933712318 8.980156574532138
Mg 16.34962828333999 9.8613450271137 11.099699764652877
Mg 9.418332691704896 11.876584621975127 15.753466299524401
Mg 13.997447929203787 10.506816500824062 12.962900532638274
Mg 12.138254922261837 10.372380580827794 15.31576992471001
Mg 14.228486273172694 14.600494065398752 9.623021679150526
Mg 11.91546351488183 15.439379324153963 11.493073042160878
Mg 10.204597121867053 14.460901590074826 13.992652158432739
Mg 15.541028349342008 12.83760840831995 11.583029880869006
Mg 13.134942854646457 13.32247338143394 13.442953450245472
Mg 16.89867632986118 11.083680210745081 13.702924911551554
Mg 11.98869502702539 13.307375423182657 16.281064854036075
Mg 14.669692502933724 11.807210020269325 15.689682398107427
Mg 14.851929329750732 15.7889947402315 12.35259682898734
Mg 12.540578107197062 16.242635900008814 14.268563423544919
Mg 16.4710070708985 13.96706493845365 14.183499251088493
Mg 14.49183734135078 14.955984762521124 16.056770309337182
