38
Energy = -35.7373383 eV
Mg 10.65822801495057 12.613045822572333 7.866233244231252
Mg 10.579572803467036 9.736581180847216 8.431954809302804
Mg 13.405941004941072 10.89290213498197 8.701415732139017
Mg 11.091606219615343 15.740967240756078 7.806749857393166
Mg 13.156005089311387 13.931298409979782 8.851160994323344
Mg 13.038937538444012 17.133453917152437 9.687330062250894
Mg 12.776611138856751 8.197190050450834 9.866193851005269
Mg 15.36831855706753 15.318845745170497 10.30100906185403
Mg 8.686428316489023 11.353676873447094 10.215653278754067
Mg 9.489341936874226 14.402415487149055 9.989250090049966
Mg 11.497183489439324 11.862049014743318 10.994540711897955
Mg 14.509500290626752 12.489335030854564 11.111935438457932
Mg 15.323653578740437 9.61549071806652 10.933589829969169
Mg 9.974506780402189 8.622890371733774 11.103235432140062
Mg 10.118469128496276 17.531347096174134 9.945392759554776
Mg 12.209795426653978 14.834537245879451 11.77971550483712
Mg 14.566785936714654 17.363563283158115 12.290539480734552
Mg 9.227649033505505 13.338340033826906 12.791230519187978
Mg 11.724223052032187 6.182334714655795 11.909770346652756
Mg 12.767921576436663 9.650009231381697 12.763641384063323
Mg 14.563447452903109 6.779275805749169 11.85345027421671
Mg 11.615644260683093 17.773058050905266 12.717607933488917
Mg 8.941820416574734 16.339992689725754 12.276844146982528
Mg 15.892485933203943 8.477578245850017 13.808062651634499
Mg 10.225861076911086 7.570407237696299 13.945638250892085
Mg 15.457439278701829 14.490855284374403 13.192769287130108
Mg 15.835751116733164 11.451758666744599 13.563112763644119
Mg 9.670034840945968 10.543199609491506 13.376572794469363
Mg 12.576211538152057 12.575360088316517 13.88538058512158
Mg 13.182616111581096 7.235149569034616 14.642352579525731
Mg 10.58580972831589 15.367911157319277 14.524098554372001
Mg 11.393370173738832 9.62012347536448 15.71348735480849
Mg 14.319385130744585 10.118743989261759 15.727561956120317
Mg 13.447087462986943 16.015498934165986 14.721129510609734
Mg 14.749040830979391 13.301728822767448 15.9430809633025
Mg 10.039393052159138 12.513113590827716 15.70625144170799
Mg 12.518520164039062 11.746740201008109 17.399043093562355
Mg 12.089361343327045 14.543189804161742 16.936972295358135
