38
Energy = -35.61900074 eV
Mg 16.85420449551454 16.37427464303984 14.047399047638736
Mg 13.916113693726635 17.28284853730676 14.721294453671351
Mg 11.037566912374674 17.646617834989126 15.440383264058113
Mg 18.021362315502675 14.417356385073946 16.195714431940257
Mg 11.695976405435397 17.816422631695154 12.503647013543446
Mg 14.60677041339026 17.013369530165892 11.825680420364865
Mg 14.933214191146028 14.710075345195895 15.947383873892274
Mg 17.407633279293716 15.684189143934608 11.201447267044886
Mg 8.810274197094301 17.558481275472463 13.576851127858832
Mg 16.465741563927722 13.036882991743818 18.28339884691398
Mg 11.995474632439755 15.040146080247593 16.51564849188792
Mg 17.95998160419495 13.542147688389509 13.313293991990781
Mg 15.029403613823705 14.095086800530204 12.891335201646967
Mg 14.798915483458066 14.874991480732973 9.73680163633655
Mg 12.025867543856656 15.600255697710416 10.339665411023752
Mg 12.188434764755833 14.965016401291843 13.452425527328193
Mg 9.383504778492975 14.882793746832329 14.955694378405825
Mg 16.073152065354744 11.921421800404593 15.331826965183078
Mg 9.48653413287797 15.23324913361583 11.870749603143244
Mg 13.347388139276307 12.548095612743039 17.459513192950475
Mg 13.080036539436097 12.188625413807372 14.38796142998989
Mg 15.058190036430272 10.16158407882296 17.566014656484885
Mg 12.569058169132113 13.277509787347253 8.237098504068388
Mg 10.500011163163418 12.232423761523295 16.133258297589556
Mg 16.853936769002516 12.823457916744294 10.515680690298518
Mg 14.544115404868874 11.775288803046921 20.219986949162013
Mg 12.840775873515792 12.723566109158055 11.3614444646742
Mg 15.494810089711622 11.030444084296565 12.550714834687748
Mg 10.188734923902127 12.478315822641548 13.07197739853231
Mg 15.464922690494326 12.973593333063544 7.580941351748399
Mg 10.064343315632186 12.884017878474596 9.937064528756931
Mg 12.114414718537734 9.789363961869036 16.95616073350101
Mg 14.053791930782769 9.34575524149356 14.716121857186533
Mg 14.567042081625434 10.930233201698698 9.64356548080821
Mg 12.82673170348377 9.633374725463414 11.868805266244477
Mg 10.911150493892714 9.697263547163534 14.245089405394475
Mg 11.616271526186265 10.530452795267104 8.971126612439205
Mg 9.929480954460713 10.066632124338534 11.377452447578314
