30
Energy = -26.99550667 eV
Mg 12.562459239842212 10.077053867900368 6.740837535472038
Mg 10.104606650645723 11.593661326818351 7.719989703476005
Mg 10.253773977289773 8.585993916651313 8.059310412181702
Mg 7.722926480731991 10.076858115388408 8.609466247319428
Mg 12.878216396435697 12.939476096466338 7.856757110204319
Mg 7.967459558251684 12.9653889759278 9.400885565225947
Mg 14.965575366647682 10.673411510609943 8.411316317487518
Mg 13.498395493881631 7.922129624488782 8.684997240230516
Mg 10.266287021149319 14.560504458090328 8.193525350750457
Mg 11.006413296641737 6.49781314987999 9.993207426871418
Mg 10.04045266409026 10.059321682536739 12.003817774792875
Mg 12.156671082272853 10.27421876538526 10.016896034353959
Mg 12.597487551536856 15.2505284770507 9.916451912935722
Mg 7.0060859320827635 10.702350669037214 11.462974971051104
Mg 14.291809017734211 12.777479995257567 10.590944770541261
Mg 14.908217249096433 9.720781953776747 11.298145183629101
Mg 12.605557299115517 14.306921290953044 12.782140795892548
Mg 13.390136034950835 7.1182554444980415 11.64202388050005
Mg 8.34393759557838 7.882351033392261 10.592589538988223
Mg 9.686194788978494 15.447404000237707 11.057228342051298
Mg 10.763143869869072 12.65667299918046 10.914871547890144
Mg 7.421038378336672 13.633129416340063 12.231598542489285
Mg 14.2585793508659 11.824540438329148 13.411050323805481
Mg 10.467959998568265 7.108413842993346 12.950600490419607
Mg 7.713762365569923 8.503000501212279 13.536924689418885
Mg 9.786157821373596 14.288432434948806 13.888860621062976
Mg 12.751737295581488 9.266723143328388 13.573973569398948
Mg 8.308743960095848 11.514944504022035 14.270177895233031
Mg 11.441262568206998 11.862562702855167 14.340333664592041
Mg 10.130661030141157 9.205384998006226 15.143811877297246
