38
Energy = -35.7978252 eV
Mg 13.753331505009943 12.622212407829867 7.272509118651246
Mg 15.347617832692663 14.7293714024491 8.852722475559128
Mg 11.236633299306625 11.298177328011624 8.402798936200872
Mg 13.170875243396695 15.80495743127921 7.222847544418641
Mg 15.396608466721405 11.929372128342678 9.782531087623664
Mg 10.869288576078457 13.938909258383086 7.06168825033671
Mg 10.647605442852859 9.119469160577923 10.28461687848432
Mg 13.693698692512452 9.433542417990102 8.569957951479285
Mg 8.381874312542168 11.00060392239441 9.058570293546298
Mg 12.491441127661734 13.616117330360533 9.940895478106775
Mg 15.371907061060206 11.539297711194392 12.895028346689442
Mg 14.814033226083454 14.442529179262515 11.881971814772013
Mg 10.831143274084148 16.3433100981963 8.944928833112787
Mg 15.526672984381076 9.08318444377481 10.954017018781242
Mg 13.465251015651477 16.658652502918635 10.247329894142698
Mg 12.972334348213975 10.903925963189236 11.076157383478172
Mg 13.023059508166305 7.55061189234751 11.420832680499913
Mg 7.764554360210837 8.993384764134127 11.174864898226888
Mg 9.265208973519 13.791168363581905 9.687999105422975
Mg 10.27091250264806 12.014577228529873 11.876535453051844
Mg 14.707220911765717 8.66227797449145 13.852230551507672
Mg 10.062412549727533 7.318406287847106 12.618750583814645
Mg 11.891152580367548 9.773780996609931 13.526070595168136
Mg 7.187791953127849 11.956040744839393 11.728190163557946
Mg 15.207886126512918 13.949300771583129 14.862530689997934
Mg 12.584248255755336 12.963357142835642 13.359205812658852
Mg 11.16301225781394 15.32747886968947 11.92366844597063
Mg 8.840078506210958 10.008291956252423 13.761037869245202
Mg 8.294071677608127 14.772808473673736 12.425550352295955
Mg 12.474027447035374 6.483922135041253 14.272979617722973
Mg 13.934525972981591 11.305038364546522 15.599051170284929
Mg 13.165321714736418 16.038777596307927 14.14936008384798
Mg 8.121741439621509 12.786620915825774 14.59161520943152
Mg 12.936444501362951 8.586332362810444 16.423951519964543
Mg 10.213796147683466 7.992678807301679 15.618720850427103
Mg 10.802057520348026 11.690254319842959 15.575057192212913
Mg 10.368117794142451 14.782997979873274 14.810414453249196
Mg 12.736915731713593 14.107057913475586 16.489821840318033
