37
Energy = -34.77461383 eV
Mg 11.911499808844903 16.10217769091426 11.248448906037913
Mg 9.262247686094597 16.05012524399088 9.745652535664949
Mg 14.29933356853213 15.06264537037555 12.87021289587937
Mg 11.282038135453076 13.977079570794109 8.929203408336532
Mg 16.6661112656669 13.695603704995087 14.259190369535983
Mg 11.477423850324271 15.274158254697692 14.23396186885969
Mg 14.002007233534213 13.9263402911167 10.145609254131648
Mg 16.32521583415699 12.59885602116874 11.551930302390447
Mg 13.85176032019886 13.809029428510344 15.610716749152726
Mg 8.442210530764148 13.39074621635463 8.032118912925315
Mg 13.56829587082296 12.710395502960822 7.28768503397022
Mg 15.75480032939632 11.541846550558159 8.786641515581572
Mg 10.95834267543862 13.284199592426457 11.93817148176573
Mg 9.076037981959585 16.29193681243037 12.685236474653529
Mg 16.11804956698853 10.592150396471698 13.877469040322293
Mg 13.554789055724685 12.021736532859865 12.904912942764001
Mg 16.128762663227363 12.077745657652985 16.60579173746759
Mg 10.920433385964781 11.580060307943981 7.02033450966545
Mg 12.52930239291131 11.311077154379415 10.096102450586873
Mg 7.970913856533946 13.760167677721181 11.153167574764883
Mg 15.03377136032244 9.76676666742348 11.034360760158629
Mg 8.135980984575196 10.451493811048278 7.317684113515733
Mg 8.666427324419061 13.645711398589992 14.097759247332569
Mg 13.570229660002095 9.589961227836337 7.815878874105396
Mg 11.25113593817462 12.27592717170055 14.966131537953117
Mg 9.584069246905905 11.308726098098676 9.969085368241924
Mg 13.639067478738065 10.589601530011208 15.863027203014903
Mg 10.973587671457908 10.315253034734564 12.614696969013002
Mg 10.65630496224674 8.841205299824965 8.231331382442434
Mg 13.526757832950697 8.76510860768162 13.430925488403599
Mg 12.404653429146213 8.26507718295674 10.573962918337989
Mg 7.954547710423001 10.981900692909635 12.470643231536421
Mg 8.699496072607795 10.806206751352653 15.320787222805325
Mg 9.221265850054909 8.429194270571198 10.905399638995798
Mg 11.102893935419432 8.931680624173056 15.42385801700952
Mg 10.98711349831737 7.063165698669143 13.003116681088306
Mg 8.482998437802525 8.224105437892879 13.87505448889251
