35
Energy = -31.66110054 eV
Mg 15.089831663250033 10.676310142868985 10.832840284326041
Mg 15.687816481180297 11.946840394444754 8.191523312768641
Mg 13.97613879317335 14.38857417095924 8.616016515920757
Mg 14.450534285430335 9.207880001182486 8.154247630437784
Mg 15.658346107445489 12.315679311402866 13.401306203949025
Mg 12.653793370329272 11.66846259200712 8.60139955609945
Mg 16.41094815771642 13.55375145414986 10.74644619639672
Mg 12.424762485890588 16.802246633137184 9.522888218767738
Mg 14.738782818339727 16.014165488533685 11.412388712282258
Mg 13.813236126018177 7.916372238771254 10.800038881187824
Mg 11.438923011962068 8.931847226214309 8.734005510952802
Mg 11.043791398268707 14.07177386562001 9.265703180866776
Mg 12.063443169925364 10.390056466962571 11.39347820123743
Mg 13.303470102585802 13.157648514520531 11.353430492038616
Mg 14.440220941487755 9.292058394210036 13.411391615716756
Mg 9.713338728632175 11.351818896604978 9.238729799120003
Mg 9.385079491349185 8.753749711487805 10.895808756915956
Mg 14.906094548650705 10.828008394278811 15.86923197553177
Mg 11.56522190894592 7.716447970127678 12.78562252918687
Mg 14.02081590105475 14.759136633429936 14.064673123973652
Mg 12.602938141651782 11.941699584339899 14.119661030214516
Mg 11.717927052015222 15.671525970041419 12.208028942903136
Mg 10.360198797248527 12.924221171096656 12.090358305719356
Mg 8.175961270240153 13.80168202075245 10.083851737227699
Mg 12.108846921206972 9.214403744393106 15.372174605814072
Mg 9.50876617536612 16.573585073676384 10.186332222651643
Mg 7.694027490813562 11.271432691450968 11.587975415983562
Mg 9.916046276987075 10.29224682270995 13.559693120435071
Mg 15.054746606937655 12.420775363533465 18.390560812221146
Mg 12.995620781289077 13.697176932914143 16.648913665434947
Mg 12.555012692692973 10.918540409770703 17.78317593356675
Mg 10.86023626130422 14.643706147867812 14.880696068564825
Mg 8.76399044826161 15.462368228501516 12.881573016017942
Mg 10.301185992302322 11.916097091439731 16.110838515094162
Mg 8.141097450576645 12.832367073709282 14.187371740956621
