34
Energy = -31.64507774 eV
Mg 15.4668272439933 12.746636806113298 14.869585436830533
Mg 12.868162899040529 14.044285942654845 15.933805038485028
Mg 15.581840547732499 9.610354379725736 14.429153457189132
Mg 13.063601073682012 11.001554466742947 15.522434018548491
Mg 11.057335762527085 15.825187548735354 14.145173658332046
Mg 10.421747962625686 12.42285103270285 16.538787476618545
Mg 13.77007759036088 14.669208974712435 13.102396340703612
Mg 17.847897112666345 11.270014626867294 13.621880714314162
Mg 16.35563838684863 13.263706184914279 11.961373214178387
Mg 13.03727685629434 8.625236522954713 13.205902030776134
Mg 16.2953339282339 9.970712400710113 11.497266326929289
Mg 13.832131147362105 11.55637198149659 12.518938813513595
Mg 8.608125142630893 14.145305608750114 14.685106744901576
Mg 10.506968913707883 9.855766231470298 14.468944039124562
Mg 11.99772595116081 16.432136174360465 11.293107194843765
Mg 11.215632087127613 12.765606137102285 13.539508333826237
Mg 14.696611010979268 15.173773685839297 10.250265159409977
Mg 12.122831531535908 13.360731400083377 10.702883922624357
Mg 14.89929075700179 12.100797001182691 9.608742065623824
Mg 7.962288193653869 11.308152481212188 15.383034498666566
Mg 11.124375765915058 10.565894884956847 11.406443037342619
Mg 10.349808288918581 7.618730542676597 12.111130010161263
Mg 9.375204380430075 14.830702306744433 11.775667773863187
Mg 13.162528237776232 14.198896452239708 7.879774144139555
Mg 13.72433367299151 9.14166863985045 10.27472034120253
Mg 10.468326059080596 15.396290314537874 8.945507140014232
Mg 8.419344246294495 11.9319851753869 12.453592958088196
Mg 12.287365253120539 11.130806848942408 8.477730345928604
Mg 9.297276367411708 12.549197443553775 9.703413406173109
Mg 7.915493397216218 8.997204715601846 13.293793043696686
Mg 11.038534950380942 8.194425741659868 9.221330457813297
Mg 8.480132859497928 9.464848799097854 10.377663449839483
Mg 10.556317419872956 13.148973497820029 6.994326944158919
Mg 9.544415237137953 10.28490973009649 7.663443546978193
