30
Energy = -26.29496312 eV
Mg 11.058450446871928 10.778555701644684 6.5139211036521525
Mg 10.23023750192138 8.042776346653882 7.326685514602367
Mg 8.333074338669988 10.40505629611317 7.671175027488876
Mg 13.172078973340627 9.109471293023445 8.171157552661226
Mg 9.880265626753136 13.039328280967993 8.373474272678855
Mg 12.85583752101771 12.473075983123852 8.480650921525514
Mg 10.8751507425548 10.271953673981097 9.560316817038212
Mg 8.544464139511332 8.326135101445061 9.94540518545341
Mg 11.310355520097321 7.251826762352036 10.075849478928221
Mg 14.445096719053465 13.718328835908698 10.95301190386829
Mg 11.707905245862255 14.961787770823966 9.965853825515373
Mg 15.067282121204716 10.915335776770961 9.773029024381918
Mg 8.315970601280606 11.305529486050103 10.684875489206888
Mg 8.921029805337637 14.19408529054753 10.8985643167689
Mg 13.457685981664468 16.206579291255153 12.277975702501866
Mg 11.7643561088886 12.225348267736305 11.47548638919665
Mg 13.24578621866564 9.168203122664673 11.418383199340493
Mg 10.902046779643035 14.989767779730105 13.060494061392031
Mg 14.91050160711881 11.320955660749844 12.736931996459012
Mg 15.124593895729538 14.282998300295937 13.985493219902375
Mg 10.37673698069803 9.55549126930167 12.562189314665785
Mg 9.300091899050996 12.440277829601651 13.352113690731974
Mg 12.748799571738617 16.003141708752853 15.26749398315845
Mg 12.593377140348457 12.70295979140302 14.223801487245458
Mg 12.925946444527018 9.620811429053262 14.396883175179301
Mg 15.133157707245052 11.660001267458448 15.738287204870582
Mg 10.285130831220084 10.661799297615097 15.472478880091442
Mg 13.865031918397632 14.04838414899462 17.03798423630617
Mg 10.756938707950503 13.773877885696262 16.18937810598562
Mg 12.641922765395899 11.295460212043897 17.15995878096204
