38
Energy = -35.11574911 eV
Mg 18.132226410077042 12.087890014584188 10.573143218227717
Mg 12.437677529739977 8.935737816084684 15.445578549315192
Mg 14.008978758692368 9.749411673130785 12.51366494727047
Mg 18.761357961477955 14.961964877520089 10.883037129417477
Mg 15.375147137054917 9.257353583577135 15.254648261284206
Mg 15.498643797592697 10.767858150232842 9.94399379792455
Mg 16.818137447410958 10.669701905657465 12.88257481281838
Mg 15.993285579823567 13.841949010740365 9.410109708910886
Mg 17.443868479599043 13.621961517787733 13.233311984357186
Mg 11.181532187260299 8.811299188053054 12.613691783940824
Mg 12.641238619039969 9.580712788458872 9.76412456214961
Mg 9.51578786524256 9.45305629815824 15.128968848682403
Mg 13.852604794896298 10.601600391414074 17.545627246998833
Mg 13.12922168499084 12.567981637157057 9.141873626578306
Mg 12.728648845287283 11.864144011663576 14.378056739636012
Mg 16.015102446546177 15.877121841027805 11.778901097091936
Mg 14.565457724806198 12.867093414937978 12.03150181836882
Mg 15.643253313353746 12.158984697241138 15.38295522065727
Mg 9.814440540344647 8.511864875661825 9.915546106246486
Mg 11.399624720074117 11.696155130262033 11.639697369386997
Mg 14.773041934350797 14.81982498515467 14.44198724757918
Mg 13.474103735658717 15.422305868202216 10.27925456169578
Mg 7.425242453482514 10.173974994047024 9.582823632687742
Mg 11.033732171714993 11.464822292027879 16.91045563633905
Mg 8.310592325822894 9.813194383455352 12.370278940488213
Mg 10.225937783743001 11.368596844428886 8.856226114489006
Mg 12.072558930233658 14.461945148700716 12.946235945996971
Mg 13.29247663417658 13.527869974182822 16.972786965908952
Mg 13.50574655771781 17.249919574780805 12.906223339472655
Mg 9.540811325628052 12.228253796961127 14.009720679867211
Mg 10.652043506226992 14.25246257118168 10.0501742942704
Mg 12.769263853622208 16.395111101383616 15.985263317102707
Mg 10.55997568056075 14.447317598924927 15.68729672974972
Mg 8.35904073913755 12.575077625942015 11.074675719145116
Mg 10.972237431310285 16.99285241430837 11.308630581250172
Mg 9.108601265818793 15.002085990060321 12.736813635924126
Mg 12.950233096783892 19.33282537809704 15.191960208865224
Mg 10.572384021466515 17.290992694424148 14.209698737547306
