33
Energy = -29.12765244 eV
Mg 6.998302504809508 12.898222167310694 11.935533054407179
Mg 14.6831821552651 10.202687770037587 15.89212582838763
Mg 15.706879245891598 11.522796858530958 9.981523229685763
Mg 6.096809888345918 10.305104426256472 13.324240742233961
Mg 10.470177970183896 9.226619800071937 12.715075115950993
Mg 15.805360871779815 12.904671541251222 15.49271859949805
Mg 15.334280547806411 8.663369607057632 11.132848561900902
Mg 11.360513472308769 15.060019566020593 12.837128824523946
Mg 8.74132735203295 15.199961440354604 11.163493085955066
Mg 8.531478525406888 11.637891358754544 6.072362649783775
Mg 11.389397549658062 10.095850913476108 15.495770424331416
Mg 11.540245571571326 10.495115067010858 6.472613808669791
Mg 8.148335337897679 10.267163183307916 11.028756928869385
Mg 12.982204795739811 10.73974734409644 11.222891548596976
Mg 8.64468415160663 9.350046569636785 7.848622646963271
Mg 13.329482896437066 12.512680994827226 8.483006299588505
Mg 8.50495406269887 14.42838021511318 14.040118246363894
Mg 13.485812200176051 8.735419919860204 13.546808975976935
Mg 10.733027431211278 13.36272905984045 7.095202697804144
Mg 9.492870967214113 7.693394679108465 10.326184653423871
Mg 10.351789945169118 12.296646723456565 12.025770133586509
Mg 12.992246914052329 11.994595513896309 13.85881181663752
Mg 11.33981499888607 7.862778490544702 7.93474216883021
Mg 10.875855895327089 13.272996274854526 15.418276795185795
Mg 12.448347785159974 7.737497303134098 10.769611004875603
Mg 13.88860009173716 13.646549201208023 11.447289516632598
Mg 15.750387433765868 10.963988096818511 13.01825877749669
Mg 11.327958765135845 14.244126443288266 9.869275451701396
Mg 8.498627706638445 12.834390169168918 9.170617908602734
Mg 13.731617061347155 14.805225753037908 14.624643110152864
Mg 8.726867900957311 11.30043653317608 14.382591487058313
Mg 10.77708780190713 10.775872483936231 9.411236683916808
Mg 13.837562648837473 9.4891169785195 8.487941669369391
