34
Energy = -30.50685206 eV
Mg 14.973772202332777 7.579000609494539 14.693373391177248
Mg 14.884691308160912 10.523098883204678 14.449521119164679
Mg 13.017318504414355 9.1132557502827 16.530588066034756
Mg 14.931714343349531 8.565494292473097 11.893359743203224
Mg 12.267377781301441 8.128717318058113 13.64613600041482
Mg 14.890823781072903 11.539151213804258 11.47899151177572
Mg 14.391006827891825 13.390764076871907 13.984096768430943
Mg 12.576078726883312 12.051737243395442 16.24679119944697
Mg 14.679173924100768 9.834508714762679 8.932409491719465
Mg 12.155930293762747 11.153756210786586 13.235677616137304
Mg 13.105265628481039 15.007152215912797 16.311351749281247
Mg 10.32954899714374 9.969065914573687 15.564556911903349
Mg 12.248668297652141 9.13045380118336 10.668120421551743
Mg 15.683429790583709 12.710712478490532 8.82238149115421
Mg 15.529007593193015 14.519544596748299 11.315928107357973
Mg 9.71518160951897 9.115887324894 12.548799549411642
Mg 12.540102434843249 13.668609056400275 11.482544466565788
Mg 9.457794527247376 8.967604196126915 9.453126592964937
Mg 10.30857331589479 11.641372142633099 10.805671817509346
Mg 11.183178992707967 14.153802781409047 14.22854109482623
Mg 13.409296021009322 16.22197454194697 13.474468927554797
Mg 14.307810046063432 17.23862022470343 10.901184167571081
Mg 9.0658619854291 12.180702224965481 13.60657331935239
Mg 7.492153019691147 9.875321492703769 14.588786356116758
Mg 13.603491952764289 15.01913459601628 8.975401159169996
Mg 7.050460042105116 10.591569492826586 8.680358482043319
Mg 12.693129896986148 12.072953877916342 8.738475400320391
Mg 11.955561866816003 9.30396961595973 7.677020785566178
Mg 9.226822253111159 14.760542491951572 11.943908141086892
Mg 11.435245197231632 16.578981680526702 11.17743862260873
Mg 7.241096132433041 10.607379690373039 11.587904636659989
Mg 9.791669685436057 11.535712476358347 7.808872103345142
Mg 10.498856875169947 14.329364637926725 9.183017927667095
Mg 7.691580316544677 13.1622986805272 9.986050875719085
