31
Energy = -27.0682908 eV
Mg 12.033749605954606 9.146867335448338 15.984699297284228
Mg 13.49021610050827 9.50084999450291 13.44569754171811
Mg 15.267371194484276 15.385444309554321 14.612221540846862
Mg 13.265733956037964 14.316150901085237 16.703453359564328
Mg 13.739599061359005 19.115895526175464 16.939497023618852
Mg 9.727327665472634 12.917063860945964 13.403459952812506
Mg 14.31161232357796 19.436904707246214 13.976516075577912
Mg 12.181318491656835 11.82899899390772 11.893297885359411
Mg 14.265163049389747 13.923048437244594 11.02640506762503
Mg 16.831001825705997 13.17311430890525 12.472309995852944
Mg 15.053688447427787 11.079425936826606 11.383678089247866
Mg 17.77203621635241 15.738803550703231 16.868586866008783
Mg 12.677650862308289 17.09476410477032 14.860169654236929
Mg 14.38793774107333 12.293743194494622 14.480461316266778
Mg 16.548255392425148 15.867971034554657 11.135980339945391
Mg 13.955030322137665 16.919589538740713 12.117348014742698
Mg 16.40375134742095 18.115674412206683 15.57828629254465
Mg 13.824553546294721 11.271015015584938 17.4676899125107
Mg 18.135982482681975 15.919879980387659 13.860017244578026
Mg 15.029948895346813 16.519005011921003 17.83914479662556
Mg 10.392349170945947 10.074505118709284 13.608371982031121
Mg 12.439061746058158 14.442038999168869 13.428980014821299
Mg 10.496714562214889 15.024299646528297 15.686722434665347
Mg 11.978153029743705 16.936638797336734 17.784315067090017
Mg 16.65220535033726 18.35442299022169 12.616262466314248
Mg 16.627910250512663 10.3670073046517 13.880469907135877
Mg 14.928359161180396 8.802302756783705 15.962557198041933
Mg 16.71937195997099 10.826880757009672 16.998269491508076
Mg 15.989779449988653 13.595192799933438 17.901138438318007
Mg 11.51940717992637 12.07609126671344 15.671694809651488
Mg 17.60598447558913 13.205225587937448 15.358008557118483
