37
Energy = -34.62466989 eV
Mg 16.243266140923513 13.213917541016698 12.353887461715185
Mg 14.702881132908322 10.626342897926095 13.914655358498296
Mg 15.708600876188365 9.876691685116336 11.223551801166394
Mg 13.91210664664545 13.502471414525075 14.549155830715877
Mg 13.286216166339804 11.248005259790569 16.614064156361323
Mg 14.520902631118929 7.675015244334741 13.08523057134977
Mg 16.260262457841055 12.175562629267686 9.36333305343914
Mg 12.544221581706521 8.551563808464913 15.127199034400277
Mg 15.32083437292606 14.937035297778346 9.799923640526192
Mg 14.005583541388523 15.594942751886165 12.386878566760938
Mg 13.838490776659745 7.443706759451015 10.217730600901369
Mg 13.721623403378736 12.374260728731908 11.376548401279472
Mg 12.004377601574074 15.969199228082612 14.787378367987108
Mg 11.767211564658895 11.308480850904672 13.948601902104704
Mg 11.080154116253071 13.447951717889941 16.05129719079236
Mg 11.62703003501702 6.945199732787566 12.579367181086994
Mg 12.29916278563308 9.709180923285407 11.600701076812888
Mg 10.448305638698201 10.35921936704928 16.5936014544367
Mg 11.375496680903625 11.955379115589576 9.79293454238588
Mg 13.922566926019071 10.259892829031996 8.818647506598873
Mg 13.563004704716855 13.179842098561123 7.977882312830131
Mg 11.048500270945548 16.792111540495114 12.094220981928832
Mg 9.710618089721207 9.052570199359788 13.859584270238818
Mg 11.446206453683152 8.625700328096826 8.735710316798782
Mg 12.230104626136212 15.092806618712746 9.839215831740326
Mg 9.11069672116753 14.965001260194128 13.97029186410449
Mg 9.567791376158494 11.415813685372 11.85929070342689
Mg 11.430366045628249 13.763922406046461 12.550722412299313
Mg 8.741161356643666 11.979535045399938 14.675743585320538
Mg 9.390995327610458 8.41950513858155 10.938153757767825
Mg 11.569382576311574 11.040972858306516 6.905855578431887
Mg 10.113731667485421 13.654978866006557 7.803510298516406
Mg 9.33433565773149 14.622849071152512 10.64669919362606
Mg 6.9761131659552325 10.378835610352473 10.933963968490374
Mg 7.17341575079926 13.225341242785795 12.312866329542873
Mg 8.980250580651054 10.382112595840619 8.577315014242847
Mg 7.416114500922641 12.833357208278212 9.24147849312252
