32
Energy = -28.07922278 eV
Mg 12.928038333779456 9.122262584228533 18.351455352231785
Mg 12.43003935229345 14.808095326958213 15.725680305216656
Mg 13.002377776147224 12.812794687532653 12.869868186148492
Mg 15.030568252279544 11.146724794618397 18.33402673844248
Mg 12.38439504128722 9.939418406506206 13.425603735629153
Mg 11.032224610118794 16.310034053358898 10.730768202892671
Mg 10.511616806011158 14.562858746539389 13.05286383252992
Mg 11.155182299961222 9.49408781317407 16.023220191930275
Mg 14.3346343003646 18.73587664622288 12.662556878744212
Mg 16.413482113681116 16.52858185502954 11.743727777778712
Mg 18.23392074728331 16.054215812557775 16.5731062519343
Mg 13.732077151734218 12.097316140364274 15.714682011535015
Mg 10.596219482982521 12.174417575933889 14.819552122559767
Mg 15.325764210316855 10.899844811623595 13.155518756203412
Mg 13.757157808788728 13.90099260052042 18.410634283700336
Mg 11.578371196484722 11.952212394362428 17.758097984323303
Mg 17.985712559187746 12.291244951115056 13.21442017007567
Mg 15.65127045684882 14.21965599117403 14.723716186315656
Mg 16.326402899038776 17.422399977506608 14.679011288168228
Mg 19.065520764397203 13.422296509347802 15.744792816373067
Mg 11.91169069766174 19.201556613024543 11.024680456638288
Mg 13.036746763754637 14.186034170452182 10.194389189362834
Mg 16.806553827298483 11.297877417611845 15.793968820277792
Mg 11.132502495716317 17.535776591000754 13.481905732953448
Mg 14.357401705553645 9.18549568178715 15.668472823690776
Mg 15.728758869847008 13.563764288955369 11.662955551005568
Mg 13.896888308678378 17.06714864351296 10.120149230137677
Mg 18.429017448825697 15.29244055728821 13.526250799165622
Mg 13.418916843610596 17.78667720789038 15.444144588391946
Mg 13.602658894293194 15.776181619613636 12.992179399132533
Mg 16.722628047014624 13.648553267521486 17.79731355763156
Mg 15.138278680462639 16.180590514117057 17.172531422759263
