31
Energy = -27.36709964 eV
Mg 15.218944363191321 10.175875538487665 8.160480506111814
Mg 15.566144476946983 18.94799495635286 17.020418593846504
Mg 19.604194335822555 16.95022008867138 13.777942044566661
Mg 14.281651268932936 12.115620697663573 10.318069123417787
Mg 15.067325571058491 12.026097063787658 18.055634206764474
Mg 14.492615879064102 14.810014607040825 16.88364945622425
Mg 11.636494005539978 15.561583634624546 18.235873248433894
Mg 14.288392896271148 16.856071542846554 19.129622079139892
Mg 15.22117879380799 17.879591099854167 11.568859254639396
Mg 16.40190572870922 16.526885714567516 15.07827208909081
Mg 14.632144856889846 14.971786688025366 10.979060140604096
Mg 16.624950311762525 11.564674197257506 15.172370457649206
Mg 12.052845705617282 12.66225689717279 17.825706473570023
Mg 17.388427862510213 15.872846552077982 12.06567285745458
Mg 13.419541331502867 16.249293030010822 13.478830851016268
Mg 19.516918410635625 15.832280263907947 16.42084434402918
Mg 18.556228313902032 14.036002885306518 14.148612578851248
Mg 14.522907634972972 18.994576990702196 14.229058453447523
Mg 17.38769258193205 13.82624586866319 16.90816882659551
Mg 17.42576629652843 18.97646890860582 13.279971159820473
Mg 13.36077201407019 13.994037758479351 20.08217595690353
Mg 16.958377216496565 12.688627923204377 11.769415918038355
Mg 12.619296577669097 13.153729847526652 12.686196723851584
Mg 14.760488898447042 10.817186781943253 12.85736542568036
Mg 16.191747902669416 14.32350033322855 19.69389855152172
Mg 15.337663635112799 13.973079024767662 14.044314040829047
Mg 18.539664682088677 18.75071973195189 16.054887727528023
Mg 17.248098359502787 16.707504444362957 18.09885272496458
Mg 13.046472816035443 17.408106198875206 16.25027290493686
Mg 13.426322368929624 11.681292454351215 15.401931808751375
Mg 11.859538606067884 14.46009429528218 15.362348768077613
