34
Energy = -30.27890092 eV
Mg 15.24781337824696 9.506294279264354 14.42552183057148
Mg 8.42125706444789 10.501051339541524 12.65226543115814
Mg 8.557452045231258 10.647771276511305 7.493533035587753
Mg 13.019506836217426 14.895923110273712 13.942683743036433
Mg 13.778464889708186 7.725118005972613 7.247702887906794
Mg 12.680166768789904 7.913996958918314 14.34051786258809
Mg 14.484388480208755 12.368813912712689 14.537766369368407
Mg 15.6283139426559 9.556803972788135 8.929232362688094
Mg 7.544096137959957 13.271207253615444 11.77739786876959
Mg 13.71484051926333 13.080963703004512 11.525787721551248
Mg 11.126701825851905 9.22215104967341 7.5041774392577505
Mg 11.586892348727059 12.68210269540451 15.618726567047933
Mg 11.148482173080957 12.283544381251476 7.530830195323239
Mg 13.674999675202745 10.714301965371826 6.721678489101539
Mg 14.323269710844352 8.654199477983948 11.754988792508236
Mg 13.024242985165824 10.154455395232326 16.303382646639044
Mg 10.910547282145636 16.492484881990546 12.486984552436367
Mg 10.295933656407232 15.37480021917182 15.343061559535625
Mg 10.518897229697096 8.402454969319365 12.309724473915953
Mg 11.453467694163967 14.37568303403725 9.844994581208178
Mg 12.918546669733399 10.539312101182043 9.845156063174105
Mg 12.025299861321423 7.473096831505287 9.887676684896615
Mg 7.02555400702553 10.96573723744027 9.987835928893093
Mg 10.232786442501906 9.973533925686715 15.040044424831594
Mg 9.017507000991582 8.61373233306572 9.745716445624872
Mg 8.796637147502741 15.792673493363484 10.589007529240858
Mg 10.612934595888488 13.399422209227811 12.612654035696345
Mg 10.215204201711103 11.406542416104298 10.421558020204198
Mg 15.068118911170139 6.636685098552333 9.657018387331412
Mg 12.302104534528729 10.820886423141392 12.888362855282516
Mg 8.571173293671713 13.4399195758558 8.775616027820583
Mg 13.944067366985744 13.113819467380027 8.557119556511775
Mg 8.603491395189172 12.829709582184574 14.774911497352512
Mg 8.082404482372825 15.726371977881493 13.481928687549473
