32
Energy = -28.52939021 eV
Mg 18.76021843019278 13.358499157411828 19.88365056318521
Mg 13.22832086777924 13.75191952946859 17.945508346999215
Mg 15.119593837622938 16.524937780804283 14.562809827591565
Mg 14.50743310410883 16.109983608375494 19.454466177618993
Mg 16.03530567804899 12.46152179485387 12.291185614318449
Mg 16.226409179310256 14.777504993222607 17.05887859130634
Mg 14.905447792569406 11.316492138706607 17.592187010720345
Mg 17.772797943624585 12.036600786501047 17.31640948083249
Mg 10.540558520483991 13.020616359210415 10.315732860635478
Mg 11.61661461073668 14.511685381705176 15.312232040867881
Mg 11.515335500670814 17.677042015440655 11.076967946906386
Mg 13.131053542431015 16.642311022432075 16.83628077736182
Mg 15.391519275188301 14.492528778195265 10.073645271797066
Mg 16.97060893988251 15.41045075498052 12.454298629997366
Mg 17.876846204913804 13.516293697665306 14.63481738289789
Mg 13.437774569688813 12.208065231650187 10.627543563032244
Mg 12.479490209452749 15.166476941898544 9.755775876723277
Mg 16.422447144474294 10.839323763695244 14.97456744698622
Mg 12.261777064502686 17.216145982978894 13.949721322809363
Mg 18.077098232583882 16.57189220628984 15.0745605078612
Mg 19.034455855007714 17.658493950078302 17.70509030044234
Mg 13.460360949397328 14.481703049440274 12.684530253509953
Mg 14.437476631248124 17.076898541054987 11.512396923702218
Mg 16.050241482511424 17.77427509964038 17.329533008353692
Mg 12.291354003884605 11.5673197910161 15.86266346972278
Mg 10.465921239535792 15.193499806724068 12.430805612025562
Mg 11.225846949472139 12.315780088316474 13.206161505541695
Mg 15.737254881168122 13.320966745736069 19.709013767429052
Mg 17.49951190151286 16.02108033242455 19.69016491638236
Mg 13.772944276937064 10.794205124754031 13.287131576593787
Mg 19.310124560080055 14.697232820963452 17.216481779174128
Mg 14.665184565099754 13.412885490373977 15.070669786590912
