36
Energy = -33.81276401 eV
Mg 13.32991306707854 10.79753819512337 11.83406135406453
Mg 13.37843273318882 7.43117671828011 12.284629430786314
Mg 13.109292292301339 12.648606697792813 14.321631434430097
Mg 13.80239995252231 11.913867326140906 8.853457341005175
Mg 13.936519471175659 8.746121526455433 9.579787059203664
Mg 16.163644536820595 10.552872604156981 10.191484761000273
Mg 14.311246554923441 13.39349978409619 17.52053211226327
Mg 16.84314601196708 14.973240402990267 12.12861235642254
Mg 11.177064994312586 7.8380074954235015 10.302386863091062
Mg 16.248778662255322 13.564031091446829 9.569579591083597
Mg 10.769206169917577 9.426169740662655 12.819415372251683
Mg 10.542054744416115 11.186726697363143 15.25572677065888
Mg 13.807381280482534 14.945954826994843 8.336941350392692
Mg 11.282115447588282 13.683246737118683 16.767041168712066
Mg 15.310001899553395 16.617115020812783 10.142332620178115
Mg 11.291727315759942 13.803088990449249 9.39134339329015
Mg 11.16375646160369 10.768843552681668 9.640137422660514
Mg 13.696353706079046 13.797133720561334 11.466519743702124
Mg 8.586312628372363 12.665704318564265 10.13589510140892
Mg 8.556666355988 9.63033513426227 10.68729946194155
Mg 6.03061480165733 11.30853467919791 11.241876761063894
Mg 14.349595388705056 16.396172112508193 13.057540340521358
Mg 12.263860048508949 16.458727147403188 10.61317926950537
Mg 15.672860449189919 9.137336088112164 13.029890755658931
Mg 9.402827624721914 15.330976665966274 11.468528461070754
Mg 16.01133352088992 12.117250707992856 12.709811701419653
Mg 10.84841647902604 12.552620760901174 12.240004004706089
Mg 6.914065392660562 13.965015765083399 12.403338956529689
Mg 8.24421292938759 11.291369914022331 13.290829551305915
Mg 15.717427512662612 14.21178295759049 14.867325225975302
Mg 11.610920378377429 15.289176519042702 13.464726620742383
Mg 12.806864881618111 10.982007861425656 17.216704413650163
Mg 9.11716574205502 13.974004796923497 14.507300968679376
Mg 13.104484799706695 9.332629722514234 14.71195928991469
Mg 15.438841849560081 11.084048313747235 15.63817235765381
Mg 13.305453610519713 15.684003742299693 15.888012021442124
