36
Energy = -32.77537569 eV
Mg 12.575253018192305 17.48687652834377 15.45346943964387
Mg 10.21492647493577 16.704107295177597 10.155950806147148
Mg 11.09104425602349 17.573200901292523 12.919468911027758
Mg 11.227992563352016 14.792531350077224 15.338154003161067
Mg 8.74347473408471 14.13177227017021 9.631090174546506
Mg 14.245651724918895 14.855822953432614 15.194910316900415
Mg 14.233855942717712 17.153681560073704 13.03466967493186
Mg 9.769042017169 14.6095791147065 12.522600703488175
Mg 12.550295710869646 15.206998210627235 11.33848702026634
Mg 11.51790718656923 14.586580632882123 8.45291260359986
Mg 12.426030353287308 12.709310818213067 13.378820922654755
Mg 9.34072225165023 12.462612300208926 14.651742859546621
Mg 10.321079468557315 12.63812636567518 17.46871156988547
Mg 7.076221695499254 11.630220324216127 9.10763085826639
Mg 8.061997701909732 12.06983812840059 11.92591991249234
Mg 11.069943517754748 12.304455574840482 10.623048408760566
Mg 9.828719884006867 11.928650577775054 7.838655385673365
Mg 13.033833719106717 12.275192608151865 16.442108231944527
Mg 14.002170086234 13.036796272840734 9.882937893578962
Mg 10.40025114204379 10.21665260450306 12.952735089983824
Mg 15.254700630056274 14.256303923073045 12.416700288242598
Mg 9.042172910214333 9.72381868251534 10.228048764930092
Mg 10.612932352178493 9.977281472125874 16.095608457906508
Mg 12.79421782196938 12.133178945772233 7.3618553929042605
Mg 13.331243719286395 9.753591380613647 14.754736560186263
Mg 14.819646023256936 10.344060236609648 8.755705438033479
Mg 15.337318653249097 12.056012208889967 14.428371733166522
Mg 11.215249539949765 7.611499665878109 14.336472568398026
Mg 13.318302123574002 10.336376656552606 11.596042526138007
Mg 16.273054810400975 11.48010158639757 11.393368739537166
Mg 11.182522207161277 7.776956315583125 11.209465297459758
Mg 11.748714131986189 9.716341184278214 8.844464890401545
Mg 15.966626157516776 9.297648778277061 13.5541650415174
Mg 13.822734613889706 7.451944548081893 12.638992912491917
Mg 16.20062334120072 8.518342028178322 10.702213291952043
Mg 13.649843186499169 7.483293239010869 9.56989965556987
