40
Energy = -37.87199167 eV
Mg 7.590636949679836 10.111470502814113 12.827375257730719
Mg 9.708164842055474 8.71696563006243 14.621111305537516
Mg 8.414321676327889 7.907520526867268 11.03063607105917
Mg 8.82342743974596 10.668524406064169 9.697408415955511
Mg 8.942182768009515 11.64665185519702 15.191282550682978
Mg 9.907091642178141 14.488786493914551 14.214313809655769
Mg 9.041609769926206 12.611817467757557 12.048035910997028
Mg 9.820834687956765 13.60106012465216 9.103313148838579
Mg 12.758079872201316 8.913734945385693 14.04334179304822
Mg 8.836737942736004 15.505713699832919 11.337857004525057
Mg 11.034439985764108 7.11202143724115 12.145116904804075
Mg 10.66889615393745 10.04117889263098 12.091956540941528
Mg 10.847682871063249 8.411147089217627 9.20864480598841
Mg 11.182446972574994 11.008240644375595 7.239935150890329
Mg 12.005462461434158 13.435822813358703 16.605776165096824
Mg 10.896947118166192 16.445579702489127 9.45403524101654
Mg 11.506424194719925 16.52777844230358 15.766296318622711
Mg 11.608414274180793 12.022311205623202 13.970206977184427
Mg 11.417721879999725 10.312213412093008 16.554938439938955
Mg 11.949470248104143 11.548188281604912 9.970317393404155
Mg 12.796793914940617 14.1942881822057 8.621963708726115
Mg 13.497359718227832 9.14650813553126 7.929891579397724
Mg 13.889092383021275 11.593069902516449 12.209837490026885
Mg 11.773407094869038 13.994723384805935 11.61209991759231
Mg 13.344689213388305 8.829890196351377 11.0278585837841
Mg 14.234174211210018 11.0520475287204 15.386643219550871
Mg 11.172996420275046 16.83165059734862 12.719272278392115
Mg 15.201392070152158 13.40920940412002 16.833381212574643
Mg 13.94588842756046 16.037049947116188 17.153753624557503
Mg 13.528638748932654 14.431222797781528 13.969053913333461
Mg 14.759893214463476 11.781813465329634 8.785780094494008
Mg 14.98803139607597 13.945282102382786 10.813782647426802
Mg 16.0261453251954 9.255749095533504 9.83977445925347
Mg 14.07644873913523 17.494074849717517 14.346836666923087
Mg 13.553182311422246 16.468482012293308 10.954325776617548
Mg 15.762924026468479 9.489930640071849 12.992811458949152
Mg 16.403329302882415 15.73303524815526 15.496661520936017
Mg 16.27837600609141 12.94819442368992 13.85755179456048
Mg 16.120635233232957 16.030311140404248 12.6409612699116
Mg 16.94991135877021 11.681001380587684 11.14771298300803
