46
Energy = -45.02523727 eV
Mg 7.3002083857584195 12.34252499549499 11.23616114477128
Mg 8.428698169642312 12.899748056246423 8.460963864279982
Mg 7.902708834543965 10.40026216030774 13.553012591529185
Mg 8.7780274731164 10.167196530676714 9.871348687504726
Mg 9.089642132276682 11.581135324630573 16.29511276076903
Mg 9.349668874786992 14.547063322789834 11.221078834900792
Mg 8.65767605129731 13.302421196326186 13.882378744325141
Mg 11.454331421560605 8.70689035175635 10.02384819283283
Mg 9.547740629473731 8.204689494386686 12.219519920173518
Mg 10.01671527962522 15.55183747645552 8.5368114835472
Mg 10.154662100438244 14.456026196384832 16.59905630612617
Mg 11.1240864178726 13.398462712591188 6.845050874910366
Mg 11.165630290968743 12.591812085476745 9.71905850598322
Mg 10.36121569964546 9.340382276899774 14.912344023984405
Mg 10.673704383002256 15.589788352975683 13.746252878111237
Mg 10.951305907944626 10.49803724309654 7.577548621914292
Mg 10.539624494042014 11.232573480383715 12.232916404265731
Mg 11.657292844195185 12.476595436004908 14.669361168776875
Mg 11.526155178891058 16.75923177153381 10.932144339025099
Mg 14.319247318137329 7.765884615357724 10.553850784661405
Mg 13.711408480794905 9.187264597962091 8.00718699680902
Mg 11.83910569358078 12.178097849748157 17.737288650265914
Mg 12.587202171806751 13.831630307211649 11.987106872816584
Mg 12.688078384342601 8.916321666832959 13.029442586099293
Mg 13.069214139162924 9.979985422094215 15.944883337051415
Mg 13.378275845679587 10.990305738806754 10.907722099778379
Mg 11.455884882320888 17.105112894896955 16.2690028244816
Mg 13.021975996933367 14.984042014507358 8.911358384775422
Mg 16.03788537499373 10.269680463807118 9.636853685799668
Mg 12.861740231404758 17.747881754326876 13.577075082616107
Mg 13.594224055911349 14.87760163662854 14.616379603095666
Mg 13.130525674030222 14.945782151626508 17.674444553384927
Mg 13.767302167150863 12.133291046659892 7.957863502215517
Mg 14.490495329964212 11.880273398576659 13.609004861908717
Mg 14.728768638042672 12.432093235105931 16.81822276841889
Mg 14.494187611640047 16.296482643081703 11.357434343232587
Mg 15.794744225005928 9.167817063962724 12.663496727117678
Mg 16.028518544182134 9.826736139062648 15.708609853431204
Mg 15.293846481370695 13.397856175538044 10.301276558116648
Mg 14.326979777686907 17.57140737636303 16.471062985300453
Mg 15.841932078381895 17.20429122076741 14.001418997689912
Mg 16.13462286851737 15.134470741887853 16.235950250567075
Mg 16.307617182808215 14.468005791366899 13.017165242411377
Mg 17.38133205081017 12.569527437896683 15.123027418471336
Mg 18.47021499914966 9.979085544304008 14.071944709003331
Mg 17.269539616608967 11.800818369448475 12.000398393186238
