48
Energy = -46.79025031 eV
Mg 10.705236278305502 8.753182039542965 15.25196567984132
Mg 12.724742601549863 10.268248734159673 17.12881516131407
Mg 9.528730755139204 14.552322898579778 17.390566415729666
Mg 10.091697066933108 11.59875130639013 16.368892135464847
Mg 16.21377125872295 10.32340705366146 16.362330153375687
Mg 7.796421346382185 13.300890354675962 15.315914436805675
Mg 12.159093959127711 13.265066846589619 18.00235874680834
Mg 11.842954176087522 6.907420908964828 13.270964424806387
Mg 9.939247476775208 8.800775576938712 11.999340854682389
Mg 8.505383500950321 10.556210447043558 13.951096299683343
Mg 11.769700943994458 16.36522757847819 16.62388353888474
Mg 13.876383186804022 8.9935344366469 14.45315796814017
Mg 11.684695501946402 11.092625953249241 13.524454276038261
Mg 9.328912739161526 16.06143252350402 14.79138816955326
Mg 14.901508195454486 12.187306264542194 18.36066274483102
Mg 11.689814520066214 13.860713233947823 14.932280484645654
Mg 6.796899779492183 15.345571154099868 13.292560237373468
Mg 14.097294147258111 12.180229182625077 15.31705731868583
Mg 15.994176485889264 9.087788907268 10.709279549459003
Mg 16.909678559797776 13.583743225073105 16.695690100960437
Mg 12.97933271828749 8.95081796735765 11.42650060151285
Mg 16.794371037027993 9.312967418556868 13.604544206371639
Mg 8.184974296808447 11.26332151390086 10.850844413194078
Mg 6.325879411294169 12.400512500337499 12.812750378382168
Mg 9.56709599779351 13.323853417769302 12.79031188653481
Mg 17.203996906524647 12.295596337463913 14.168756724655502
Mg 14.630158389025901 11.431490688784347 12.436088765273594
Mg 7.000251581266415 14.165883297476086 10.58355771404713
Mg 11.176347210559575 11.220168160855026 10.401650741649004
Mg 17.633620934874845 11.569443432012054 11.38081164047613
Mg 14.346630632348035 15.018557708259134 16.936665908656174
Mg 14.013770595995268 10.97025047624188 9.31222789289601
Mg 12.517425806683116 13.662974332207348 11.913475247759463
Mg 12.018993177127419 16.423023051520364 13.353547633671585
Mg 9.803156932103004 13.88214731440291 9.745096040727264
Mg 9.168667761224498 16.232832076973654 11.688063721363097
Mg 14.868538379045878 14.633838911469315 13.893888342548575
Mg 16.908943140006496 10.980797611100934 8.525545189932473
Mg 15.24292918011878 13.69913702951114 10.509071976379735
Mg 17.621094741778172 14.660298571318837 12.324354963782973
Mg 12.573921798087461 13.592071487132833 8.723339747974341
Mg 11.806304437688343 16.222105272569742 10.180899982067078
Mg 14.553968360377041 16.523433317039412 11.589347240130417
Mg 17.994101631612576 13.786156243441328 9.250285979178683
Mg 15.362534037483554 13.29074162063736 7.4220167501732845
Mg 14.397339253687907 16.094500432856268 8.535159020190601
Mg 17.131327922683187 16.57757463691111 10.034100600273815
Mg 16.99241788991867 15.800673829135002 7.178701907678956
