49
Energy = -48.36715979 eV
Mg 16.998475841407448 16.735590655987586 11.063680750060643
Mg 18.285262946772896 14.205289128614508 12.430542848089999
Mg 16.930854378948787 16.330994358139137 14.022098509655944
Mg 17.236987719276836 13.65715958330246 15.43079312183776
Mg 16.182620894980317 15.945363337092035 16.987528773368673
Mg 15.776143449967105 13.268459041410647 18.31001982366386
Mg 13.422020018293308 15.304073389111641 18.00248418471687
Mg 13.329568808446588 15.235422202174977 11.461689248973736
Mg 13.29550551193386 13.23260403739721 20.248198189052136
Mg 17.649724961843113 11.30305253126297 13.562969247924945
Mg 17.720668024630047 11.939945475927788 10.64025674790612
Mg 15.9035794100141 14.235903447726823 10.033006335621147
Mg 14.030824134848226 15.708805884052843 14.774133792229206
Mg 15.266461933600901 13.342507847361043 13.05184828472209
Mg 16.13085596375088 10.945290649831382 16.237654773692245
Mg 12.259002486820958 18.250529219148635 10.78606570354669
Mg 11.081963102049068 15.290349943302669 16.081061552032928
Mg 13.827833497204544 12.94998502739121 15.995564962841458
Mg 13.653928086853327 10.926540260449546 18.453572778485995
Mg 11.561944395715923 16.83371394582853 13.36284411950483
Mg 15.305080845201044 11.570519440567736 8.786317013102181
Mg 14.580588723921213 16.924479760680033 9.220760168600718
Mg 14.68026081960064 17.821785207950885 12.471495162221425
Mg 11.258190065670368 13.005897717530058 18.0297595824299
Mg 13.431210077710745 13.90450284194743 8.3467808987677
Mg 16.19853418835818 8.668224131199336 14.218192620099103
Mg 13.960613408364834 8.75940914998935 16.486339078823107
Mg 11.472442735794893 16.083060265252342 8.97245277545148
Mg 11.532738229880493 10.63547833222496 16.14042749733417
Mg 15.496295018701092 10.145625673083865 11.47829471019533
Mg 13.755971511137442 10.718291817476771 13.890651943539652
Mg 9.394862335297617 12.70300632071182 15.527801783302266
Mg 11.980504987862174 13.508230323561397 13.754390628699245
Mg 13.017315483214077 12.23704008675195 11.134263603974949
Mg 9.015536038032652 15.200773503198294 13.821549977434318
Mg 10.393285120536124 14.053498972828098 11.209128740574986
Mg 12.342892002225275 10.919180354776906 8.426781921600599
Mg 9.437797524628124 17.06425222876096 11.288172989254585
Mg 10.373262153506124 13.213506394031898 8.248278567900789
Mg 14.196156980850724 6.304684713809429 14.878809392399598
Mg 8.454808311204651 15.527173807316675 8.922477345816649
Mg 14.351583001645006 7.445776963192915 12.215584247902653
Mg 11.952817765512423 8.194035273154658 14.108649445383406
Mg 10.580103752727274 10.847741252694192 13.230513373463397
Mg 12.300772847770096 9.280606412199507 11.143203625518188
Mg 8.072964283047513 12.461914943001217 12.681272672432934
Mg 7.067541563959061 15.073121955444796 11.49117648111563
Mg 9.934151290055143 11.012357224726838 10.30427890670667
Mg 7.588742479529329 12.784342452719445 9.690318172619108
