42
Energy = -39.95928243 eV
Mg 14.082971637116822 15.598004382031526 8.484248536904364
Mg 16.849957885189575 14.482615204990108 9.454889654621686
Mg 17.203946290215494 8.480403775907359 10.261123671227146
Mg 18.936426954868477 13.014865776083164 11.174182852280014
Mg 11.558558262098302 13.921317722484869 8.781561476456474
Mg 17.0922714063804 11.412696548830782 9.437324291704678
Mg 14.290076189336506 12.695873409610336 9.231544510237075
Mg 11.869677608690184 11.029938999081148 10.267006225134187
Mg 9.327530003597134 15.723630889849455 9.588292766056869
Mg 12.087956252227176 16.70973169388283 10.427527742111737
Mg 14.988933260014612 16.06286359684396 11.300769421961979
Mg 15.622218897553322 8.255872453178426 12.931463035583782
Mg 17.86616383004467 15.560780523810546 12.09325504715008
Mg 9.546673004143381 12.91705432064712 10.82275501220645
Mg 17.77020572087266 10.544865378098475 12.386151703614876
Mg 14.689360210251124 10.195302987849272 10.851077277676593
Mg 17.97483981686932 13.253082007726752 14.085445839750774
Mg 15.594045482894803 13.015020763218779 12.099210770357345
Mg 12.592150151490587 13.921781515948219 11.708052899387145
Mg 12.469950053535406 8.495957374661703 12.234312130112494
Mg 7.2727793385511035 14.862287463020035 11.65183497458547
Mg 15.797748685744256 10.96691865467223 14.559847346239037
Mg 10.05991616107795 15.882557978320191 12.541685568078647
Mg 12.918113174751888 16.642239361664927 13.50207845574513
Mg 10.53484231404712 13.058758751200466 13.846125110892503
Mg 9.92991913606404 10.240998868388683 12.494764203351407
Mg 13.007505402653504 11.272317635020737 13.238427789036562
Mg 15.984632405293498 13.486711916343955 16.413892974525382
Mg 13.609090776859357 8.627509012875898 15.039716057715282
Mg 7.523295111772892 12.175653945959867 12.972777016789346
Mg 13.360451382817264 13.757551208545213 14.798180788588477
Mg 15.82944517517282 15.631725911196646 14.255291562500059
Mg 10.780298092006248 15.78055990258473 15.502762012588729
Mg 13.683263267209595 11.198618373648786 16.633897241387952
Mg 7.975111144120383 14.75600110971172 14.591525795294636
Mg 8.495241053061832 11.859522073075064 15.831956337464032
Mg 11.03986046657251 10.116094914074326 15.362494929054746
Mg 13.757028633623271 16.24744606635065 16.51879047142385
Mg 13.73367462549269 13.7773149765287 18.273853830929376
Mg 8.770175202393158 14.506007963518737 17.466008364523006
Mg 11.158907847841167 12.774802825331935 17.0234743130497
Mg 11.412388923224908 15.598021968953335 18.458538963436855
