45
Energy = -43.42228815 eV
Mg 10.688131425169532 9.848140149449364 7.93096839394785
Mg 12.308488244730729 12.510024539315665 7.934171867064407
Mg 15.389292826952596 12.332713121451349 8.775322097819164
Mg 13.530370899809455 9.857388063052436 8.944522110295278
Mg 8.768985257539025 11.768379894064521 9.094470230613002
Mg 8.270129522964691 8.75564687288966 9.300829487825993
Mg 13.440824475017079 14.551715980851549 9.857023153991095
Mg 16.143883621356014 9.719418651185926 10.288487410570601
Mg 10.205532275532393 14.326565217854952 10.06844589649828
Mg 11.524789828382955 16.94245834302918 10.596018940061631
Mg 11.007839288189645 8.3692679451517 10.503533051061229
Mg 16.572044416432263 14.922924833993514 10.241604357130104
Mg 17.472785633573704 12.203475431179918 11.473696674037738
Mg 6.4849715577259746 10.431574670979948 11.002458557881422
Mg 11.63820087275583 11.696184972962245 10.719366959072124
Mg 14.37034224378726 12.090983099937558 11.600832172683624
Mg 14.391279999143807 17.044506453012463 11.389042060346295
Mg 13.522812692791108 9.198327219551995 11.969562333483143
Mg 7.37376626959499 13.437847299864032 11.14408689018201
Mg 18.544379442021597 14.658756355606789 12.730098506503404
Mg 9.323996080968005 10.535367310329061 11.994025340014991
Mg 12.37786326822411 14.274389559354756 12.721671721112061
Mg 15.356211027780573 14.578395043111184 12.933141127128229
Mg 9.37135638423206 16.151636588355426 12.459316247696616
Mg 8.23058254629078 7.843073822780919 12.118311146810976
Mg 7.06180217839611 11.763906243690242 13.744057151135095
Mg 9.630345610714913 13.284935475108494 13.007638948912973
Mg 17.21435938620033 17.169210003572207 12.484336873715009
Mg 11.021800579498631 8.240592061516631 13.590687529763036
Mg 12.00749214205586 17.339099058578206 13.593754905677928
Mg 11.738928736372456 11.28626151726045 13.759434607769126
Mg 14.333762306898173 12.276825574691687 14.597254663155722
Mg 13.751892194166713 9.055983241402505 14.96481984025282
Mg 14.899293960294312 17.83108248929696 14.263273538901494
Mg 10.564610056199243 15.128515501110646 15.189362103078395
Mg 16.152015382423507 10.110577040228291 13.348700409293643
Mg 17.380339856395995 12.574954515935879 14.627835730035036
Mg 8.642515232498367 9.465544906712463 14.897662002962038
Mg 16.871532331945552 15.662544214600585 15.252310065944666
Mg 13.682628604586474 15.37741946655684 15.464585354855577
Mg 9.34279387103882 12.236622107963376 15.840191722193971
Mg 11.344287775226455 9.914575747681658 16.546910211686075
Mg 12.164013894427999 12.932851181655568 16.608517065765902
Mg 15.610627540652835 13.497762151799414 17.054531165179533
Mg 14.237654477886702 10.76313228016527 17.334685594735415
