43
Energy = -41.63519277 eV
Mg 13.988252345149776 16.51264522346451 11.03351659060368
Mg 16.554246901925453 15.356149406772419 12.563415286367904
Mg 16.487898627104077 11.038487009715368 9.279424198923126
Mg 17.426540657750728 12.577803347366238 11.680745472656536
Mg 15.819851665698945 15.025255972100574 15.50803754395313
Mg 14.270933305580852 17.086423260847294 14.010430984566366
Mg 12.391140783808204 18.79896759961391 12.438893893104673
Mg 16.961327933763332 9.741489901956767 12.99130005278943
Mg 15.220062847628727 13.8879501964681 10.18698488764004
Mg 14.455820317293036 11.0842954357468 11.53810872328907
Mg 16.006799350554214 8.301893612931616 10.571253609012505
Mg 11.549512273830661 15.658832139724343 12.77559452968527
Mg 12.22318969026582 15.121585911465539 8.699147404996419
Mg 14.052425547617625 13.703277240608664 13.2936682771314
Mg 14.262976115952945 12.605890561544495 16.426131600068434
Mg 16.423832880970867 12.263245958880264 14.43050862810513
Mg 13.376249807398281 12.043542649224719 8.596573204971754
Mg 11.117589388522141 17.74393365781487 14.957252321379364
Mg 12.688560047445954 15.200094229279063 15.805787599563859
Mg 11.383572802884144 17.751697862127543 9.876367841099324
Mg 15.47738066628916 9.540817180737934 15.807915443550872
Mg 13.239361005880534 10.732884305242045 14.23291744248106
Mg 9.511569165422191 17.933877124137624 12.253766293874058
Mg 14.521479217101012 7.979776395561405 13.281368005208915
Mg 12.905415873034988 10.188882412162606 17.58852948060305
Mg 14.320142088407856 9.185632731150493 8.330634979157187
Mg 9.474229897428215 15.457505490545103 10.290873511557573
Mg 11.174161672338311 12.817657955760021 13.88580441523214
Mg 12.18967588003512 13.33626673607216 11.054089418870046
Mg 12.937942836375413 7.826837235580472 15.920790226087352
Mg 11.236694354881847 12.659727212635891 16.924254665366583
Mg 12.90624990077404 8.074482144156184 10.70610452154015
Mg 10.184748380137728 12.683583066358363 8.813777161146769
Mg 9.665320550561535 15.255421360674461 15.914964825373644
Mg 10.508528347937986 9.997658647848747 15.671062111373843
Mg 11.376588049467 9.787827096091656 8.631585809303264
Mg 11.397344098757719 8.158457325914133 13.385309392390717
Mg 8.37817771120604 15.348535794232093 13.26106992458385
Mg 9.012538318020505 12.858357950877263 11.720052733753308
Mg 8.865141062641108 10.205072049509878 13.209806323695018
Mg 8.387247072880623 12.683721622126406 14.945001496113877
Mg 11.424687080999774 10.604677092994972 11.643572255251197
Mg 8.787771808080109 10.325255096857635 10.111103380577823
