43
Energy = -41.68458358 eV
Mg 13.700254688625414 15.650241876030272 8.737340314216803
Mg 15.073774635960362 12.832300025224297 8.785742983056448
Mg 13.207719357521007 10.363243489491625 8.534898043511244
Mg 16.152743441794264 9.976458937087594 9.46102934916788
Mg 10.931311348580538 11.144455094788725 10.327709420877651
Mg 8.944265746461149 13.169708167383893 8.892187725687965
Mg 10.687304154807224 16.071288242339083 9.10614635299907
Mg 7.776837308487422 15.238828953836034 10.83641836609495
Mg 11.704000205361138 8.227960261220408 10.715600539147209
Mg 7.915909698289889 10.35601168562177 9.815247713185004
Mg 12.021789129510044 13.247171159060779 8.365373624272026
Mg 15.782693279637215 15.275255928690408 11.002395356588563
Mg 16.526828040681547 12.298040271190795 11.496357675374199
Mg 14.177725084593094 7.593356013262092 9.18437135741414
Mg 6.217932552299267 12.737925662707603 10.07669673919263
Mg 12.91850742487293 16.45105047960553 11.485515865087615
Mg 16.708475335204025 7.141282591803599 10.547559539572125
Mg 13.456682595365733 13.356074413697927 11.24861453633807
Mg 13.844885251271855 10.369235951901576 11.64745277296182
Mg 9.253568689339808 9.215944544039301 12.268824552774939
Mg 9.918127707064196 17.014128404400715 12.054360309616701
Mg 10.688812407340254 14.12233519114303 11.242480463806812
Mg 6.329230888637346 10.671663714699111 12.51045421384857
Mg 8.728865650909688 12.289414298277805 12.272351245805963
Mg 14.252009929817508 7.410664573056632 12.318630273655135
Mg 8.576852279114734 14.959390436911264 13.8690668929326
Mg 11.547990903566852 11.738893372126714 13.245993205528945
Mg 14.646426497769504 15.609561560343595 13.940673812466773
Mg 16.756266301566505 9.410169111724151 12.471735646212233
Mg 17.364015852091846 14.425212515845809 13.415403945266705
Mg 14.40481855441384 12.520359617033542 13.89424517013763
Mg 11.807208313429095 8.636328752932082 13.822376274250239
Mg 5.948249341082511 13.740585375845615 12.817605390626538
Mg 9.364002107826062 10.203057518883249 15.054352367753728
Mg 10.131290205582175 13.04162440814981 15.804628152183346
Mg 17.14114328255512 11.53750960359935 14.604317600543949
Mg 14.624870911338 9.501710997912957 14.659133489663613
Mg 7.277774141673668 12.362513028198473 15.050345989497213
Mg 11.74704274575136 14.888260177521184 13.93225981884685
Mg 16.23744016364271 14.133136587931407 16.144930974640186
Mg 12.279679923902188 10.793505805689646 16.113002578596173
Mg 15.109095862072206 11.530089422407618 16.88736352424461
Mg 13.164411204359155 13.792884920554407 16.38763897652488
