47
Energy = -46.14537459 eV
Mg 15.736030975653572 13.366300968513475 18.916540310728628
Mg 12.779464561805526 12.913876343237872 18.978235564855886
Mg 16.142813764520973 15.733434928305694 17.213918460578334
Mg 10.948572718537088 13.70684831422409 16.75255506980714
Mg 14.198617296695419 13.407631020016193 16.130268569715803
Mg 13.141144807851376 15.724203668758895 17.81415345993365
Mg 14.341592540805607 10.738018793607328 17.7953615750588
Mg 10.813651000309136 16.73734410623713 15.920915683324797
Mg 17.14807749028934 12.816465529277167 16.267140090154765
Mg 14.136941892954672 17.156867488043122 15.410759186352637
Mg 11.127419459842034 10.693246970713075 17.671677848209036
Mg 8.43134367806247 14.619111636562709 15.326980629041099
Mg 14.292468111252907 12.840601192038914 12.944155956402232
Mg 12.339550446670955 11.471483508123388 14.942883288615572
Mg 16.141763562518342 15.013245600106703 14.2567363374446
Mg 8.914391957002449 11.477903592879155 15.700868230922373
Mg 17.369492083107023 12.258325235532311 13.254774262148597
Mg 15.32236768187117 10.558643339889166 14.933646918430764
Mg 12.80578989715293 8.679121209854237 16.110332908335593
Mg 12.431024281605907 14.858644816058428 14.1859213031148
Mg 14.176587682066817 16.363933322840587 12.20326938270235
Mg 9.8339290627176 16.02989656170886 12.98865561252728
Mg 12.030173534771484 18.02854100289868 13.431051995918043
Mg 11.562758021132286 16.944736592865628 10.58501475867174
Mg 10.46428995302132 9.242238587385783 14.080287929591911
Mg 7.709251268155414 13.849108021677795 12.3901690359928
Mg 16.275083947673924 14.443130277586908 11.199334935168917
Mg 13.255462249384834 8.558855918788908 13.229190629942243
Mg 15.475560986933532 10.105506745809487 11.954887968273546
Mg 11.971186105650748 13.997629174617797 11.17923976452506
Mg 9.01527666744319 15.337763663587683 10.11529049450765
Mg 10.281454939820307 12.92644217372881 13.408403386190319
Mg 17.349465122907674 11.79087451971933 10.135006743058137
Mg 12.052053233712298 11.048626689473522 11.915901538848416
Mg 14.261943655930493 12.144804950562792 9.944875532075413
Mg 13.97031716172544 15.44700102511501 9.243247559622764
Mg 8.300870973142064 10.774292718026334 12.664171829572494
Mg 9.940043331688358 9.388057535342785 10.520199427000833
Mg 16.423850017372562 14.132011969448648 8.214886145611047
Mg 13.070290862921727 8.917052285365752 10.084524048591986
Mg 15.967863783649257 9.207131035458687 9.132144394816592
Mg 11.146516346347303 14.535791787914022 8.247219193323959
Mg 13.666583883464734 13.189369676074518 7.1558838529468884
Mg 9.09376116871779 12.369517602118076 10.187938686249815
Mg 16.341281277112998 11.443452838034784 7.20081064567956
Mg 11.507627879713676 11.44479200269343 8.74669197103914
Mg 13.743309360768583 10.009476095525091 7.368904778083415
