43
Energy = -41.49509267 eV
Mg 12.926760468830128 18.6829691931046 14.112739633244662
Mg 11.921069722364493 17.442018818161323 11.627018357906413
Mg 15.206720371774132 17.06556725514266 15.488230744380601
Mg 12.295284425545086 17.49816835970878 16.68855311322059
Mg 15.045961429667708 17.40946788841685 12.325563621420926
Mg 8.97909701131292 17.069136308626444 11.630580148848287
Mg 13.8033043464544 15.81961065166974 10.002536557862813
Mg 10.670752319388942 15.557305535273327 9.478454416570042
Mg 16.81101162371687 15.602809814690874 10.56101244445419
Mg 10.39346165554005 16.594880737615654 14.40500254949735
Mg 15.655813557711399 13.468676592243378 8.837758828020391
Mg 14.142075495427939 15.635516869836069 17.992237244729434
Mg 13.243758243143546 15.428938678767265 13.903146982909348
Mg 8.031949758088695 14.933293942253101 13.38829846272466
Mg 15.105217134508205 13.751544657406463 15.877206268124112
Mg 11.041250994810428 14.316964883172082 12.198709618595856
Mg 16.45575707360428 14.84494160995885 13.447848143091935
Mg 12.686577084297857 13.251699984154135 9.039045315555013
Mg 7.936254921018357 14.528801257951361 10.4399754911424
Mg 11.765087496038253 14.452504927950304 16.483215683233915
Mg 14.261099139666896 13.426793963262238 11.791755219309463
Mg 9.729869140614388 13.025958826545844 14.88304558325737
Mg 13.510553148378571 12.620816925206096 18.194986583021485
Mg 12.761883591243794 12.461881667199698 14.29790171945129
Mg 17.281306675510145 12.727856924464952 11.195695749709804
Mg 9.82743865199072 12.476601424709026 9.395519397332643
Mg 11.877887288381649 11.542787388323436 11.502314869039033
Mg 8.684688388024995 12.105328659489645 12.178695252538141
Mg 15.993433212568007 11.733257785598903 13.78583526593292
Mg 14.870426648680462 10.672415675899666 10.234273007814235
Mg 11.426606473506485 11.05617708323845 16.75131674697959
Mg 14.469264499924515 10.537816692680654 16.17221961960019
Mg 10.45050444550044 10.209293681891557 13.955634162276667
Mg 12.03526856315717 10.303073703801049 8.675308141613588
Mg 13.661821765794219 9.777556651127856 13.02790710802956
Mg 9.90042740873025 9.359385734511209 10.751501584959557
Mg 17.516828761889 9.829842776608688 11.957117337960357
Mg 16.04059977036351 8.421983211833885 14.35372600374109
Mg 12.446594012869882 8.378781440212089 15.491795387091765
Mg 15.672451901061915 7.730396864673967 11.29707453034576
Mg 11.067878169900384 7.539744901546322 12.8466078681892
Mg 12.822778454828347 8.119529729733163 10.477180869324387
Mg 13.848543287388601 6.615650678327893 13.337590247275969
