47
Energy = -45.1327735 eV
Mg 9.100824478211077 8.541665388935954 14.943127344674178
Mg 11.4156515870469 7.464123792104464 12.575461222719218
Mg 11.830938856389011 7.672778277942796 15.588682981560723
Mg 9.169117303720972 9.598848387746145 12.087541286105075
Mg 10.767776178128795 10.463253270682944 16.66197721649877
Mg 7.535361463427879 12.050964888465126 11.698369113746653
Mg 8.563211851790488 11.473075419342992 14.582413704829051
Mg 14.271418064900638 8.098773438366397 13.924680245207853
Mg 13.970933060074072 7.823946498363828 10.989738855516265
Mg 11.823900352496594 10.306282134177827 13.792851543130045
Mg 11.724515396013457 9.967770586278919 10.657777638854295
Mg 13.822373885874034 9.667570494204439 16.53364234751819
Mg 9.709957894176373 12.282627709388883 9.376303068046136
Mg 12.812444249440711 12.352998510273173 17.733816303184543
Mg 14.482721527196068 10.974054959773987 12.234259187043344
Mg 8.356504112679039 14.760788141049481 11.036573098805416
Mg 16.333784749227043 10.054982624700921 14.806538075521239
Mg 10.617662843829644 12.678784339598757 12.280840669076186
Mg 8.39686489199635 14.399481307311273 14.104835950118783
Mg 11.066792122565834 13.197896552631954 15.193883233224437
Mg 16.618808397461006 8.737530532877336 12.099769027110227
Mg 14.559373232748541 10.135314655236543 9.257280325577321
Mg 11.90437470536279 10.78465810764347 7.704215475243111
Mg 15.84239112472289 11.77821188554215 17.205780728824056
Mg 12.978470869239375 12.624383070467196 10.184097839860687
Mg 11.290921505324633 14.986401502917253 10.356513784763868
Mg 17.687689908064556 11.472955316950351 12.191818166779976
Mg 14.855739693667196 14.262203336446314 18.71381067780081
Mg 10.449425383923975 16.13618931515646 15.600705126985565
Mg 12.953398105901968 14.688016521394104 13.027340658886757
Mg 9.131913496016217 15.187009369526514 8.121797471628037
Mg 11.737090120989587 13.781031481519477 7.578187510361683
Mg 13.923424665967733 12.288412654013914 14.833349669317418
Mg 14.565858681506011 12.564427203290702 7.512929475701952
Mg 18.094509437578715 12.451296178493076 15.028071954947775
Mg 9.58018096530717 17.571431111753594 10.007428057442675
Mg 13.294587337960408 15.129423016034412 16.143741347038894
Mg 16.394531899542258 14.602928084083798 16.15055938949998
Mg 10.231109313897988 16.571043009707598 12.715365633623021
Mg 16.05131014955217 13.13501974861418 10.213888882110476
Mg 15.473293507162955 16.10120220268912 11.394493875422025
Mg 12.80021242115711 17.471106215893823 11.078849645625183
Mg 11.836256323081301 16.91471559238575 8.089239709263042
Mg 15.464758035201442 16.63171437089102 14.277599088454139
Mg 12.709494302819918 17.576153383741214 14.189532289788968
Mg 14.173799023975182 15.261424194397781 8.87628418509972
Mg 15.938745236741068 13.744660501083883 13.197964007555562
