42
Energy = -38.41479625 eV
Mg 12.121090195288048 14.459961363603144 7.890129260822785
Mg 11.126414886550602 11.759094023326957 9.082371108552477
Mg 10.619983039557532 14.824743524986863 10.37753052861265
Mg 13.668402415814468 11.87945911869175 7.398282242001462
Mg 13.447487734567728 16.35880825061934 9.98241016879841
Mg 9.827536357855058 9.612481349681556 10.576032994810676
Mg 9.50891791312032 12.40310542741854 11.763285014718523
Mg 8.934458501024771 15.1503548077913 12.866499884388896
Mg 15.08697933898749 14.523401696069431 7.969117139671962
Mg 14.893736109589545 10.883589554735122 9.921743432560003
Mg 14.142365531665009 18.327667504932293 12.214669685276139
Mg 13.313246347067818 13.336373718582694 10.454932113075278
Mg 7.51938535353819 12.782941448486405 14.157916779436624
Mg 8.086955283344352 9.964443528198315 13.167075242265074
Mg 16.26275175874074 13.849443031528406 10.579546662889639
Mg 8.95472178710701 7.246500380681498 12.107214092982462
Mg 11.784143847659662 13.665684155888382 13.452708495713608
Mg 14.279904692892849 15.230403316451193 12.73902464287798
Mg 12.16405214347156 10.92239567437496 11.99114991287895
Mg 11.591726992675603 16.66951043561854 12.542183333137174
Mg 12.012070782818375 7.832527683100246 11.750359598691224
Mg 9.641276954106774 17.198929168281296 14.927353064221624
Mg 9.529420795926134 14.269149904937981 15.859274688535468
Mg 16.771784292601158 16.913902315167984 12.876829855173751
Mg 12.14437459081931 15.764246481226138 15.647013128281166
Mg 10.167349906510166 11.474444446989372 14.827529428639563
Mg 17.192893660050895 11.265182972257545 11.757261772592836
Mg 14.652583544961729 17.256999375702716 15.205788485283252
Mg 10.48555306825466 8.538965539833978 14.38479246426294
Mg 17.099848421579008 13.879828379220204 13.474246209230735
Mg 14.57628954290204 12.230082962941903 13.130580664278247
Mg 12.214339363858643 18.854387883497196 14.621254057874127
Mg 14.713045756859406 9.227381975273406 12.530669855360832
Mg 17.18491253926773 15.900932575443758 15.767856587656393
Mg 14.633834172638974 14.178892269394582 15.593272561321166
Mg 12.105076337721968 12.862293780971482 16.63246903983739
Mg 12.86032189078909 10.300261221840021 14.949453751093145
Mg 17.06689827040247 10.881924234289846 14.635761218755698
Mg 13.199080253247601 7.1996150794741185 14.456623767259996
Mg 17.354695550946143 13.1108355018617 16.566177657251707
Mg 14.808524328209398 11.494056244200417 16.883171511138755
Mg 15.360400419027219 8.747023792666624 15.70177069840667
