48
Energy = -47.2355953 eV
Mg 8.528962957064927 14.638670499752468 9.210705533721567
Mg 11.543039695703323 14.690661364523379 8.956703231593462
Mg 7.612170919903986 11.863808539768291 8.061867949851182
Mg 10.581899211051612 12.019214920275504 7.571820355841024
Mg 14.509790447397267 14.877760304386245 8.581957903025135
Mg 13.150822137987845 12.13840973377995 9.243076447046002
Mg 16.417604741783492 12.635415866033025 9.29227421849444
Mg 15.201036010033992 10.333803870558855 7.833496662859114
Mg 12.227988114113513 9.434233262365968 8.128041581927011
Mg 9.371080088264286 9.38654344618918 8.905725281112682
Mg 6.312513279643533 12.998093732415697 10.494893702941296
Mg 14.20944689876273 8.663334531480809 10.188534998188032
Mg 10.394534456748952 15.77284612476862 11.463315765766819
Mg 13.296511810329791 16.66106454328945 10.733296348575529
Mg 12.914435769107776 13.798027064352723 11.745545348269943
Mg 15.832262022416845 14.814439076919358 11.286637072061936
Mg 11.240151716721487 7.477752915697083 10.408346157092176
Mg 9.88826040154693 12.23759758455947 10.516585848873671
Mg 6.8631666788970165 10.127351735027059 10.373455343148931
Mg 17.652740487557043 12.404905719944425 12.266073481159612
Mg 14.898590626450368 11.347240860693951 11.711105067918227
Mg 11.951884740993396 10.3359005393296 11.585334058429817
Mg 17.203348156164424 9.79546185693211 10.074146256713195
Mg 16.399555336716606 7.156369864061234 11.54600054665809
Mg 14.480589303268232 16.56500194285174 13.561989339397222
Mg 10.415885171288412 13.076978573716206 13.273651222043991
Mg 17.46555193573283 9.4657867896507 13.028778965235064
Mg 13.463914543504355 6.274070329680365 11.962352795832935
Mg 9.136842292384634 9.064686547102255 12.036055032613454
Mg 7.649907420464885 11.56390090142119 12.951582251634276
Mg 15.394534842833574 13.672167176729756 14.065781160884157
Mg 12.999356637913174 11.714698904151712 14.037532144854781
Mg 7.768281258475599 14.626564891221244 12.490460779118587
Mg 11.53906895989483 7.986140710466277 13.64162503355633
Mg 11.857781942699944 17.825263154337883 13.190079600335292
Mg 14.398605113758256 8.821786047041487 13.440495742229833
Mg 15.865063187021274 10.836653596625943 15.080514557094038
Mg 10.028559319097743 10.395788935225955 14.649801370137094
Mg 12.42141031654858 14.617086383958346 14.761047900646226
Mg 9.645081177176852 16.13499740348458 14.360898067331059
Mg 14.999761480138368 15.667436179161166 16.40931747249235
Mg 8.415172577827155 13.352909456236372 15.42738439909509
Mg 12.812422518807672 9.651893627557781 16.08825418635276
Mg 14.207438906623047 12.583966664636494 16.835451079220906
Mg 12.30297529045668 17.275956536398983 16.138725196758653
Mg 11.194070558882462 12.449023783418417 16.60439493851969
Mg 10.019080741664808 15.30735220484416 17.126748051201705
Mg 12.709581920153916 14.853715424957564 18.05087367412437
