45
Energy = -42.58162812 eV
Mg 17.358728930010518 12.990621318693524 11.415926221814917
Mg 18.4348050715278 10.490249590264563 12.870878836237626
Mg 16.692661591546567 8.903345368196673 14.728370308126266
Mg 16.157227909106954 15.531386894063377 10.274180715374879
Mg 17.4938220198699 12.722211090542293 14.493038483776942
Mg 16.0203947019088 15.014339346958586 13.223359182905705
Mg 15.588040618004865 8.04104493760753 11.952774384721595
Mg 15.045699976395026 17.68498011921443 12.457574663229304
Mg 17.09098191557843 10.112104071074357 10.2579021196257
Mg 15.87605924729313 14.38021743376558 16.228608733983563
Mg 14.113722440516444 16.530880052538937 15.112990754401908
Mg 15.788639085119621 12.468080105261562 8.813300870210423
Mg 13.518662642554702 17.180585829813563 10.094604767994012
Mg 15.202037988313641 11.273226526057812 16.00849362362668
Mg 14.069755995049045 13.336319551786193 11.220771983139702
Mg 15.252532642757517 11.003980113952693 12.88257372094888
Mg 13.74252433600804 8.654833368952358 14.472288167086537
Mg 13.280640888749094 13.415400959919358 17.263983348142503
Mg 13.662230508839965 13.317602573633247 14.221463215740641
Mg 14.030157731330556 14.854059529592611 8.211903357056283
Mg 12.57424926489326 15.700531671341404 12.576980480952026
Mg 14.059889586645363 10.168990108783321 10.195224222633136
Mg 12.689160168192457 12.214355707886144 8.647835630278713
Mg 11.82712370914589 17.36064672932214 7.738221587359657
Mg 10.383173086481332 16.53510325709047 10.390446811041778
Mg 11.966343291913365 10.822373455421804 12.640433703854026
Mg 12.517415162870485 7.973812582493549 11.702773533454879
Mg 12.206150855972236 10.947981425605686 15.750693086928255
Mg 11.045852544817263 13.429612309229654 11.131152710932282
Mg 11.467771013308257 15.259630429780097 15.435090928224346
Mg 10.808751498826028 8.297578639800365 14.687823685839987
Mg 11.029712227125893 9.944530178707891 9.801155851151604
Mg 9.518411097400064 12.187638076478123 8.605390546267083
Mg 10.986098559368703 14.605455972645025 8.133903339856936
Mg 10.1276735553584 12.59391918465435 14.170631591199855
Mg 9.476846937329084 15.583694227228246 13.021040173734034
Mg 10.336982260371869 12.930387460056373 17.308514809427145
Mg 8.779238470184705 11.34696495522949 11.36308801774885
Mg 9.434266915324175 10.154978205106897 16.655078221648363
Mg 9.577124472270118 8.531067550464662 11.970198776506601
Mg 8.090029066348018 14.340123790266277 10.370238507375456
Mg 8.5102179752789 14.864904283118104 15.701722684895552
Mg 7.985384314377615 10.110614825296363 13.935753713580366
Mg 7.273819061720104 13.302773344830587 13.147804912886292
Mg 7.2950407656247425 12.20408665649048 15.996517131048526
