40
Energy = -37.85506039 eV
Mg 17.78375979802522 12.473593057311167 13.702014659823506
Mg 15.993522235384928 13.581205517875446 15.755919343188648
Mg 15.955344390029286 14.716906043228814 12.928227876280266
Mg 13.566256443887891 16.341462684656037 11.970088125754828
Mg 17.687255672466737 13.398952911990978 10.67943005122591
Mg 15.891445702511707 15.896169441200417 10.048551105465547
Mg 13.517308365784382 15.174300249725412 14.784906024290859
Mg 10.973783465529644 16.64086686418042 13.808898007018826
Mg 16.219819282892388 10.64653148993659 12.013620596467295
Mg 13.3751152361706 12.580349996847655 16.652923918348137
Mg 15.693446508744515 10.623503433199739 15.08121949996329
Mg 16.736299688411826 11.151419105229715 8.944801582830024
Mg 14.569494281243974 12.923357634785052 10.719302375530921
Mg 10.914275666242716 17.177406221233667 10.899703350340031
Mg 13.820363446216957 12.388445347626485 13.509950782529367
Mg 11.612624341213518 13.997606697083697 12.057487466872573
Mg 13.018504891866481 14.852408246376102 9.135586486640966
Mg 16.12988652816227 13.89404935202409 7.992615601341188
Mg 8.213920613475306 15.447266754312663 14.927746839213336
Mg 10.837008546925444 13.970766653924956 15.345667380455298
Mg 8.013643333958111 12.860697721958111 16.425525440786014
Mg 13.992266521745647 11.846441713813098 7.840164836069385
Mg 9.950869903177868 14.968975704757382 9.229032617457813
Mg 10.592473724474928 11.447052586638977 17.088364497516736
Mg 10.989882474225258 11.360316995194797 13.82424010645105
Mg 12.821113380504663 9.7042489911267 15.872648132762171
Mg 8.738947255128092 15.335602377947623 11.964203520283823
Mg 12.049190132634706 11.227768559686849 10.96274539691047
Mg 13.604140489833835 9.291288012248064 12.946003931666661
Mg 11.084346300683718 12.323042139983801 8.29422353003615
Mg 8.114922065615795 12.675994169410796 13.469343568963218
Mg 14.346827766306669 9.4330429606219 10.004091882016914
Mg 9.184859063263534 12.449357157959549 10.696413634178134
Mg 8.349307123098425 10.125701793624303 15.113460364026274
Mg 10.118271050254393 8.502366559729058 16.804319102750608
Mg 12.098715399816367 9.400960742272831 8.017977095432924
Mg 8.952044545185416 9.783940330905795 12.07545909300595
Mg 10.818188080421836 8.26098323655212 13.882224892148164
Mg 11.512143292233366 8.210643513076239 10.82885133077006
Mg 9.478274423430264 9.810226561676 9.192650809477987
