44
Energy = -42.16438507 eV
Mg 15.37174648220401 12.789530237123532 7.401380592545852
Mg 17.139289632737256 11.12058789448798 10.529260375804844
Mg 16.849770872875165 14.010657041165677 9.926021789704574
Mg 15.545303088732922 9.96506741312484 8.314528545647335
Mg 12.21275831866287 13.886521912866822 7.803288461525
Mg 12.708789259403755 10.905129103469088 7.759533286258353
Mg 14.738286859104948 15.534891996490387 8.459868065611508
Mg 13.31513252057294 8.216256595828137 9.033177163886023
Mg 9.745778610541917 11.90775039635037 8.496138709178103
Mg 13.97059068561424 12.710739929501942 10.088502555413491
Mg 10.220289227206532 8.834348019228791 8.798936478972374
Mg 16.00508541914245 12.926422838364106 12.763432206127403
Mg 15.89624930403863 8.108606415894126 10.903648081114666
Mg 16.95813423000927 10.090845169720518 13.360794043329836
Mg 14.38660754904606 10.406929084525869 11.897229346155397
Mg 14.62526028697082 15.391838337125256 11.683784090280241
Mg 11.026537630168832 13.51162489001101 10.780430320563264
Mg 9.448805995936603 15.006658357672709 8.766072705675983
Mg 12.914414434525924 7.507742264964432 11.839790705863887
Mg 12.16971278486104 16.203752905181545 9.94754150483401
Mg 14.767842786811114 8.19863601657154 14.133723648256012
Mg 11.747764990752012 10.535727271144074 10.659512999667005
Mg 9.904350011883857 8.263003001564487 12.037799841079083
Mg 12.787519054680692 12.77571213924614 12.931492675066448
Mg 7.901419783233035 13.34794104977218 11.045209573672144
Mg 8.024658047626684 10.184883252832424 10.398359518640824
Mg 12.106944951111695 7.000873367046122 14.774083193268613
Mg 9.3135619063345 16.26282617409892 11.483991980241852
Mg 11.956265880445821 9.911901338643924 13.669272571286065
Mg 12.101677375419118 16.207318644144465 13.07354897377603
Mg 9.639425227244342 11.345516445781659 12.607712253403227
Mg 10.06880221153332 14.016198379718361 13.599964654812185
Mg 14.510344373134005 11.204989226042855 14.968730665873684
Mg 14.156152592506004 14.577844098791484 14.835977491811768
Mg 7.4312363238694905 9.539639102666435 13.485835023903237
Mg 7.100721615058571 15.341472120108529 13.361383537968148
Mg 9.469570561155919 8.173960210127172 15.184046565353128
Mg 7.0299597731896455 12.493442616865343 13.984016962437039
Mg 11.890420818730865 9.598017375583002 16.58907491194147
Mg 9.350707895264332 16.883570744010722 14.503867523716657
Mg 11.794660276452033 12.560909732565298 15.885716604476503
Mg 9.138924467501091 11.151500601211273 15.791574517230064
Mg 11.499937687616226 15.507035916240747 16.008778041726913
Mg 8.623655421149378 14.203106931025305 16.146538348907747
