48
Energy = -46.30862969 eV
Mg 16.788480092093007 12.482337099984242 7.451802090463199
Mg 16.570482800293338 10.737869088394515 9.886600309004937
Mg 13.989556301645152 11.445253891570896 7.8961268652594745
Mg 17.035848167339317 13.725733381612296 10.181102929057332
Mg 13.950489314892739 9.111353414543007 9.817576608952931
Mg 14.561073813093055 14.366578797070792 8.292442623986167
Mg 15.838342820323053 9.205468229848696 12.342526947090915
Mg 11.287267214562805 10.372667541347221 8.708634004128998
Mg 13.773308041970976 7.011758112266908 12.044706704645671
Mg 16.943350589818667 12.145161231922765 12.839849541497932
Mg 14.009065366895069 12.426174678423939 11.03482822428874
Mg 11.696561633577286 13.432685487879361 8.705603953128566
Mg 11.091888000119114 7.992444191656095 10.654219061244628
Mg 15.057534232408287 15.98660512368262 10.799559700331914
Mg 16.83157178676803 10.000838864897553 15.14243879141971
Mg 12.580920794330046 9.916729291296177 12.412954758813752
Mg 8.816185036497078 12.543976081730413 9.132293896100474
Mg 14.17269481544087 8.22720261767498 14.770182670024807
Mg 12.450729213054295 16.33082335990263 9.152783375339556
Mg 14.272677882303928 11.378803096583242 14.175453870306203
Mg 10.75778170195139 11.912173937671044 11.318587331295353
Mg 8.61023377075829 9.555071327397421 9.887445059517947
Mg 17.512746304128033 15.304094974148622 12.683664830044352
Mg 11.400381559558275 7.367498881405137 13.818240323207203
Mg 7.484813041270232 11.601563513233534 11.660167331604267
Mg 12.059021414558146 14.80593803108821 11.70526205377009
Mg 14.43877658220549 10.21802838584964 17.011256847313973
Mg 14.677396922946096 14.270098995280806 13.582533046506043
Mg 12.819496422577904 17.840081732046897 11.76627282799033
Mg 8.951043570186286 14.231233574552364 12.150885952930382
Mg 11.505970221655037 10.09727698650863 15.362622392032538
Mg 15.25215003490974 17.35819324286438 13.47521809193288
Mg 11.65092214168736 12.899953286684994 13.957034244675167
Mg 16.760514660155888 15.611324579786038 15.548002093319793
Mg 16.136100591747134 12.78549986910429 16.22749819068986
Mg 9.376782088003424 9.386887691191411 12.89368244297676
Mg 10.303719690477156 16.87508517408759 13.166927894988305
Mg 8.69326338796446 11.918344001647839 14.36737136875001
Mg 13.00097046275602 12.797231885848635 16.656238779957484
Mg 12.5720729990082 15.68454893735505 15.037871872840904
Mg 12.481735056290283 18.65814448960632 14.690962772644976
Mg 10.015478541739386 12.290149691651795 17.031907296485624
Mg 9.427945279831366 14.72747443035262 15.174119718842295
Mg 14.986841161603685 17.93291915178173 16.33822254791625
Mg 14.454130429496397 15.217516606446246 17.506547345414816
Mg 11.166358601335833 14.9906663873291 17.753457176905076
Mg 10.04040098696445 17.521376360788857 16.16642054833429
Mg 12.476327179990244 17.70338835724315 17.7831699951669
