41
Energy = -39.2125941 eV
Mg 10.251261442425776 11.503827061450375 7.135977935670939
Mg 9.13889570323609 14.510396871199648 7.481134602001525
Mg 12.025154941596455 13.96094701469541 8.266905129151064
Mg 7.403211864660625 12.217775473503538 8.044099062469762
Mg 11.17671405073976 8.432895363128795 7.650642947412785
Mg 13.095896734266265 11.14954896445187 8.104765578537274
Mg 15.597797378904227 10.758027474483368 9.80508136183521
Mg 14.969670840522028 13.694414363392001 9.078885161913595
Mg 8.601182514327933 9.671125547013375 9.017209010955186
Mg 14.169669080952291 8.414083915538718 8.50720079617082
Mg 7.249987079402538 14.58124920990828 9.845950491590706
Mg 10.12742948001852 12.52632894618761 10.188543934001768
Mg 9.643712174987211 7.034795672438841 10.005653356668574
Mg 12.449327930078722 6.478306592189949 9.866333452262015
Mg 10.077271639524161 15.693514931191002 10.108718746903437
Mg 16.99329062348256 13.093330139500008 11.226367270347579
Mg 13.14343201757176 15.917337139684271 10.186561249523328
Mg 7.346443494361235 11.707983830117529 11.18322041374131
Mg 13.084631668672886 12.179730391974848 11.027645906466216
Mg 11.378028785165752 9.748471430299471 10.38854387482389
Mg 13.932342887293284 8.779579363382313 11.583135356941876
Mg 15.29011752037521 11.09407002362555 12.8483073777441
Mg 13.227152007380688 17.224700279779135 13.100277724841611
Mg 14.634644741596897 14.497202811379886 12.374082639278463
Mg 11.291090096398452 7.525796245213836 12.596221158114506
Mg 8.741414317717222 9.173918858054078 12.058247409525746
Mg 8.510980622265935 14.127602651813968 12.534701680759616
Mg 10.83232889077585 11.286631445756209 12.947811610433774
Mg 13.100921942958442 12.64880244498207 14.50934093532928
Mg 15.694481892707367 10.746207059785204 15.839872002470464
Mg 11.552368493611596 14.41488714731886 12.398947876078507
Mg 12.881163431214333 9.497495033464515 14.509853812695564
Mg 8.162619372179268 11.500083752537433 14.255992165850328
Mg 16.282155407864607 13.44092828848872 14.554707383350898
Mg 13.992435556119615 15.568518698147937 15.474308122729486
Mg 9.804191884154292 8.803415747726385 14.873609264812638
Mg 10.095103352919732 13.856355037219965 15.02237726864081
Mg 10.501704206720245 11.242088666911428 16.284265982564257
Mg 13.214171975991666 10.9176844173047 17.36634054190058
Mg 12.10550612418808 13.801142964928568 17.276966384069674
Mg 15.031166426242498 13.379869325403584 17.272263614992575
