46
Energy = -45.01212541 eV
Mg 7.277489725768039 12.338181760012544 10.634022717877864
Mg 11.636357922906162 10.997240824367347 6.927038150288261
Mg 10.873133966820067 9.031369868860855 9.112023681630673
Mg 9.13637145070642 11.61514823062915 8.403792298108527
Mg 6.879475085327761 10.858400958357336 13.30275381316184
Mg 8.30585361579651 9.498206239248754 10.767883632846251
Mg 8.440926686839754 13.817404532695072 12.922449523465271
Mg 11.627340047339938 13.65740655299396 8.299106029766687
Mg 9.490430279331132 14.70500530759069 10.159186237693477
Mg 10.703205249730905 7.797421072103268 11.901327704470988
Mg 13.726540411897004 9.171472505220086 7.831136062881782
Mg 14.493840363393021 12.333322735643213 7.694741162066422
Mg 10.394597948704472 11.975215576925365 11.087078011706978
Mg 13.530572511801463 8.21673498050191 10.674874697993335
Mg 12.174753522543904 16.728226609137423 9.977936523544924
Mg 12.959848772870878 11.251977695201441 10.018768053085502
Mg 8.393456032319506 9.44216492228432 15.919466083505272
Mg 8.62933225553131 12.417736459327042 15.610036189028476
Mg 8.042786781248566 7.933222494314862 13.439602384200166
Mg 10.71989455744637 16.09496920343751 12.61508936151217
Mg 12.691978036130397 14.07297111570222 11.091117277459347
Mg 14.317109409293067 15.179171236673579 8.446842797930012
Mg 13.34332955229701 17.87162581869804 12.669721579405186
Mg 13.371683360362331 7.279233085918093 13.495787011605191
Mg 9.761318932459481 10.498040840068002 13.479307406091838
Mg 11.783096393471446 17.264546373781805 15.198143086854765
Mg 15.245876237347922 16.143569243213626 11.116683086030934
Mg 15.80465556668906 10.41683514093661 9.905990097147038
Mg 11.44914344376225 13.078698135812411 13.839541960656284
Mg 12.609290903947631 10.286736696255057 12.990182903271885
Mg 13.752097256379997 15.022514914006482 13.78944696370863
Mg 10.908321353069551 8.010100977585813 14.994553918687394
Mg 9.639241960614013 15.220959902086367 15.383629943977263
Mg 16.346336624579752 13.483448436842563 9.9271662204838
Mg 14.671182951931238 12.360641167972695 12.470054889999785
Mg 14.47125470394094 17.051035130058057 16.33309790425034
Mg 11.306279118094622 10.865077784386708 16.112131704550684
Mg 16.09790828804443 17.057823601488714 13.913863551053051
Mg 14.073027287831234 9.322033882559783 15.580592782908472
Mg 13.906498140458117 12.28970679395142 15.626018814546777
Mg 15.591460011401205 9.373133028685677 12.863970056056159
Mg 12.45036691550782 14.65906819899347 16.62003819414257
Mg 17.07633319513991 14.341228609061755 12.944092954710825
Mg 17.6251807163211 11.538065516842805 11.951415571356154
Mg 15.986467773197557 14.5095928777749 15.849195560626086
Mg 16.631397504020835 11.60764608434613 14.789150261277806
