42
Energy = -40.35483308 eV
Mg 11.066567113238063 13.678145879040617 6.7854878543757495
Mg 11.928355261167876 10.682401446824768 6.598889544372239
Mg 10.070723668099761 8.398986169584955 7.824022794177377
Mg 13.073189428981827 8.010546526615956 7.355520874415078
Mg 13.91982219873822 13.120029631829762 6.908021034182355
Mg 12.728973162041179 15.243692153231539 9.064854942341153
Mg 9.41631716728654 11.48724361369164 8.152104713626205
Mg 14.674988029440845 10.4731837921153 8.089558813884102
Mg 9.64597254018843 14.484959477737805 9.296732391149453
Mg 7.959869584899926 9.821903495860836 10.170043645365627
Mg 9.326239568434106 7.13198583594271 10.695398595347365
Mg 14.453337204625148 8.06228862095813 10.142889893910935
Mg 11.19761944580173 9.577698041491375 10.310367308569182
Mg 12.146565641605827 12.30305926855476 9.342792998117218
Mg 11.960111994783938 6.505384055507819 9.604246157810428
Mg 14.452055744921479 15.704564336380994 11.588780511695868
Mg 15.078421775837135 13.185458649340456 9.737196485201974
Mg 7.197909384034356 12.757890228723191 9.872582506218093
Mg 11.047273810990395 15.682757366520292 11.708610841655853
Mg 16.531470743652175 10.39149102444991 10.428679690915532
Mg 9.92180115836134 12.137022991593009 11.313247298659086
Mg 16.03586234133622 12.524859966434024 12.531258637426783
Mg 12.902126969445584 13.31114683330705 12.262608097408567
Mg 13.744274422295124 10.713276005466971 11.34039949792176
Mg 8.168470343679061 14.646036046016112 12.083914134734457
Mg 7.281375227567788 11.691512648399101 12.769291044647176
Mg 15.452305369525224 9.187167863415329 13.137201836063658
Mg 12.093688720775932 7.652865292466103 12.555752128152331
Mg 9.630980913487644 16.0591185144169 14.612869741885728
Mg 8.959627638022525 9.102384341378302 12.892102999083818
Mg 11.598265043804645 10.55077817025291 13.39561208709002
Mg 10.543771946868059 13.287245654512283 14.016312253906177
Mg 12.592674276402612 16.201942973102867 14.230137015357904
Mg 15.01347063382069 14.577855306542109 14.41165662052894
Mg 13.444023536162106 8.720936008284866 15.216699696676153
Mg 14.158406601427115 11.638053013905225 14.713154703274375
Mg 7.632570541021909 13.771502156805091 14.916514353156456
Mg 12.714600743716233 13.990045462313832 16.284867521766593
Mg 8.82219423438698 10.991505722419674 15.37812839081891
Mg 10.524745718407893 8.427872418892767 15.371821733002337
Mg 11.65401466609226 11.120202630196074 16.520271444997807
Mg 9.82122024334566 13.579255124196475 16.955651924827905
