49
Energy = -49.21453302 eV
Mg 11.884140206120778 13.6965302294904 6.936605839543068
Mg 14.475375465368625 11.73251837216885 7.0261630399994734
Mg 11.661778718117109 10.924820850267135 5.771345113590718
Mg 13.385995275497404 8.939401878245823 7.008720189968354
Mg 14.565105290398483 14.515297865145874 8.057162198788744
Mg 9.472891274326216 14.875628595195627 8.365734737086122
Mg 9.321635594119636 12.00592616813965 7.655135517999842
Mg 12.090546423859394 11.256078228209434 8.924806632288542
Mg 10.321966969969063 9.093865453703648 7.851736987737947
Mg 16.341577463363105 12.708040189445057 9.611979117197661
Mg 12.218912336387055 15.12581789218518 9.71441499833436
Mg 14.994930901357355 9.959190922441241 9.4875915395308
Mg 12.595971860580509 8.016577813160655 9.7971117405217
Mg 14.948780707623929 15.19623674907243 11.028396393443037
Mg 7.464345189310197 13.432305022579838 10.181303354977006
Mg 9.75721592360254 15.966702333085816 11.139394459394444
Mg 10.330091138603517 12.873397409410074 10.849053510223413
Mg 16.353584520775264 11.092660405091838 12.1508756509349
Mg 8.446727803408262 10.41559271368198 10.1268281536166
Mg 14.217408714446051 8.839722874710555 12.227289849036627
Mg 11.27068871996857 10.139808449626443 11.687096839561885
Mg 13.537668448995527 12.329863233269405 11.243488636789463
Mg 12.66953984970664 16.78723050414512 12.310964505166432
Mg 9.621040475053602 7.560071941500413 10.359260002892599
Mg 15.43897751489902 16.40334067229579 13.779883273279436
Mg 11.707428917604416 14.04373506496601 13.232152353614797
Mg 8.512563056833677 8.850540988398256 12.786042155668717
Mg 11.462168211010393 7.350894621419601 12.774193872683217
Mg 12.881246653381215 11.051148339882367 14.094111764810755
Mg 6.983388105223635 11.59618096689314 12.638341136591034
Mg 10.08041470099058 16.68914510020933 13.974478776942066
Mg 9.849262006777078 11.774564773432989 13.843636687157566
Mg 14.669720742674386 13.431276257761986 13.801559221113953
Mg 15.777480331702696 9.687272057181918 14.723421293069684
Mg 17.371756685334955 14.023643289089966 12.313728192763097
Mg 8.30495097075707 14.351849118533499 13.105420264280333
Mg 12.747448294842057 16.072917905685077 15.371457400885708
Mg 17.993593432554526 15.278906795663275 14.951700035801984
Mg 13.27051536666861 8.08161702582743 15.030676749265721
Mg 12.42917223829505 13.206163395945886 16.391634776015888
Mg 10.426220165572786 9.007386909496638 15.155804638069192
Mg 7.4831040032893705 9.999928214176967 15.344675539538043
Mg 7.258026645307614 12.865050685409411 15.509635293880528
Mg 9.790095848188946 14.487191967297923 15.881769000485068
Mg 15.026188898265577 11.730811978842773 16.71410409248969
Mg 9.701844914884479 11.56388650144883 16.942948165121553
Mg 15.377550628499542 14.720272508155627 16.41105275394719
Mg 17.331479399403932 12.345218879252089 14.891871526580132
Mg 12.45600175744564 10.182288650125773 17.101760788685947
