43
Energy = -41.72711815 eV
Mg 15.610332812845275 13.331352776145415 11.418333683736975
Mg 15.906942752407245 15.59551466973808 13.43967730186255
Mg 16.438798714111105 11.506663247877775 9.160867769981921
Mg 17.612393677320952 10.661955042876752 11.890025824448514
Mg 14.914843153200135 16.148131197475294 10.541298641014409
Mg 17.900892200962048 13.220710232578961 13.398508950691868
Mg 14.341816185788504 13.753260973342964 8.745527808957306
Mg 16.280292843268867 13.774953977635441 15.825258267243546
Mg 13.094591142820523 16.663679213281064 12.810749842170972
Mg 13.398182233887551 13.594693598953 13.722331847078339
Mg 13.776851029280772 10.87119948041997 7.713626186557073
Mg 15.579602584843965 8.96091541605776 10.462993031725642
Mg 13.178765251389104 11.182991211909279 10.626657345678115
Mg 13.759329906646299 15.535393014796707 15.842659174734848
Mg 12.088995235043098 16.208682682613357 9.279605530379987
Mg 16.151908867217053 8.381956761155001 13.395972968851128
Mg 12.332276395834006 14.018115641396857 11.11309394173412
Mg 16.91090963149094 10.83427445676299 15.160115939645921
Mg 14.724512000989694 10.963913365249054 13.165218298242408
Mg 11.453339807512807 13.160190998215207 8.206052124264254
Mg 10.73992108392781 10.149827520166944 8.206418857064985
Mg 14.078414812328994 11.791098455366663 16.213933823036985
Mg 10.289203941019307 16.543222083202284 11.824798042886028
Mg 11.72223768769259 11.065494246391381 13.44010086528364
Mg 12.877428735026935 8.342102242091144 9.317162264726319
Mg 8.551646951388111 12.28727129718827 8.080268344398418
Mg 10.097580471590028 13.565383060744137 13.13860247683867
Mg 11.315744092170384 13.261176023649874 16.060001238149763
Mg 13.763649947117939 8.92320403957867 15.265966716962861
Mg 10.212957279261289 11.844687938613522 10.741358190865531
Mg 9.267202801729875 14.734839517497145 9.753420432467511
Mg 10.916643584722683 16.036183661405836 14.777071443058357
Mg 13.200003811913417 8.3117144485342 12.382594653997403
Mg 10.505262638478758 8.812699730833378 11.173916861020539
Mg 7.116376504015297 12.625222816121815 10.774609103746858
Mg 11.502193849885757 10.257616851896723 16.690283668896566
Mg 9.039568076835135 11.290987769098876 15.384039727526282
Mg 7.621070260778711 15.23909480874527 12.442332092315489
Mg 7.980481793945137 9.848642489716854 9.661229400395994
Mg 10.56046919458826 8.555957326154106 14.316630717488907
Mg 8.37918242443967 14.450519968221641 15.484725245597211
Mg 6.855285242980696 12.629655069415794 13.758521648656913
Mg 8.318187499663006 10.256117488526435 12.674971161555728
