44
Energy = -43.13964218 eV
Mg 15.02589268255753 13.20352490022619 14.19439925938605
Mg 13.340679190660817 8.625311334577518 14.118606929906493
Mg 12.690610564871111 16.223091822673457 7.207270451921017
Mg 13.255508118576595 11.409113523273312 12.397165149191569
Mg 8.783528805338936 8.19396318867829 11.269638950889231
Mg 11.009854974099657 13.574715937397388 13.028547300216207
Mg 10.938383245617306 10.316884990959672 6.78265804820442
Mg 12.456523037017837 14.04480921430041 15.730840766618115
Mg 14.598179728619916 14.093384943469179 8.112214574643945
Mg 10.208686960490956 11.116021956324332 11.320107258095641
Mg 9.408255153312286 14.201815253724112 15.83724550104891
Mg 16.785199237926648 11.636617250905834 12.083041418576919
Mg 13.448197639920433 11.2190220858928 15.779713190940729
Mg 8.614436174777289 9.571172476386211 8.636095824490262
Mg 15.513249303108863 8.91237434381922 8.421376419825508
Mg 11.80389365768467 8.439311893920348 11.660139907325892
Mg 10.785520352169446 7.630382972459762 8.839747396821958
Mg 15.127656172883253 11.571596426019154 9.651657785628489
Mg 11.809776637097782 8.752623180840228 16.680265025908938
Mg 8.91942800410116 8.95607971496468 16.592558087178467
Mg 10.308159207415214 15.379393359268265 8.662183193726591
Mg 10.205328208826923 7.6696305352450596 14.170479866762472
Mg 13.394300315211911 16.293903447287207 10.040646887395535
Mg 12.194560353151106 13.364833789233801 10.188342037628031
Mg 9.56053400592367 12.35608300101456 8.549316577315848
Mg 11.814625256888277 13.295738910207671 6.822730244478756
Mg 14.005799558120797 11.150707766729342 6.809805487411221
Mg 15.90585080511612 10.139162089285968 14.35795855336319
Mg 10.776353300757432 10.797916227625818 14.260979344005086
Mg 13.324977786069123 15.57366865908166 13.085743743153742
Mg 10.757452567472452 11.705497895415139 17.218252018739744
Mg 8.388274239781655 15.736362402474182 13.386669440164704
Mg 13.637410665625874 6.9545392078986845 9.610703854306548
Mg 7.924153888120601 11.629106563287063 16.136382794045865
Mg 8.699682221686464 14.046690709012799 10.868774387959581
Mg 7.980425958481268 12.70490321716002 13.402079445423928
Mg 10.929712725351056 16.566165284999443 14.598671030143132
Mg 12.395962805489576 10.317148825784313 9.412637778972861
Mg 13.078355267753656 8.163394233905638 6.889941158863946
Mg 15.096407549656417 14.03588644381008 11.251787070693139
Mg 14.991699094159602 9.021447014405675 11.477001138035869
Mg 10.68949762764989 16.42169139751562 11.560477249938518
Mg 7.305133859631644 11.047399386052506 10.93924563293207
Mg 7.873526676320628 9.698555807981558 13.717545403216366
