49
Energy = -48.20977709 eV
Mg 11.683951506383993 9.671704433986895 7.541534315612029
Mg 9.410954430485072 11.783837986776163 7.396426902069075
Mg 14.684647137544541 9.089539883583212 8.59281836966847
Mg 12.459129855875608 12.62628583803561 7.74177328824236
Mg 15.346729436289039 12.214296634703965 9.316359233395222
Mg 12.22296730390984 7.71409679440562 9.997238179127297
Mg 10.436860741328191 14.622569820651588 8.90485128016401
Mg 9.375562156625254 8.891865925673288 9.342657187126829
Mg 7.520079616242279 13.779805787972796 9.029838169469217
Mg 13.684665078628807 15.375992110598972 8.710804704214814
Mg 16.544362784899125 9.610343053859356 10.981004224221204
Mg 15.797595919466945 14.72960290313262 11.137920303640268
Mg 7.037801252591428 10.910056995948162 9.329946642805396
Mg 15.128214772275062 6.934553618041333 10.755224914114727
Mg 9.995270985650707 11.90822084876657 10.220216520869846
Mg 12.793276620280032 10.756696349333083 10.119537462936915
Mg 14.473210387745649 17.33115408614551 10.961769885280157
Mg 17.694118102246208 12.362784371954575 11.640101169182557
Mg 7.81981387275489 9.577873366755474 11.938376053359255
Mg 9.928255127507803 6.956924440484302 12.196494856691029
Mg 11.557794402112366 16.446790424158497 11.04059056054336
Mg 14.848327274092073 12.091740868641532 12.341857637018286
Mg 12.77957822613673 13.574450290688544 10.734124319333468
Mg 8.402212605426827 15.648265772698135 11.251342693815618
Mg 10.3828417939385 13.79836337497189 12.38908065715146
Mg 12.861999480653173 18.11503088013118 13.295682260981247
Mg 13.798897422478877 9.249925570872989 12.359187534722592
Mg 10.75833888240376 9.664496322903906 11.92828147380612
Mg 7.453165598389397 12.656648938445255 11.938140244058294
Mg 16.1398545503102 7.615181270110911 13.459548339424634
Mg 13.491983344352349 14.82887778215538 13.336445360253682
Mg 10.314543005717825 16.54212452540954 13.860873441234869
Mg 12.236393902341861 11.614044060395667 13.392261173774829
Mg 16.757338371870993 10.516220834692163 14.07981543691002
Mg 15.640413746699057 16.892215671807897 13.80594464122907
Mg 16.71450686821631 13.916836915266684 14.04666369964599
Mg 12.943124199168647 6.5684780757301455 13.011722692245565
Mg 8.324716119119863 14.306186709554966 14.529430590906012
Mg 11.25511415872895 8.630127220664138 14.637993641703186
Mg 11.412673480082704 13.797555880634656 15.096423621618566
Mg 9.29073689095353 11.29565602656878 14.219479880392633
Mg 14.166454518735906 9.292011988124319 15.310368544355393
Mg 12.68451277677127 16.666335642114156 15.901420034376592
Mg 14.398580337595233 12.387011555228133 15.479599594533353
Mg 15.192763931262661 15.183193188195952 16.319609244803107
Mg 9.926062946794417 15.724567319533788 16.897179833873423
Mg 11.830385470716399 11.015067619568367 16.45930915722245
Mg 9.417001719257716 12.728958724744714 17.016832543826492
Mg 12.651651658907856 14.054866067145056 17.675332256015803
