44
Energy = -42.17326914 eV
Mg 13.0183720552749 10.645504909318602 19.51839246770739
Mg 11.83795208107402 13.106677723837182 17.967842573520972
Mg 14.881974127624384 12.807702125123335 18.416919837524816
Mg 11.357447627556073 15.315452050977854 15.770217978377632
Mg 10.814752339301126 10.559530297085528 16.859657238128626
Mg 13.660152620373244 15.440669426662575 17.955635737475127
Mg 13.87564433259261 10.463159199679131 16.699218724366553
Mg 9.277136076262261 13.101936729508006 16.183210691766586
Mg 8.848633040247732 15.574913045156274 14.120042496717923
Mg 16.41888448801787 14.95462156889902 16.760744799728588
Mg 13.447995660907825 13.204395247238192 15.183064963779701
Mg 9.110197172439406 10.506825951469185 14.397587681950121
Mg 12.92257524062315 15.051746483452156 12.313993081333379
Mg 7.395335350662596 12.917802240104173 13.94109714000801
Mg 12.12307559037936 10.218284340245436 14.105253130654338
Mg 14.167818415351237 16.339373095482692 15.17219195732997
Mg 16.348445390198766 12.003173704787821 15.820803462408685
Mg 7.750357116375739 14.47927652038204 11.540588679528565
Mg 9.975045162121004 16.550567748874208 11.428381705780808
Mg 10.834055079204084 13.020098185613666 13.30400437681585
Mg 17.104947438941213 16.990162095318706 14.623094692525646
Mg 11.726358973264349 17.534230460109793 13.688918401084504
Mg 14.754130307836302 17.80219640737927 12.666150326699947
Mg 19.65727856810889 16.239166384108167 13.327055687457653
Mg 15.845415786322864 14.333569578988762 13.44233902311806
Mg 10.27157760063809 8.870873348853152 12.126462583870744
Mg 14.015583249001553 12.09843424742734 12.35032070427863
Mg 12.403064463899193 18.269548380149438 10.827252440196123
Mg 8.741899426223931 11.494131287009637 11.505502585778741
Mg 14.550068011264031 16.344273992619815 9.957998176602397
Mg 15.150240170482256 9.688481389003528 14.061122245261002
Mg 18.557742638311407 13.905141426204299 14.808445645420274
Mg 10.327426009600456 13.738396851213336 10.245567375308328
Mg 13.21682392417383 13.545808658042017 9.481449738486205
Mg 17.55187299797196 11.408934890293196 13.129464510054301
Mg 13.374387664621477 8.788312013436926 11.619222252686829
Mg 17.198735154558054 16.376569113125182 11.536141332378671
Mg 11.638561728467078 11.036099631474192 10.514287228684639
Mg 16.07894039384975 13.712503594222733 10.351585315060783
Mg 11.689210458807752 16.158986376134337 8.950520375354715
Mg 14.678860673711332 10.83529241707181 9.616109531686721
Mg 18.772768313877318 13.794847128853469 11.722876659859013
Mg 16.325486302674815 9.101839613700811 11.388863774908353
Mg 17.816007931712956 11.327750984642028 10.163772259512866
