43
Energy = -41.5244869 eV
Mg 13.147610940270827 15.616766079036761 9.127425575437611
Mg 14.393933907357338 12.845258244929923 9.376780245941653
Mg 16.19360799858948 15.31030483006542 9.64360158351598
Mg 11.207128304336255 13.188059919826062 9.214104036693236
Mg 17.26405060796216 12.389432716327594 10.324630629125265
Mg 18.785053730000875 14.899408023125185 11.11969419533272
Mg 10.193045010521649 15.964846643078868 8.88985889542038
Mg 11.364042915968101 16.869235632877565 11.504247734084643
Mg 12.456063634725428 10.656868719623697 10.361373624704319
Mg 14.732487279437684 11.74921131876006 12.215499606650763
Mg 14.31329799910542 16.84069949316132 11.65025679526498
Mg 15.883081345671577 14.407504195376623 12.638016762116267
Mg 12.604755116288933 13.925181894734756 11.849156820465673
Mg 17.272165813973075 17.356174675868786 11.828563256999088
Mg 9.77463899001286 11.591939089961649 11.496487875356609
Mg 18.479809352570495 12.857916476813212 13.336976767882984
Mg 15.49401768937051 9.767229551644883 10.119346548935276
Mg 17.573154409653892 10.11866939642472 12.313425072425325
Mg 9.379621074835226 14.546636692233944 11.503504230661624
Mg 18.554331441439558 15.8601687324548 13.976391708809214
Mg 9.691400801782217 16.529996995065453 14.044195200332434
Mg 16.757442871129072 14.302341967362075 15.834700498437883
Mg 15.668109527203214 16.825629741164814 14.56811317037103
Mg 10.366891994339428 8.609872115549056 11.596724127640444
Mg 13.786312269619641 13.337448238716618 14.670348338444844
Mg 12.715210468228145 16.20985588188198 14.256590272703656
Mg 16.327149850071795 11.38953362851704 14.899088074383709
Mg 13.24360085630463 7.924504088608547 11.279582567063532
Mg 6.973642058480419 15.467583674629456 13.172452326758407
Mg 10.684098518421129 13.548974608457922 14.23081879105523
Mg 12.095015726883117 11.012751505053679 13.439579413231298
Mg 7.709073975528078 12.589700007024549 13.514057326851654
Mg 14.843468834214539 9.024698951172482 13.503841468528503
Mg 13.975808930915104 15.424792779380839 17.026796995650663
Mg 14.953929468998918 12.654185324735318 17.502419351074636
Mg 9.07092972566582 9.841489092753758 13.9646726287434
Mg 10.94334283055528 15.465295981713279 16.711479569452134
Mg 11.94428497461174 8.09266547044543 14.1169164867465
Mg 8.008664933176936 14.830642359523237 15.882258414879061
Mg 11.944959874145187 12.64431652281621 17.10499189489009
Mg 13.724992369990668 10.332826465454545 15.96644685404987
Mg 8.903186154417684 12.039202415942837 16.324990230139836
Mg 10.830452252428897 9.869287282494325 16.317012297599575
