40
Energy = -38.14608446 eV
Mg 14.284330525951953 11.407810180920235 6.591293378758446
Mg 11.924082104514293 9.531325379413397 6.175677783453143
Mg 11.667915747718002 12.226902414496067 7.676097324207862
Mg 14.394587782138926 8.503353396864005 7.506137764934146
Mg 14.309566382295346 13.753789519030612 8.547390368186518
Mg 11.264689354719325 14.867235053436385 9.128056270270408
Mg 11.8251041081943 7.030512766271282 7.791433584079831
Mg 15.096552638414684 10.8379185459158 9.375790439254045
Mg 9.638637399709449 9.199914000025796 8.050530577543045
Mg 12.012394351816914 9.904256010846826 9.775629241252382
Mg 9.65534820729723 12.348506506291267 9.866213346602118
Mg 8.506067476479425 15.320322876249817 10.893263554455473
Mg 13.671220720369456 15.357119947314015 11.193784036840192
Mg 11.075769452923893 16.950692420086387 11.14627617211434
Mg 13.728376905157093 7.498059756823106 10.225050162981159
Mg 15.696460398371517 12.99116910216131 11.385722680411451
Mg 7.798445739884455 12.446759825463852 12.130437780807043
Mg 8.767799067965196 9.668215728197541 10.985348757024962
Mg 12.65977243788377 12.574044947581196 10.764518496304241
Mg 10.532107302581942 7.204052600657391 10.435031717997713
Mg 9.252981598728272 7.538067298142985 13.259741213175689
Mg 7.70173566175778 9.942529217805388 13.840990850780074
Mg 10.63728469131874 14.051135374376265 12.549088786942605
Mg 15.357072882859446 14.904080353263337 13.711507563538726
Mg 10.9230728668845 10.989046083100032 12.692723499966126
Mg 12.150114197002924 8.184848801764188 12.87946364226091
Mg 12.494561998201275 16.170738514940012 13.855901714919797
Mg 14.223350234955555 10.246158286703125 12.16576971991863
Mg 13.158614606896743 12.86519055097801 13.785151240772938
Mg 9.493006478991205 16.990987106762475 13.614084571682369
Mg 7.635014041983189 14.827721273866109 13.909544053677518
Mg 9.120706832366036 12.342946329957307 14.905089458062685
Mg 10.419508763236184 9.444670689750389 15.314095491410376
Mg 16.005057069562262 11.713127381922599 14.241901452518539
Mg 16.45573975849582 13.893854000656377 16.295673507237396
Mg 10.443865568824506 14.92879523144562 15.665805258915931
Mg 13.434517926399813 9.935970363817813 15.03315175555285
Mg 11.665765512692747 12.119340830727612 16.43082997041854
Mg 14.600261456005951 11.79681125885067 17.021004908816096
Mg 13.472968169720069 14.646448494394447 16.339226323222874
