49
Energy = -48.78811488 eV
Mg 18.19738107308792 13.05895213709949 14.768550712888118
Mg 17.931781433408013 12.22748565181936 11.589965280661971
Mg 17.850447581079365 10.08192481140559 13.724873412484573
Mg 17.56356230143943 10.773646197913578 16.713999543865246
Mg 16.78842319419776 14.709206703817378 12.667458811543487
Mg 16.051754229156867 13.403171888679381 17.196509519026254
Mg 16.883536886326453 9.50246272137547 10.862924541019412
Mg 16.745174086135282 15.758207435081063 15.385565438204305
Mg 16.57237475006064 11.59345023527028 8.847420125340502
Mg 15.139340320086422 16.963097928552372 11.51364816292554
Mg 16.29909243559935 14.509942485245377 9.728676268189497
Mg 15.949714482292002 8.592604008255336 15.514874205156461
Mg 15.426271566049953 12.020949063189077 14.474986066330716
Mg 14.4998606628952 17.586340614372254 14.446262714891635
Mg 14.79932660943868 12.372341668420344 11.566114146131351
Mg 12.938356566595226 8.71805970574568 15.062294311966918
Mg 14.394395150779424 10.662333205776495 17.088215932735228
Mg 12.982919828835808 13.302831259466586 16.47232494869063
Mg 14.692638592744752 9.529843272915743 12.793871749706645
Mg 14.265029267083042 15.93178093710787 16.908984329543934
Mg 14.453368222774852 16.479307467227034 8.42259514483409
Mg 13.91550300663905 14.572860872237307 13.745500577350601
Mg 13.126429695073604 14.758132208270649 10.729960769503295
Mg 13.932713819046668 9.956355570279854 9.754240583470597
Mg 12.023029332579727 15.013230954425321 7.524071322863213
Mg 13.944568510525475 12.88040610967394 8.449796345636024
Mg 12.495382662410021 11.676488216005 13.838574306350868
Mg 11.80683932028018 11.983709734749947 10.832511836900427
Mg 10.961898318069995 14.254768273172989 12.799251536196573
Mg 12.24703317128635 17.185882027975154 12.560716625741609
Mg 11.338314051525101 10.719424503215938 16.650216158536455
Mg 11.770418266805889 9.080270287150274 12.117569500682551
Mg 11.663633092531441 16.003907899073237 15.337419133004476
Mg 11.657079710523872 17.264075601513476 9.53711100589857
Mg 9.983469734677218 14.491668913539016 9.599644682970387
Mg 9.921831720822071 8.942903782298432 14.528517150294183
Mg 10.768002671323474 9.469648571529707 9.260860974423407
Mg 9.527243215055048 11.56830190940584 12.993762721792026
Mg 9.408142810133784 16.73181153696238 11.588951365470894
Mg 10.043783880701502 13.285478494617335 15.628002316313117
Mg 11.035565175317016 12.167692478094658 7.777028095803418
Mg 8.667380447282572 8.99702792167577 11.529914794880531
Mg 8.780151066409069 11.662616913695189 9.7990410235471
Mg 7.946567792789948 13.989519742534847 11.757463548423779
Mg 8.327164573638951 10.818056385556035 16.31210732236703
Mg 8.5491859813987 15.549393024637718 14.292105103564527
Mg 6.930827361450907 9.581545978187453 14.08884126766827
Mg 6.565954935577302 11.273655542679798 11.798724583125818
Mg 7.050841275296514 12.828135991271841 14.465604519445389
