44
Energy = -30.87336313 eV
Mg 13.96928068293296 13.9969867482598 7.2000046304419385
Mg 11.762387296696511 12.111340971999686 6.48858039163595
Mg 15.53544216166121 13.385404154438401 9.674304578375814
Mg 14.278411532386292 11.033161588416965 8.116572629079716
Mg 11.094946618104917 14.773454573103148 7.616309840613209
Mg 15.560774341141554 15.67915535384395 11.896480021389355
Mg 13.270563774479418 15.448259474747141 9.719995643996276
Mg 17.53169351225064 15.312953452892678 14.072691995729926
Mg 16.72732907931597 12.875273170312807 12.56439700747675
Mg 17.19542976072594 12.494325039596651 15.680211707292987
Mg 15.407458527625884 10.655906476427443 10.930284452987012
Mg 11.541890015126379 9.68312583614357 8.139946715590433
Mg 12.162288249287206 12.440407525136255 9.74434686723014
Mg 14.846717919230835 16.93104084488703 14.569693875133778
Mg 10.399651488309123 14.917926954259206 10.540879254413
Mg 15.021661775603707 10.747671787472427 13.92643657701152
Mg 17.307614873191476 15.4816614417956 16.93937867035642
Mg 13.677110019614835 8.470422501926803 9.836363183482614
Mg 13.634973327416953 13.205153030081076 12.234734659793746
Mg 9.276644013506358 12.364745465248191 8.368584572321959
Mg 12.465043793508919 16.01897810637107 12.630831388256611
Mg 14.377050881827731 15.971083032074128 17.489072220448307
Mg 7.637090018806878 10.461136770489157 12.697457279840915
Mg 7.900566925388738 8.073366714946856 10.762393600791622
Mg 9.687836643905666 10.755923558006364 14.907032566237886
Mg 10.043074286034434 8.382830393237343 13.07203215640192
Mg 6.877111102499936 10.709573131258239 9.760880645162473
Mg 9.897564462054104 13.620342829736995 16.10328111258418
Mg 7.68981471368757 13.076133646578773 14.221318866421665
Mg 12.646934912046104 13.422591474866866 17.680636726734168
Mg 12.328039354505417 12.237752286160951 14.902243824160916
Mg 14.43752222665904 11.05404325633985 16.838065407212518
Mg 12.513035033415855 10.335337941698139 12.067841326519913
Mg 10.830055460506347 7.533964856453298 10.19359205571702
Mg 9.904052236577717 10.46791102077162 10.655237679677564
Mg 12.082666095256604 15.625063445475718 15.533751779940927
Mg 7.955048468698096 13.142248284295224 11.159470669586938
Mg 12.424897575964888 9.165892267536032 15.009690684809788
Mg 15.617052227179117 13.387833996620767 18.210533702537035
Mg 12.86512728533946 7.305777674292912 12.598962767548944
Mg 10.562329481488195 12.644752063086589 12.596238457896526
Mg 8.622775202075712 9.172395151164485 7.974251151814045
Mg 9.584564298154266 15.363669404885137 13.583465958447656
Mg 14.753036319885712 13.967580276739515 14.996078670973302
