40
Energy = -38.10805859 eV
Mg 13.403181633416466 7.882537513714519 10.2247705292016
Mg 11.497012947358462 12.872558505827566 8.470231318011313
Mg 6.206369568655492 12.630929384958606 10.093136666030912
Mg 14.393245283826616 15.845355026226114 11.675905190472609
Mg 13.765038388593211 10.596015533354981 14.82374524438115
Mg 8.367107209904757 8.555309578554022 10.248084054483845
Mg 5.971744318540348 9.958502744023239 11.730519990489656
Mg 9.513328167311766 16.498048735387858 11.697149420967174
Mg 10.775354250970395 7.460280061500699 8.577105022180387
Mg 11.861819854101984 15.539384278643915 10.086459392325487
Mg 9.100372845323943 13.954367791768185 13.43686083784098
Mg 13.341039102241691 8.150363173412867 7.126828685292675
Mg 11.507987799293552 12.843932298165969 11.640259415904131
Mg 8.411844436764602 8.652571337638884 13.302221312228951
Mg 8.698622384721196 11.491572993697753 8.422851452288779
Mg 6.751461371180852 15.100084831828603 11.713214275494499
Mg 11.50976690591581 12.756912498646832 14.901569344581636
Mg 16.096500574982265 8.606902087555424 11.681512241099934
Mg 14.191221161108613 13.421616044962953 9.9448417031386
Mg 16.43915883017554 11.145062391224213 13.186202874236523
Mg 11.159298808104047 10.18101230913116 13.105855169221869
Mg 8.759003237133186 11.398828216866727 11.59322832502387
Mg 13.781326525151131 10.728045450795408 11.57021513199329
Mg 11.860476783531544 15.425542269678159 13.281652421084706
Mg 10.778243564804106 7.367422382282401 11.71878051576442
Mg 9.055562795765713 14.107406108837576 9.968439533233047
Mg 6.315583506993655 12.498883851497524 13.23150050018956
Mg 14.137239695942842 13.280860705269104 13.415397205911574
Mg 11.140448911006336 10.142922507988734 10.045129655317641
Mg 13.41382633377144 7.985914987915057 13.27885976179485
Mg 16.689335974747756 13.771709992822567 11.669791489874454
Mg 11.129255251362341 10.172303530392012 6.913053902791885
Mg 13.834182761743746 10.806430469194744 8.39931025285073
Mg 8.76596072214054 11.263750837352433 14.844332116801818
Mg 8.466772851658636 8.801421095403358 7.148994039172844
Mg 6.0554417615490745 9.980337059800975 8.68870756194397
Mg 15.990838581513717 8.65671987851389 8.641443063625635
Mg 16.553243025004832 11.250251413500193 10.046095057316743
Mg 11.151778410469019 10.03566242752312 16.270247948118456
Mg 10.81314812628308 7.519517911083031 14.78209440993831
