43
Energy = -41.95033916 eV
Mg 12.265299832078542 10.672776024021255 6.406221138427881
Mg 11.775675976820352 8.133037821294256 8.071264173289554
Mg 9.608027906139872 10.329297017880899 7.677498645197876
Mg 11.600559133053709 12.973629813346411 8.221864167223712
Mg 8.566692871148678 13.174177932390144 8.667869395106203
Mg 14.532169748420031 12.439622361320582 7.756218219905333
Mg 14.622182902953792 9.150046079180107 7.112402060490442
Mg 14.766624745325878 7.861516951369337 9.882821144267227
Mg 9.45635295489903 8.413335924033658 10.151818939583459
Mg 10.59714390429478 14.556044436646605 10.536810839254953
Mg 13.053714059262264 10.432894149011496 9.607530039432024
Mg 7.326719871862763 10.670484389236407 9.797617197829606
Mg 13.614840096315755 15.038894573947642 9.326858933756073
Mg 10.350519260466008 11.345504351384697 10.461225989090236
Mg 12.043525203239748 7.067077870998255 10.909437044929932
Mg 13.066127634641624 12.790482414535225 11.430815461180739
Mg 16.369966812582483 10.41757328686562 9.118613749424515
Mg 7.727441197132395 13.074413738500843 11.528085267955182
Mg 15.970427802075225 13.155130132100272 10.326938746833804
Mg 14.922679310568203 15.419163349578534 12.12582344925615
Mg 12.321870281082608 16.98150985650443 11.394624351605618
Mg 15.173277733238768 10.348806103297713 11.828748029681224
Mg 12.05339895537763 14.86983323856761 13.500498081241032
Mg 8.895583246939363 15.556231861799928 12.831824944468275
Mg 10.400095494459773 12.548674967053332 13.082785247186262
Mg 12.17358626828195 9.985788887455492 12.561110399009396
Mg 10.115223591160742 7.891246938989195 13.141760680690389
Mg 14.25228647497772 7.571405515618541 12.866234427607973
Mg 13.65523217204577 17.46605422808785 14.152791224309244
Mg 13.024246132354872 12.246563029506706 14.552975603597147
Mg 10.721910303905725 17.587571691147556 14.134374112725212
Mg 8.026459680364686 12.909123803434149 14.76004721746484
Mg 15.81765788463477 12.745541064877997 13.378365678863199
Mg 10.191925585229136 10.258528560841437 15.089599246350026
Mg 8.356842188568226 10.292532184008591 12.615333446247487
Mg 14.808380143051016 14.933230681374908 15.241704064536874
Mg 14.76892674940012 9.90331052853942 14.80474307540066
Mg 9.282208078779826 15.475601882118744 15.756246433906703
Mg 12.211786109675327 15.891131674880228 16.416503348523552
Mg 10.612841573665238 12.967021139818407 16.600236810108807
Mg 12.5454132758996 10.521370594216917 17.054953557240854
Mg 12.37817709238489 8.15915205119636 15.206551833281445
Mg 13.539877128193142 13.338564265975311 17.474150950471607
