43
Energy = -41.37439298 eV
Mg 7.361909038012759 10.053479276295416 9.644802132607138
Mg 8.560897652332212 12.807301724248756 13.598733078827394
Mg 9.921575396857047 8.490804984105567 10.054814294314468
Mg 8.081712528343907 9.747749575981642 12.510248993447604
Mg 9.150493495675901 15.665796247027897 14.807321782301807
Mg 9.072270880858952 9.411375501392786 7.313498196311449
Mg 7.3956120441785025 12.734521490266859 10.788507967783781
Mg 10.691552958504614 13.313830853994741 15.875142198204372
Mg 10.939979089016628 8.33145244018629 12.841049147802044
Mg 10.253548469767672 11.30099911241823 11.16777313515147
Mg 7.990361541756085 15.420820885450441 12.121035693681469
Mg 10.004543856773603 10.4585661638492 14.881256455772535
Mg 12.88671300356436 9.242397186078326 10.701723968115875
Mg 11.90762278055085 16.097078610191094 15.693183641738282
Mg 13.630236345602977 14.048540701806369 17.723892179176612
Mg 11.703339070807166 10.54533293066534 8.288388036968653
Mg 9.188407123385135 12.25233830374677 8.306122063708857
Mg 12.001869776820866 8.301248017200399 15.59908203435368
Mg 11.468162962645005 13.969714048406074 12.894696236083012
Mg 10.713281207564082 16.84755680233436 12.490959410253604
Mg 12.638677492172748 11.128336226274824 13.371601427547319
Mg 12.618404696297182 11.131970812769998 16.56629405093343
Mg 10.042764742036265 14.425977794215113 10.202758409246224
Mg 12.093768989809217 13.575781605532175 8.00705667351304
Mg 13.699533143950255 13.605833234228294 14.824928616670359
Mg 14.115017880283055 8.434493735442427 13.517636901694157
Mg 14.705294357873196 8.884322905943522 16.57385670409576
Mg 14.86746411784361 16.327991480334433 16.070435735686935
Mg 12.883041477952911 12.434449249554666 10.618986401803918
Mg 13.660259747459547 16.478617598311214 13.260848726411144
Mg 15.512107433486136 11.095871912446482 14.699478031875262
Mg 16.583961517339837 13.745634146363972 15.98255905198614
Mg 12.797646165941325 15.621035563178237 10.428474695069358
Mg 14.753335195626601 11.114391515292889 8.67091890678594
Mg 14.936916475659993 13.722950973246585 12.149070067107393
Mg 15.050343982120758 14.200027275677765 8.927709096604024
Mg 15.415201026231122 10.64962635285686 11.724497580551558
Mg 15.454967520272108 11.596343489643848 17.77595337706984
Mg 16.71917151968985 15.819512890329541 13.755457882687733
Mg 17.62667652584915 12.729506817422143 13.214607992129451
Mg 17.140475495721635 12.39969463113477 10.057871546385828
Mg 15.67455748356496 16.46175228136983 10.931165090790032
Mg 18.17386660422971 14.922505122250199 11.270971736689228
