46
Energy = -44.48557395 eV
Mg 12.489482389880388 7.420125874226838 12.454331275944119
Mg 10.302123637429974 12.659761358778225 12.164958819991934
Mg 9.750117875660337 10.69721260179226 16.220211037501
Mg 15.190170429572758 10.483154280865262 9.086952430513284
Mg 15.800691394198653 15.379323736499968 11.495096313191427
Mg 9.885916272452118 6.232076585376579 13.44217854843931
Mg 10.59792545261989 15.38926241650878 7.9207221803827705
Mg 7.405830979047841 10.87288396679319 10.430540763842831
Mg 13.105427577925907 8.10428195074294 9.639014957970039
Mg 10.80070441134217 15.650902293227416 10.96476920817657
Mg 10.344259313396613 9.824003874797224 10.731964101797448
Mg 13.046623530753552 10.948111602417777 11.217014806734014
Mg 14.555883057101726 12.862740943076613 16.675516824165097
Mg 15.054028111021813 13.585999998982699 9.12924200438265
Mg 16.063307166921494 15.486580621654017 16.848740312740258
Mg 11.80023179916979 13.025673211235814 9.45109934221007
Mg 12.805514749117988 10.25859049100792 16.600163295611463
Mg 13.242827537690221 16.957284589592284 12.576680076574183
Mg 11.743136002042698 12.761146977596127 15.028333119085463
Mg 8.32060204379551 10.707918859327206 13.411759572375734
Mg 12.384700143541105 10.382455335919705 7.864643853391997
Mg 14.347361752932699 12.17703802921924 6.609584927034534
Mg 13.4609265094024 15.393962910460163 15.243848805766554
Mg 15.847603606201629 16.899009782778894 14.191235106063266
Mg 15.107656939082695 8.944708097631564 11.92193986929429
Mg 13.195928454988248 13.801090361982741 12.305028223000072
Mg 11.310782460726804 12.812007587233845 6.221839274883467
Mg 11.337618899451547 7.72746036807864 15.739346000606561
Mg 15.912103573644261 13.838862333215197 14.084536589317402
Mg 10.77998807069409 15.466087211389839 13.93860824711514
Mg 8.023202629593854 8.370587578695087 9.000744445940391
Mg 9.42212738306051 11.141034765925323 8.096622158697258
Mg 15.98425564539634 12.117864496651672 11.561448516598718
Mg 6.785568626804715 13.06588165081409 12.314666937302727
Mg 8.416148050044697 8.206063148490786 15.041220504242371
Mg 8.203898113117507 15.53822436545545 12.472500337789558
Mg 14.379775676242613 11.208102210568997 14.045788408371726
Mg 13.378115604150533 16.113458414985406 9.589125637705791
Mg 7.855333062611753 8.104438601234964 12.005222867771081
Mg 11.392570055281048 10.021171792114016 13.612401406226782
Mg 10.34117916939278 6.67382609319667 10.412722249398737
Mg 8.709569950446106 13.372785708273447 14.745552706736316
Mg 13.36903721890927 14.935621469251684 6.82415782957231
Mg 14.131231875581747 8.30270073310617 14.754789026157075
Mg 8.645171334351287 13.731781812801179 9.833895518828921
Mg 10.653125560166677 8.026523002984767 7.759025657515468
