43
Energy = -41.04327109 eV
Mg 13.7593556793915 12.869103771462983 6.929493759819006
Mg 10.948840160763236 12.78025808174378 7.7467943321653765
Mg 15.636198802693285 11.139286659547956 8.404096654534078
Mg 15.952441912495122 14.254715659007022 8.328218779002373
Mg 12.497120310127308 10.310674601329742 8.666781237616712
Mg 12.74503797173243 15.199743001416378 8.683298620389001
Mg 18.560181358351947 12.471996458967215 9.114913512566813
Mg 17.6731827431416 10.007052719701713 10.478941474693025
Mg 10.038859514898771 13.97583128806524 10.259074331094869
Mg 9.747302207811861 10.9233764836277 9.895662915073842
Mg 13.137595026712711 12.77376429360057 10.325690944126984
Mg 14.380107879610865 9.915078840887679 10.996961989489856
Mg 14.869026213748201 15.48068665999583 10.959387113366924
Mg 17.966809563874055 14.987909190102053 10.472907777689052
Mg 16.02081974453247 12.611477267191113 11.022917869403601
Mg 12.040800644669172 15.394920013406677 11.86009312998343
Mg 11.512037208042031 8.796518977028999 11.321556566482531
Mg 7.822170225332945 12.525142170389387 11.782981956344608
Mg 18.66410745239542 12.326369079940067 12.297680915397027
Mg 16.391470317904 10.339162581207585 13.254370061102842
Mg 11.736627464772427 13.924379362482991 14.698351413573002
Mg 9.19016624887334 15.10869494124637 12.893770545572448
Mg 11.06441044237559 16.953164586532818 14.444692274640166
Mg 6.3787372235675655 11.09717532379015 14.194373790721498
Mg 10.67327499301752 8.401154609772801 14.273254765652375
Mg 11.337814546505825 11.723203290966396 12.456986664706
Mg 17.515580713920603 12.39852639455805 15.066017135457107
Mg 16.784468769941892 14.698758212454305 13.257312365759747
Mg 8.711350787043738 9.759294537671884 12.637398163123585
Mg 13.511604908085099 9.350380506669481 13.728389261531156
Mg 14.09742363503175 16.280282564269772 13.88195669487862
Mg 14.140617742219225 12.808275146931598 13.268863955829127
Mg 6.551429762868068 14.11494806905813 14.212998457062078
Mg 8.935078440454028 15.125254754889953 15.92350645692257
Mg 9.229783996069285 12.364725198503997 14.403375493494318
Mg 7.062828547355575 12.560212722820456 16.695839330124606
Mg 11.749910107547601 10.807099464142949 15.667913530519034
Mg 15.249725329673813 14.270707514641261 15.887175041974423
Mg 14.867717722820593 11.151874291941072 15.882100074598918
Mg 9.983070523735346 12.646162876379337 17.311048421271217
Mg 8.651680264868846 9.935088290640818 15.99680715761668
Mg 12.842258050590345 16.053260571306723 16.665439908593484
Mg 13.006434760233523 13.019768889509528 17.38606507583643
