47
Energy = -44.56496284 eV
Mg 17.60667106367664 11.404677981800804 11.597875422514855
Mg 17.210409883173313 12.91737583875577 8.616970632973471
Mg 12.855704849208077 17.237447310879837 10.264199614482932
Mg 15.281656765045206 15.32623118227171 9.239590306274621
Mg 15.260025855161462 18.445823619591618 8.983517385926403
Mg 16.563622916659586 10.004530804065071 9.224550201329839
Mg 14.832443919171137 9.689633696937396 11.964022867945138
Mg 13.72310424686472 9.496032459290168 9.051270692114135
Mg 17.294077945291566 14.300278375551871 11.323361846853903
Mg 11.700311873981653 11.694396692454928 9.12986230322036
Mg 12.612775672959094 14.284974761135729 10.49444463441693
Mg 17.095832136810397 17.24997827176284 11.011274650658471
Mg 14.6888318811302 18.92639421193805 12.00778133435583
Mg 15.215994244403714 12.472432882632235 13.240732584997268
Mg 11.719670626760088 8.88993532162911 11.122217699839155
Mg 15.441420127923685 14.760105921335205 15.211469525526505
Mg 12.469111922278909 8.966315320589333 14.020709703417353
Mg 17.698546589450856 16.32847762576954 13.745029033773747
Mg 9.843377450642588 13.304356260016267 10.941868118548005
Mg 12.368770204369467 17.753383387335536 13.410904725533188
Mg 10.442191297934395 16.128052280646678 11.634523592041335
Mg 14.727401379016323 15.749840855863418 12.321024555134906
Mg 14.744995517546784 12.272207559846986 10.188426306626768
Mg 8.048018804001426 14.94697063325527 12.872806891362826
Mg 15.233078650813018 17.743631456931347 14.680949030544479
Mg 7.656236677785641 11.830462246917891 12.351542656334853
Mg 18.126838280981573 10.297524265455484 14.331657980032231
Mg 18.125647172499587 13.36495622083243 14.086305934367488
Mg 9.207861293138286 10.421645462734501 10.228784630084684
Mg 12.629807779857945 14.324884682362168 13.793056837430147
Mg 14.049347744565363 13.811255823000455 17.725737158694937
Mg 10.094139481074295 12.821949266178283 14.050592130896923
Mg 5.955662930058374 13.31126210971719 14.326814752710577
Mg 10.262579347421878 16.087704924855135 14.727225701778751
Mg 12.988231796570147 16.246879318288535 16.186761321739155
Mg 9.699482993514414 9.820805267755448 13.303014319780372
Mg 13.248461251648141 11.80503829478954 15.555091279542701
Mg 16.415218004394415 12.14069158975188 16.183885143027332
Mg 12.346476682046724 11.684477855058734 12.254018901721603
Mg 15.301251285676894 9.554188272189888 14.96099303575576
Mg 7.916268053268671 11.244286000498144 15.428599964741705
Mg 11.081260874465901 13.793910493493598 16.83234387007648
Mg 8.284106956283466 14.321600221688682 16.012764278878425
Mg 10.588190901688774 10.370090255754393 16.177859077852887
Mg 12.098213655742379 11.571154379249242 18.614101540710692
Mg 13.087212136269317 8.90397493699847 16.9133275936331
Mg 14.940766088031937 10.785804424392833 18.307718054398606
