40
Energy = -37.6059356 eV
Mg 11.063433468346352 7.593033994065385 8.037926193535595
Mg 11.328272471808866 10.653473349130573 7.7551523254554615
Mg 13.466696174576997 8.663265510857155 9.366481790502712
Mg 9.23413243336221 12.388394141410242 9.369158502627664
Mg 14.18129891406011 11.545386448174874 8.505301207397943
Mg 11.931887268505262 13.595654704637303 8.77028582534269
Mg 8.966851485259895 9.3689190036604 9.208292294257326
Mg 14.845899171455182 14.34245011856016 9.638439947498581
Mg 16.33542650751646 9.338384108404012 8.929910042022064
Mg 17.101038558721104 12.150084956204022 9.876835646119561
Mg 9.701935228936238 15.334418587495103 10.20377477929385
Mg 12.555744419435383 16.33658860560195 10.149443578060096
Mg 10.884298731936477 7.805610700541679 11.061262510797434
Mg 6.650760840229126 11.13624507583243 10.57326635743302
Mg 11.690490164835122 10.848026356296455 10.741036910547447
Mg 6.924079059875103 14.064073409592302 10.55254808162967
Mg 16.98976319335261 9.226104500039927 11.737590352984187
Mg 14.29976284205579 15.977646518756693 12.618474381125004
Mg 14.664618088659273 11.353340683632565 11.49877843768794
Mg 12.760303188919897 13.591998313054734 11.70527945668689
Mg 16.831394739761745 14.514872781304877 11.807755839375394
Mg 9.035873841104705 10.079549143444439 12.14514399072994
Mg 9.982889945548315 13.058630432660452 12.333489067420167
Mg 7.099551888884617 12.683432104881936 13.209544807672298
Mg 11.072856921780476 16.25569042056405 12.764675971429483
Mg 13.505635260383485 8.699611800672068 12.476658324647257
Mg 7.831731105150988 15.785511538874553 12.73844439251948
Mg 17.733619909801316 11.912152479291763 12.84405263358905
Mg 12.278031746135884 11.288434644869763 13.723790006842801
Mg 12.328338871839321 14.288102295648073 14.690086834301285
Mg 10.793401135816497 8.498507832627956 14.091648891034371
Mg 15.545395128557093 10.297794202349007 14.265180209906145
Mg 9.24368742713894 14.371022419134171 15.004033644815578
Mg 9.367467655198478 11.194158060345375 14.880225407092244
Mg 15.055547711234702 13.285500805519954 13.959297978016137
Mg 9.179034041796157 17.568020474408534 14.871310511168225
Mg 13.427692129229149 8.628527233596042 15.553459621537929
Mg 11.021125922558328 12.717270394760805 16.88520206057475
Mg 11.168742958609872 9.770006346139898 16.91324840547393
Mg 13.746539856069635 11.61535591140582 16.368763189295542
