40
Energy = -37.57880706 eV
Mg 13.921684158999573 8.944067002258285 18.2170202392705
Mg 15.586767160505774 9.753040841486428 15.89024403365546
Mg 14.130770519696403 11.910028604240953 17.811537207236487
Mg 12.478905100100004 8.571603307077766 15.509639423042183
Mg 17.318634566593584 10.426927250870422 13.570087925691219
Mg 11.41595713107371 10.380441604225826 17.738308006146713
Mg 18.70629267846904 11.505121355733074 11.243348183215407
Mg 15.979141663637279 12.864555294361184 15.281244723145138
Mg 14.299330953845526 9.191997805276186 13.083740241319001
Mg 13.788407545232381 14.6868116750217 16.37987241892419
Mg 17.404998682563544 13.85946521895805 12.704056367078355
Mg 13.164821420456498 11.605694184428284 15.058565295290842
Mg 16.040244391025276 10.119460232872784 10.574690807934617
Mg 15.59374619426852 15.857131459366958 14.24246148364094
Mg 11.168536890092266 13.243242971323985 16.727987742539135
Mg 13.764099306415448 17.738455332334937 15.806783900096548
Mg 11.140757412028298 8.770510841882738 12.816319241997405
Mg 14.880347839395768 12.13284701199226 12.576971933628675
Mg 10.097296946141242 10.746413403876806 15.07270965054381
Mg 16.441164635037534 13.11831486877239 9.938162245342932
Mg 13.317039291681988 13.272526555907945 10.447311771111586
Mg 11.255669728493686 16.148844659158183 15.431419557956893
Mg 12.843679853965975 14.326224288633943 13.397805795259927
Mg 15.090348232603572 15.525133992357942 11.34407421258397
Mg 13.068202653582329 17.36375081650657 12.972595678871828
Mg 8.441380254554447 11.65238475669777 12.48172892110554
Mg 14.48821063891093 11.501910954226664 8.276550482460328
Mg 9.77810103262224 13.754205812545182 14.158479210584115
Mg 11.710948072917667 11.661271495476223 12.565164764431636
Mg 12.173116763260248 16.116531758846758 10.249720821054387
Mg 12.98253233579607 9.973024729817576 10.416979176466914
Mg 9.883776045957442 10.25477608208248 10.376013041569996
Mg 10.06763876800073 16.459656645031234 12.60869403898413
Mg 13.249245978023591 14.302571056513601 7.608596055616761
Mg 8.289950403615666 12.840671055021923 9.501542080412342
Mg 10.458907104375209 13.848042329306391 11.119118511761659
Mg 11.325323682532789 12.051762105974818 8.504318823084832
Mg 7.444086215642824 14.541236356308758 12.120627506117751
Mg 10.337592773268328 14.878089941604173 8.030915452121468
Mg 8.388243483391927 16.07646544886364 9.879900456699986
