48
Energy = -47.96121151 eV
Mg 16.794080005402733 14.515225440098648 16.06319801172457
Mg 18.144665934235498 14.851200788696797 13.442848103861854
Mg 15.831705277278973 16.85279577910644 13.768473669101992
Mg 15.075641047305153 13.929805060049013 18.4304252093554
Mg 14.114978653476356 15.775497733519947 16.112716134707572
Mg 16.877054843696286 15.555349085206522 10.83284644426239
Mg 17.3743206442929 11.967321478655185 14.389791054648425
Mg 17.794354097130938 12.553532316554467 11.465844403885155
Mg 13.947016439907177 16.21772105706451 11.334012942437793
Mg 12.759400998762588 17.451407528876583 13.902549108417208
Mg 17.06276501316521 9.65030182359279 12.325000070849772
Mg 15.05540514844561 14.013114897710437 13.254111094633519
Mg 12.139424352964786 14.04571678468676 17.81853037720473
Mg 16.51557075915051 11.573482947325118 17.380443832343648
Mg 17.507941171853385 13.471122354662006 8.57909285986769
Mg 11.20735038956537 16.579117538838844 16.41719990893193
Mg 14.96386591824424 15.30063474567345 8.370357434480823
Mg 10.862039386815674 16.26906760735903 11.67024135665448
Mg 15.695303843958326 9.63271598628225 15.120448589719803
Mg 9.275122782265882 16.390865056541216 14.14528343595269
Mg 16.546672186092092 10.529851162592085 9.405042701567943
Mg 14.998150729715531 13.068156540129165 10.362296201522907
Mg 13.604998095218273 11.326467111304046 18.50365040953931
Mg 14.320814496899736 11.091476621153754 12.631296235495517
Mg 12.954127325658385 9.47555510884594 16.166283200782416
Mg 12.258062751586136 13.242802577473663 11.336399305024447
Mg 10.820433784005505 11.303776335669689 16.95969243833067
Mg 9.649004353147317 13.948951008481611 16.044943320728205
Mg 15.176207356181699 12.313237469900804 7.271661024859513
Mg 7.623958914394605 15.211248633709593 11.670592897379573
Mg 14.057168496276576 12.435256174882898 15.59944766312467
Mg 12.150450851576178 16.183386201758754 8.977664375730246
Mg 12.118128709721477 14.515269982164847 14.15110262690636
Mg 9.608763970677538 13.353918028612219 12.735472425896791
Mg 14.64701997304732 8.549761283804665 10.833378576221412
Mg 12.424274157159015 13.335910381451344 8.070286319097452
Mg 13.360852500123015 10.682409432458769 9.18596613421903
Mg 10.4683500365726 8.898863773810483 14.38468061688585
Mg 8.4696591367748 11.38138616763024 14.909425146787486
Mg 13.462904923792491 8.226857025599632 13.599630009205644
Mg 7.077982318231448 14.296078115425026 14.545484616536484
Mg 10.408947708262195 11.38648439984422 9.566587575025588
Mg 9.79958251345364 14.411703557612414 9.502418274762782
Mg 11.658848652463947 11.503449307623782 13.917462866740866
Mg 7.648398226987941 12.497503292067375 10.156987647841484
Mg 8.895423536249625 10.328551642774029 12.09302543555475
Mg 11.75769471915842 9.462061638742817 11.498440903182832
Mg 6.408319663326811 12.151950766819109 12.721826494982187
