44
Energy = -40.78443329 eV
Mg 15.811074960500632 18.466422660626705 12.1764409958635
Mg 17.309995697257484 15.867746852058596 11.67796496190789
Mg 14.857957651196601 16.760814140973554 9.879778718973185
Mg 15.156747490062042 15.963979501399276 14.054553643515197
Mg 18.081903276539144 15.108128780576743 14.490933150632227
Mg 15.470714413380216 12.320528369702792 7.260693434560712
Mg 12.910889307244318 17.497163830292756 12.325999411068372
Mg 14.234384326169742 15.172942937913183 16.96266829587111
Mg 16.23710596384326 13.771191286348055 9.75076463364418
Mg 13.591882242421539 14.631899831130234 8.27981688996718
Mg 12.251199786174551 16.761408603120728 15.15378601834784
Mg 10.616611212379693 15.398061644309673 13.063844686484662
Mg 16.290479245529387 13.280703485596447 12.763663688171151
Mg 13.737608439132037 14.501104029648504 11.647314270959994
Mg 12.48319001189547 12.051235973531393 6.917919200865714
Mg 11.654360941052769 16.10287524234898 18.099399286885674
Mg 10.77386241235032 13.120818172710997 9.017415346742258
Mg 10.059847119321297 14.733828663972387 15.932169342975422
Mg 16.068459817912434 13.22290980421536 15.779369009831978
Mg 12.991483607547803 13.822057334787365 14.526456066264524
Mg 13.630882911870158 12.012203169040745 9.84089798667386
Mg 11.395336911271963 15.844159166632632 10.22429907923204
Mg 16.348775305057213 10.601831081129639 14.204621322389519
Mg 16.31166184396851 10.886808423062346 10.816567919563843
Mg 11.985519549948888 13.132852399217148 17.577759758103184
Mg 13.843495720891209 11.50301028213579 12.813107048970522
Mg 8.743835540360168 14.116649272461782 11.023012127211876
Mg 14.154666817325058 9.628639445478933 7.860223940532815
Mg 11.267395188206912 12.69948474627699 12.002298614112265
Mg 16.578975864360864 8.184263001102048 12.271149514755328
Mg 13.745908307413796 11.040094463250439 15.999949758735882
Mg 8.515822128291786 13.179349681993742 13.964961196235729
Mg 13.865230008127098 9.04651974872435 10.826205898044984
Mg 10.943355130797821 11.636090992407787 14.992902051765956
Mg 11.413998736447114 10.070867450665663 9.180511097797211
Mg 8.934104208972675 12.231155698185802 17.22591257235122
Mg 11.42143892709246 10.251330241488674 17.942168510559956
Mg 9.090187939513646 10.99366570058916 10.741997387401208
Mg 13.976386205842184 8.546386738449877 13.783762249693249
Mg 11.32682848950673 9.694526288056586 12.429402962561685
Mg 6.591289548335743 11.961079828506307 12.016270611218134
Mg 8.556004054741036 10.147014377745963 13.748385260662769
Mg 11.530082286588508 8.63618432851355 15.368444368920308
Mg 8.89763956195747 9.26979509057207 16.64390239892433
