42
Energy = -40.15772198 eV
Mg 16.147431559017182 11.860349953429884 17.33445183965061
Mg 13.653274690092228 13.430670920618788 16.994679985991553
Mg 16.420722574828304 14.396471458420784 15.614169689672885
Mg 10.934073540947255 17.26392579435031 14.575874736213072
Mg 10.80896474990417 14.656413265604046 16.052396169321174
Mg 13.679713801746066 15.607347428984424 14.924072057521348
Mg 16.22283627787105 16.248533260755583 13.048050463747812
Mg 13.338469498879773 17.541597178711367 12.673762149932578
Mg 16.578492150867774 9.515860106451608 15.478838242398856
Mg 13.707479350393662 10.450955913793816 16.07272311916417
Mg 15.117657425209918 17.15937587161666 10.299069016624523
Mg 18.241702395273386 11.921346274197449 15.213246618912791
Mg 10.767297791228954 11.449484122912281 16.525051622931727
Mg 8.522784174097128 14.978210524994275 13.818344540740334
Mg 15.23060421041962 12.169667923032403 13.962124125067405
Mg 8.288547676138055 13.02289443856968 16.29019118875998
Mg 17.72474410005752 13.611453138088809 12.819893559197158
Mg 12.419095780295523 12.767371508232461 14.329469855030203
Mg 11.377739378560312 15.006225757912931 12.697871729068257
Mg 14.170675102555231 14.322560564431372 11.966965344128987
Mg 17.17181247773309 15.029232933344725 10.244284519137878
Mg 11.471212704608195 9.743996705258509 14.012312637912057
Mg 12.254018991097992 16.255925127428416 10.120512104051828
Mg 12.929333316108186 11.371753562346742 11.802791623656763
Mg 14.471969377989144 14.572651809442263 8.84267711338572
Mg 8.438242435514901 10.327551196613731 14.665185906196015
Mg 15.85045836695524 12.192130537802768 10.798380399169078
Mg 16.877546144721393 12.900261425171333 8.011096468494216
Mg 14.49036114945949 9.155807618870885 13.337343669669595
Mg 6.455117654899957 12.615550260082484 14.078549112384128
Mg 9.867982280845457 12.312805459970548 12.745028719718142
Mg 17.33256350053642 10.333987572135252 12.645811767650342
Mg 9.327549945439928 14.96591640108301 10.530351151344775
Mg 9.667596023792482 9.361602641462806 11.553052682260402
Mg 11.798054934698829 13.253089993690832 9.792007898913884
Mg 14.814321648850221 9.407848686906737 10.296457159824879
Mg 14.034796551880198 11.592076295182151 8.299431680681886
Mg 7.039554459346102 10.674859307213863 11.93462087251494
Mg 12.348862529663359 8.148442521086888 11.460419563461578
Mg 6.938707784811761 13.625491843238665 11.367391665349052
Mg 8.962098193354404 11.856469199803039 9.81150608221283
Mg 11.62056720886172 10.083574052008467 9.261559594575521
