41
Energy = -37.70294769 eV
Mg 12.476706508354233 18.12722023124707 13.678955774610692
Mg 9.958570445676324 15.919639680713267 14.068560848208797
Mg 14.734218631367554 17.82106759530563 15.660975954011954
Mg 12.361346001686428 15.88696937757538 15.840017030712191
Mg 14.943410113593012 15.260926854973055 17.386898580303075
Mg 10.360204525591035 17.763761926183776 11.660518498926184
Mg 9.104198838694542 13.148371182443114 13.256697557637212
Mg 11.396363799672542 12.595389338888907 11.173788090280025
Mg 11.813155741828913 13.216626054557338 14.643574809575728
Mg 15.322259116290413 17.68835759982854 12.383274806966137
Mg 12.565419721706185 13.538809317969395 17.797107438279568
Mg 9.667988019190782 10.989070978234247 15.285583874452557
Mg 17.292557300641267 17.04698341301311 17.35710997865702
Mg 9.647431032680416 15.099007015733854 10.705540618377173
Mg 12.344805802479206 15.321146097772484 12.346600267492708
Mg 17.425637143548965 17.264277300798188 14.380786460544495
Mg 14.88403436295059 15.154380611642521 14.078458849737117
Mg 8.320889692438861 12.445034016290544 10.353580419226894
Mg 12.416087029855882 10.876584297859264 16.575241450820776
Mg 13.093469335644151 17.67183507849821 10.409975703619118
Mg 9.011446331916286 10.284342355659117 12.251682610300225
Mg 12.305268866638027 14.955121317763489 9.21319910667908
Mg 14.232564202661372 12.50517461936175 12.623093676361314
Mg 14.945824277137271 15.112144313917325 10.804347325047305
Mg 9.843746758728063 8.205225002677826 14.118434330771226
Mg 17.463625238129175 14.467040973486439 15.681570413698077
Mg 17.52536829741951 15.10598951658224 12.499122270571768
Mg 12.009494669197906 10.390208047479714 13.376372047401649
Mg 14.775295619311951 12.707181983696453 15.848607372019222
Mg 12.681813806826868 8.092597778701068 15.553890446955204
Mg 12.014745458686468 12.212653021678884 8.11322303219748
Mg 10.254831666300161 10.291015085662352 9.389221510909598
Mg 14.63873160279659 12.527928208428783 9.331476878995359
Mg 13.206977815439881 10.212780101667464 10.490487657142468
Mg 11.15529444606503 8.178845377721611 11.281256250189285
Mg 16.98940214857187 12.730182351590246 10.991503790230476
Mg 16.082179690345257 10.08654917885177 11.886202879780416
Mg 11.916828893077371 6.0775549189127185 13.46932606514503
Mg 17.142065538745857 11.996461001526024 14.024609019993845
Mg 13.993804238596 8.091465422339537 12.569644722148654
Mg 14.951040737165384 10.015186849826788 14.74280295107285
