44
Energy = -43.07351318 eV
Mg 12.07675332 14.293167118779817 12.07675332
Mg 12.07675332 18.480390811250064 12.07675332
Mg 14.329785770862996 14.329785770862996 14.329785770862996
Mg 12.07675332 16.5243384087249 14.303533184480145
Mg 12.07675332 12.07675332 14.293167118779817
Mg 12.07675332 9.860339521220181 12.07675332
Mg 12.07675332 12.07675332 9.860339521220181
Mg 14.293167118779817 12.07675332 12.07675332
Mg 9.860339521220181 12.07675332 12.07675332
Mg 12.07675332 12.07675332 18.480390811250064
Mg 12.07675332 5.673115828749933 12.07675332
Mg 12.07675332 12.07675332 5.673115828749933
Mg 18.480390811250064 12.07675332 12.07675332
Mg 5.673115828749933 12.07675332 12.07675332
Mg 14.329785770862996 9.823720869137 14.329785770862996
Mg 14.329785770862992 9.823720869137 9.823720869137
Mg 14.329785770862992 14.329785770862996 9.823720869137
Mg 9.823720869137 14.329785770862996 9.823720869137
Mg 9.823720869137 14.329785770862992 14.329785770862992
Mg 9.823720869137 9.823720869137 14.329785770862996
Mg 9.823720869137 9.823720869137 9.823720869137
Mg 12.07675332 9.849973455519853 16.5243384087249
Mg 12.07675332 7.629168231275098 9.849973455519853
Mg 12.07675332 14.303533184480145 7.629168231275098
Mg 14.303533184480145 12.07675332 16.5243384087249
Mg 16.5243384087249 12.07675332 9.849973455519853
Mg 9.849973455519853 12.07675332 7.629168231275098
Mg 7.629168231275098 12.07675332 14.303533184480145
Mg 14.303533184480145 7.629168231275098 12.07675332
Mg 16.5243384087249 14.303533184480145 12.07675332
Mg 9.849973455519853 16.5243384087249 12.07675332
Mg 7.629168231275098 9.849973455519853 12.07675332
Mg 14.303533184480145 12.07675332 7.629168231275098
Mg 16.5243384087249 12.07675332 14.303533184480145
Mg 9.849973455519853 12.07675332 16.5243384087249
Mg 7.629168231275098 12.07675332 9.849973455519853
Mg 14.303533184480145 16.5243384087249 12.07675332
Mg 16.5243384087249 9.849973455519853 12.07675332
Mg 9.849973455519853 7.629168231275098 12.07675332
Mg 7.629168231275098 14.303533184480145 12.07675332
Mg 12.07675332 14.303533184480145 16.5243384087249
Mg 12.07675332 16.5243384087249 9.849973455519853
Mg 12.07675332 9.849973455519853 7.629168231275098
Mg 12.07675332 7.629168231275098 14.303533184480145
