42
Energy = -39.86451831 eV
Mg 11.16485361483409 11.093979735231907 6.874214944963082
Mg 10.53449431884906 13.985388847621342 7.514633652622202
Mg 13.1855449364684 12.693041666794082 8.285602545760595
Mg 9.783427999516842 8.891404653460913 8.064073494999493
Mg 13.364818367537685 9.597290531549959 8.996269530396017
Mg 8.469031882521126 11.734179057935782 8.374720662834983
Mg 13.031306552476552 15.756374007342297 8.790227571647169
Mg 15.863444215145039 11.758314922883937 9.545158110126515
Mg 8.123625200407002 9.424346447425913 10.518840503572566
Mg 16.053506808791724 9.122024874798036 10.74778702891694
Mg 15.711996205828921 14.401526151886982 8.198158651186999
Mg 11.408819281720596 16.9363929859744 11.111232681049195
Mg 13.773582194292207 7.3915417552441625 11.742765384069182
Mg 8.340894385844608 14.560009359749394 9.570810041845068
Mg 11.010100318114661 7.957717405441581 10.596899386261642
Mg 10.985555672664823 11.133443570140965 10.117659170246684
Mg 15.758201785878324 16.97442737056356 9.448946686568096
Mg 11.080921387643867 14.06109046879894 10.479666352819978
Mg 13.83971008959003 13.460941514975907 11.197647055722356
Mg 16.649391794938765 14.488900889756653 11.178238930496647
Mg 8.481358128349337 12.224331575566671 11.535239855060466
Mg 14.330309229236235 16.49515676382364 11.927521556600595
Mg 9.289185358136823 15.03654356031356 12.708458195635588
Mg 13.344882992460475 10.51137395701421 11.936986785222924
Mg 7.42352280010003 9.731746703093926 13.565554515894823
Mg 10.376725120213226 9.93886143647728 12.866161115842225
Mg 16.273189087792556 11.758571500883065 12.600509943287419
Mg 8.542740107248239 7.162964683090448 12.33220759506458
Mg 11.259411782998434 6.232522096668782 13.069318762777403
Mg 11.536387251999491 12.73388298776691 13.228242567060455
Mg 14.81074377015963 14.165099382965835 13.960611556348825
Mg 12.151889221099708 15.78016770443048 13.81255754923116
Mg 15.630714064418848 8.971878670336682 13.657099197869135
Mg 8.581948335868711 12.520939862221658 14.508754744039685
Mg 12.801368563498407 8.422156598854901 14.485520733079925
Mg 9.893366795681388 15.128666132592238 15.64470253608921
Mg 14.105518710220245 11.333565329679136 14.790021732739655
Mg 8.325127878280746 10.194746256756329 16.425600800410702
Mg 9.762981782261997 7.9112034671630616 15.115113121685878
Mg 11.267256831990103 10.656879023485486 15.775717451731202
Mg 12.507372936051887 13.656198669438663 16.073757709742896
Mg 9.871337963006905 12.710773143937757 17.327355312617257
