41
Energy = -38.66731834 eV
Mg 13.243855623955632 12.939902634443142 15.772287996031737
Mg 12.19967027672124 7.785453184593206 12.402780858864688
Mg 16.373449107507774 13.311012545185951 14.963641825943297
Mg 12.27808801924485 13.554873978628782 12.761613548956662
Mg 12.811395984926722 14.033930068157284 6.679866705348535
Mg 12.573304009224461 8.329213314557462 9.341556121629548
Mg 9.669738813325127 9.435879315217264 16.414476780544568
Mg 11.035279802130527 12.009717015568537 17.683995380714418
Mg 9.400128227216921 8.375364124529543 13.414986897259466
Mg 15.245197083244042 9.634042819229133 8.562337840048695
Mg 12.777907198247043 9.72759273466735 16.979174073262534
Mg 14.248019465815304 8.640778992925416 14.506439430988973
Mg 11.939664240406968 16.830891474586377 12.555128962861072
Mg 10.044126952816992 15.123676037942724 7.535413037093877
Mg 8.747337204009757 12.757125878651062 9.164333805633909
Mg 11.761831337590111 13.40798444911934 9.659400183934043
Mg 16.334054485136143 13.876030777103814 12.017583766330379
Mg 15.149266873810475 14.825213679834462 8.474947299310543
Mg 8.43059277427836 10.273277156829751 11.135772565793069
Mg 9.482767269805182 12.924887502721429 12.097588698752963
Mg 15.434431489664124 10.778838481511782 16.279508412550268
Mg 11.804431612316826 15.640401120362336 15.37406110139128
Mg 11.53631856736606 10.67777315924522 14.15838783173972
Mg 9.380637493433255 15.705452205598794 13.496805478696638
Mg 14.658676845437766 9.151746736144638 11.436577039111778
Mg 15.340684084006243 12.256805625006818 7.107102069581467
Mg 14.486237553038956 11.545330406528516 13.283963743127655
Mg 11.710923716416891 10.738392223586589 11.125358772835567
Mg 13.999393166613107 15.40484716339656 11.047719242249036
Mg 14.473954004104478 12.193051473208671 10.279404679199992
Mg 12.402858494435346 16.42200995632408 8.760084587664606
Mg 10.290149433419185 12.36428378491501 6.584738831485752
Mg 11.599436431743086 7.4579825512188656 15.361204438235916
Mg 10.06268428394957 13.263035669263978 15.115461313125364
Mg 8.0841510062821 11.8881612706405 17.04351990006231
Mg 8.192655907124843 10.979876636761364 14.165099515159383
Mg 9.884713263223182 7.739963174236287 10.499158914286715
Mg 9.960833097463968 9.982943581225765 8.502033766679496
Mg 12.673188396548076 11.04821656066684 7.831066615161344
Mg 14.449422954700903 15.387185314561725 13.999081940497119
Mg 9.930704697544025 15.679016469348403 10.528497276100396
