47
Energy = -45.8010862 eV
Mg 10.35515126942764 17.211458911546313 10.717639243176523
Mg 10.234669537190417 13.297150941217925 16.621323017134213
Mg 15.395453842839963 8.80237791874178 12.510297073154428
Mg 14.288074292549501 12.478855303631608 12.17939965893342
Mg 15.211513112929474 13.0885821714835 15.227631311182316
Mg 13.290611182752146 17.91225282322047 10.542581285939665
Mg 11.777547161642099 17.821177456900948 13.213515345442723
Mg 11.70850058067443 16.61769965990533 8.136882978579328
Mg 15.715954251218077 16.34789486118673 10.942456796549365
Mg 12.595992634612726 10.110833873306255 13.646496586543753
Mg 16.473897999972476 13.605293006064246 10.189021657197943
Mg 15.785477603750524 16.15259306357481 15.587337510926469
Mg 16.675085481425793 14.498266267182014 13.085151824587438
Mg 10.982558134204467 7.59827212802482 14.691359461001197
Mg 8.231990467765348 6.541380614165619 9.55262229038
Mg 15.197428774325255 10.039704985057757 15.339025864029804
Mg 10.251003577570092 14.881663186562706 12.671099424733804
Mg 12.845192576801152 8.754591250124138 16.8032404441774
Mg 9.35530700892491 11.920359419651673 13.668594816302459
Mg 11.782909792813657 13.66876761143619 7.768418471663632
Mg 11.032241074747763 7.605639156337615 9.395668292860414
Mg 14.078669812944272 7.190538472482146 14.672422349540069
Mg 12.579727381334889 7.191742630041996 12.112914124415827
Mg 13.34023450418853 17.73497830917102 15.820641075581285
Mg 16.32590653251064 10.591727969014926 10.27539837527512
Mg 12.72376077954746 14.817291065042603 10.733125592006807
Mg 9.60991918804641 14.524336063504736 9.683449825126603
Mg 7.279911785685288 8.775650605164536 11.304756322647242
Mg 16.978519564873153 11.402254324737994 13.116867243781458
Mg 13.213299266085844 14.792783695452854 16.75518553945579
Mg 11.391630376032188 10.557464091887613 8.448457892064772
Mg 13.63792631589002 15.373553839339195 13.498908676378841
Mg 14.042128492019788 12.262252236917584 9.068315086381595
Mg 11.398777867630544 12.235515495351454 11.143038967542005
Mg 10.855835871531538 15.988523833196718 15.40095293399609
Mg 14.929891174263632 18.174875937241303 13.307835355963123
Mg 10.355042229498398 10.330099112486586 16.04963468969104
Mg 8.403600711395123 8.998265875350695 14.061356925348901
Mg 8.367337835169135 11.676435464395349 10.708708093584056
Mg 8.614313963006786 9.351529864522806 8.569811900172574
Mg 12.08010516305373 13.017781766653746 14.236731327516834
Mg 10.319381183250746 9.489577447125336 11.666604287793966
Mg 14.474571689206973 15.291918567618824 8.3640219887963
Mg 12.981750284185056 11.730867434331392 16.903438111683997
Mg 13.371822183973435 9.684527123581933 10.509828530152852
Mg 9.426761515312771 6.599237094196468 12.244556266563796
Mg 9.032821385022062 12.26166448566528 7.853482577839264
