46
Energy = -44.75399004 eV
Mg 14.383138686280258 10.997303729947419 17.051535740624345
Mg 11.393566485975168 11.184236293286206 16.625083353232192
Mg 12.86947167035322 8.477791926677808 16.121373025761258
Mg 17.41031294066447 11.401811178213853 16.28439610965778
Mg 12.998231172394936 13.800997998930121 17.528263252798205
Mg 9.893644018308933 9.234670107362561 14.823249013913912
Mg 15.598490692461912 9.39385445235511 14.704510717592719
Mg 11.30113612135979 6.621949479766931 14.50081310916775
Mg 10.066955481896809 13.954096945666553 17.026330720117393
Mg 15.910128809728127 13.63244131321891 17.4646727186367
Mg 13.799018607599429 7.540447545765777 13.000976741013194
Mg 12.698148249015569 10.456682982377753 13.76711491293906
Mg 17.757690826169185 11.145553001239206 13.34031158062344
Mg 11.672398640135514 12.376485331230322 11.714693290873242
Mg 10.944672308333065 8.297371312131654 12.04443358793184
Mg 14.605877574144303 15.509062088182539 15.412509731422297
Mg 16.242035862930592 9.001984199946062 11.571833504726614
Mg 11.623008474039974 16.265922088538833 15.72831021873367
Mg 15.044599889296054 12.540536893696013 14.4997091706344
Mg 9.376956234659943 12.310413220409691 14.4867254963512
Mg 14.710185139198115 11.68848999698967 11.668100441506821
Mg 8.75843627766426 15.363625249673294 14.82295255088714
Mg 12.216731566692507 13.430692536544171 14.594184646714542
Mg 17.51320926966375 14.281155931669964 15.000160678011566
Mg 7.6666162008712 16.52556307374783 12.375109246337853
Mg 13.970435609376613 14.5965514181122 12.34515613723688
Mg 16.349207532840243 16.662700006255868 13.109488586154662
Mg 17.823343845493635 11.52849945327065 10.360858967314565
Mg 16.973089938014823 13.817722463853272 12.125067004342885
Mg 13.362063868558051 9.264464254625404 10.507155356918071
Mg 9.027997366310856 10.631332408889387 12.008221497169927
Mg 13.343422562133009 17.54899103363237 13.413900965602567
Mg 10.940907989679038 15.274061621311134 12.536438813978
Mg 10.19104457943777 17.999508723660842 13.61642596364166
Mg 10.695471030547129 10.07130193416055 9.593100356356928
Mg 8.289452909333313 13.619660091401647 11.894900723320454
Mg 12.917296425019819 12.010106439387092 8.903956682633819
Mg 15.55604887584041 10.580238041103817 8.859375289847545
Mg 17.366870734845715 16.125943434134218 10.31713845147675
Mg 9.871465492836387 12.941714923052928 9.3277256949165
Mg 8.931364041037757 18.701331830986845 10.943622380990606
Mg 14.596555687481727 17.04966466243291 10.499092663454107
Mg 12.367253103656877 14.937164684226213 9.612736968635467
Mg 11.735756421855061 17.77124769386865 10.776197068615742
Mg 15.343382866633423 13.871861544205254 9.473415046525293
Mg 9.363493671466914 15.83578267944281 9.89715172212048
