49
Energy = -48.0935878 eV
Mg 10.547074730964022 11.947812840863286 8.060656783026849
Mg 7.959437470051271 10.457350118931659 8.617072808627341
Mg 13.22403661977115 13.507845539398152 7.681635436598204
Mg 13.835346895960782 15.792439528478653 9.41872208801233
Mg 11.12372110130142 14.612632365000968 9.704238928512067
Mg 13.273655682762495 10.528882464671238 7.8033962650062305
Mg 15.42187546538647 12.546543672048754 9.456088495680111
Mg 8.490260247841022 13.094461209577657 10.030586366647487
Mg 10.653999421415557 8.933464341059215 8.793076721422958
Mg 16.66050869603289 15.236069204200781 10.164933116002116
Mg 15.079499460060687 17.125116753816528 11.914170254048562
Mg 12.043265161245595 16.43409984944587 12.01531119201684
Mg 8.167617432139005 8.132689866766261 10.448841588712964
Mg 6.820062700123441 10.77155635020866 11.375827055514215
Mg 12.539558942772128 11.945104854828504 10.465766014494594
Mg 15.107925045817284 10.66630228024264 11.922538236527537
Mg 10.003101569435117 10.661472283423194 11.342177850974894
Mg 8.972483921457243 15.83002566485856 11.761231443089319
Mg 14.006737465196654 14.017278919965301 11.968391535287433
Mg 13.215435258343357 8.95007669968918 10.329488029819018
Mg 19.108222017165282 14.196238149197022 14.288362966264645
Mg 6.547988898784797 13.882097522299532 12.063605123322096
Mg 10.860413477255289 7.642781664364422 11.661116058564485
Mg 18.03544896128671 16.42268679815014 12.567952855449047
Mg 17.043817070289 13.078849540104946 12.264823385016962
Mg 8.484181694922597 8.953466730303699 13.369122743390704
Mg 10.71730749147048 13.496393749045295 12.600218715221166
Mg 10.986712829733815 7.81773996967342 14.593472947993133
Mg 12.230100979485329 10.947643477918316 13.423766942918624
Mg 15.850589023090407 15.096472649930027 14.331723997738942
Mg 17.758441174099804 11.694917389649225 15.040131762500959
Mg 13.674889628951178 8.103883367743878 13.16433404048585
Mg 8.227934343374756 11.99640114722749 13.770782241216573
Mg 16.41637547584423 18.325574953551367 14.36568890374277
Mg 15.949277034752964 9.339458236477435 14.6767741234627
Mg 18.593586358688604 16.73411428435624 15.617041658718334
Mg 7.793884096975678 15.05820718579207 14.459587811099524
Mg 13.534621718727765 17.27456371858377 14.725303184876104
Mg 10.428934617045014 16.428256848912092 14.546851712420477
Mg 14.76920930590807 12.265168805397186 14.463402838614881
Mg 9.98720565121452 13.56434856652406 15.765626764999999
Mg 17.50116505143828 14.106044591137842 16.9248321565143
Mg 10.122355675881835 10.459677522608652 15.641551146229618
Mg 13.293844234389201 9.321251805860252 16.00387583134451
Mg 15.939846722020938 16.86255929332924 16.940730946154577
Mg 15.590286394391317 11.312219238206797 17.161037365599647
Mg 12.66705550481924 14.390344181936078 14.711789638701235
Mg 12.473223608389763 12.056244256759337 16.716781592799407
Mg 14.524464888878715 14.238156764837901 17.122547551969912
