42
Energy = -40.41484653 eV
Mg 11.262603484022526 13.543316041543212 6.290409212214828
Mg 10.146690700161752 10.886109011635645 6.627548923990411
Mg 13.171078030675645 11.228338100184297 7.07759504432611
Mg 13.617652032986 13.916352288601855 8.255488780411868
Mg 14.627795189973385 8.65036628151073 8.16891844543189
Mg 8.693694401222212 13.067752354589803 8.055913313356701
Mg 15.592882956796192 11.409864580900885 8.795652049580124
Mg 11.67660262891893 9.09035456034359 8.632605742185364
Mg 10.8529418760437 15.52010530804053 8.360731949796858
Mg 8.944232878613095 10.05719569213526 9.204406544301932
Mg 12.674272732120148 15.368353100287933 10.798222238376399
Mg 11.349872094189221 12.380915114564933 9.779899823362024
Mg 13.400281748799037 10.182140752697558 10.970440299867397
Mg 13.337026415652309 7.071286109382799 10.461800178701536
Mg 10.36362377414242 7.743265439208454 10.934106989236257
Mg 14.47526849049299 12.96269023899362 11.189010684154601
Mg 16.079474605253967 8.278430298022519 10.710717568404348
Mg 10.473931512740748 17.327424877175613 10.844999590827697
Mg 16.896333237018403 11.001507942453983 11.385728085042956
Mg 8.968487547288454 14.685901455996687 10.637670458029882
Mg 7.921720877485579 11.956721261407495 11.13935342334347
Mg 7.522620995211649 8.907552082666449 11.616463120575661
Mg 11.006132513002854 13.618225756572794 12.71195423619189
Mg 8.503465836170522 16.646218568528617 12.968715195523634
Mg 10.544110518361444 10.593642690407707 12.232484903848107
Mg 9.175296654534238 7.792960258682547 13.713736561384172
Mg 15.353991936917508 9.42047384015526 13.47691349802264
Mg 11.577114212825126 16.645880049673178 13.59358736116917
Mg 12.395671196488934 8.229194241667916 13.204419522963915
Mg 7.815726650891616 13.725507544603587 13.528539337438545
Mg 14.02771529840212 14.767859999326351 13.59226157468283
Mg 16.13889934168057 12.467053583296137 13.842552248382667
Mg 13.029735267346584 11.581265928743834 13.869906297429077
Mg 7.955799179869687 10.637175465479798 14.043193097667027
Mg 9.325810043125225 15.4402694171866 15.452179891849035
Mg 10.728554014693879 9.656625280188292 15.425662802935713
Mg 10.031172521006626 12.471286762592646 15.404369458250326
Mg 12.14108742489234 14.56522444839258 15.878828526822508
Mg 13.52314474617951 8.906011180770626 15.980844373469441
Mg 15.640043504471041 10.831826888202475 16.328730903446925
Mg 14.887410340547385 13.652315855608697 16.290019940391964
Mg 12.652608285240635 11.617617044033064 17.025995499068475
