41
Energy = -38.22867373 eV
Mg 17.965519112673764 10.771882106459032 13.811583221298404
Mg 15.624312568715009 11.983312887345285 15.338397046741411
Mg 18.146622615377282 13.803875684574015 14.960958536445048
Mg 16.214832921955413 14.280068280865402 17.212808877713755
Mg 13.4919465158861 12.757882854215463 17.378475117239425
Mg 16.80861803077751 8.460797083084444 12.02994637122894
Mg 14.494579500563047 10.42371813044819 12.886376219488966
Mg 12.914415927138313 10.370643182459748 15.479700264128741
Mg 19.291812170986955 13.161561100710099 12.383859708832201
Mg 17.98456899858855 10.972893899428712 10.83153871478858
Mg 14.094024231877052 7.657262433748421 11.13099104205801
Mg 13.698370074565446 15.771115391031632 17.098815616828286
Mg 10.746569715576422 11.37141083665449 17.207747367641336
Mg 16.042919331462524 13.274290794963964 12.492690624102599
Mg 12.187127053818584 8.263685743381776 13.28993106702765
Mg 13.12179496721487 13.354573006391526 14.249969847649899
Mg 15.380221964650206 15.481758249706127 14.540455874845428
Mg 9.861547966725617 9.344061861337137 15.031425903387968
Mg 15.287209937560737 10.11266974494539 9.875006631551493
Mg 11.072638387463082 14.393358969585286 16.532990366576662
Mg 9.33850239835728 12.595333978312283 14.88217146411384
Mg 16.286763760994816 13.032179172387291 9.465411225852213
Mg 13.402340905859193 12.660407139160181 11.101064078429905
Mg 11.343789369538504 11.255536497092972 12.964251340203292
Mg 9.658251565846959 8.798279278618914 11.922507682633999
Mg 12.34390489659746 16.386551265414106 14.540421352923717
Mg 7.757171611949327 10.61902112055367 13.27973034859206
Mg 12.060941894657157 9.957330615159641 10.215246168322452
Mg 9.207447639087627 15.720837456035039 14.509469099698453
Mg 13.746858352771152 11.858663961353441 8.102540494475726
Mg 13.717825002956872 15.640917377369064 11.878062189290427
Mg 10.8417090418414 14.193890921126927 12.243457023787235
Mg 7.616695971537707 13.608883315039979 12.6543145142291
Mg 14.050994134728422 14.813451795764758 8.827867745431474
Mg 11.206042317281723 13.09929938107342 8.979664870081514
Mg 9.268693547616742 11.615067269512654 10.767834244380929
Mg 10.737834246308491 17.366505621103045 12.256084809577143
Mg 7.6541214844494005 16.540202235160976 12.14032950002997
Mg 11.559323295847507 16.143889302769438 9.611180952396529
Mg 8.783642594049663 14.612323459773862 9.974289549764995
Mg 9.035390022282368 17.669939219203837 9.818423728356125
