45
Energy = -44.54242838 eV
Mg 13.659284574013855 12.41659904590519 7.487355085572885
Mg 15.087109984813164 14.682378690975447 8.97785609036633
Mg 10.414595442114015 12.647334295753673 7.017144483135695
Mg 11.751772305689546 9.940521391196611 6.865770414819469
Mg 16.334108488279433 11.740274733381769 8.942958896181468
Mg 9.036004468556248 9.907231013316474 8.309993686977837
Mg 9.047841708407239 15.06208054269948 8.259186581055573
Mg 14.130305611390892 9.593079800659945 8.73939696365755
Mg 12.01815947698921 14.594474531061271 8.884062009716041
Mg 11.676611101138002 11.355900163684167 9.535260954786876
Mg 7.554863852772404 12.55788529265876 8.007356070822617
Mg 6.78945374348636 10.833889456884265 10.270213231335612
Mg 14.244535796562536 12.33064654360333 10.861003902782386
Mg 8.425679826179978 7.536485922539736 10.426532639544007
Mg 11.347984618310367 8.108796970094177 9.265874571202469
Mg 13.49371885562269 16.323440262638403 11.07390544049101
Mg 10.079040726018244 16.119283487075943 10.775912892398349
Mg 13.968269604919094 7.229719920694548 10.600164210240905
Mg 9.452494513939271 12.852493542938074 10.643984254225925
Mg 15.88902547816971 9.462233558542325 11.234143366277987
Mg 7.062570747279871 14.38772963971601 10.677599399711491
Mg 9.731412533528793 9.811693284129953 11.534765483959614
Mg 11.391325157268422 6.957962910944603 12.105924510339086
Mg 11.931842077002159 13.92743589310382 12.038304015503085
Mg 10.43008063386919 11.825154146137919 13.51140713299736
Mg 17.225256663442714 12.061560325657823 11.90734951698682
Mg 7.230516406937223 12.198207940529317 13.035631395102115
Mg 8.91328264297254 7.368852930555123 13.575289646298502
Mg 13.462790449829257 11.914799381679178 13.836919066915238
Mg 16.05648667386044 14.889745888720972 11.869552612144602
Mg 14.291722609785452 7.9359540317982935 13.650379412756756
Mg 6.784923456506593 9.194849333997187 12.721721018596055
Mg 12.766034381121786 9.758547697969714 11.79432998870743
Mg 11.409676396380908 16.58083078779959 13.426394635985645
Mg 8.949870563876006 14.743002025012226 13.258888153003882
Mg 16.25273619854027 10.205863408510966 14.170197295655605
Mg 11.407577678078917 8.837581240494032 14.58207894336908
Mg 16.261077202442944 13.255092100626374 14.481795626389967
Mg 8.626851376176676 12.925263401020162 15.681278156439857
Mg 11.357247997483048 14.228248742433909 15.306139798960823
Mg 8.52027692415523 9.964974562180597 15.097989496534538
Mg 13.993696948356297 15.191301338221644 14.1077232028571
Mg 13.903118180766723 9.797399443558238 16.09043548828974
Mg 13.904112935942367 12.969872145561164 16.496838689270835
Mg 11.264714022027992 11.303389268342348 16.393052602638026
