42
Energy = -40.82736766 eV
Mg 8.688578001022009 14.408748034927182 16.038384483213797
Mg 9.61330179060403 16.016355140228644 13.428633114434433
Mg 11.510339534303816 15.41733754003186 15.693856505293004
Mg 13.429014440822526 14.237102326387914 17.8636446059638
Mg 10.797125132543023 12.619979609578353 17.054092260541427
Mg 7.324539691235947 13.833093937511565 13.509384788023223
Mg 12.598956099407372 17.065331226833376 13.32145709402493
Mg 8.687478244905614 11.462077348963836 15.010243725470874
Mg 14.58502886175612 15.511554583779613 15.250561944405609
Mg 13.419388153956906 14.29489992769896 12.491407704715717
Mg 15.701254281918144 17.10922240935059 12.978620215321374
Mg 17.576455948155996 15.099035573646312 14.362196658227946
Mg 10.640602562443515 13.126398400712901 13.536470692875058
Mg 8.511251473454209 14.706736381536833 10.883737134419563
Mg 13.102190553079156 12.772326219892749 15.138375760165983
Mg 11.278652951423377 15.98892869208915 10.813918336602889
Mg 14.038027268753064 11.297789978486582 17.633565909384973
Mg 8.296435963558787 11.732390167394438 11.58252174821404
Mg 16.23582263322891 13.531949115188871 16.934639994055413
Mg 10.425185146746514 9.917384665541828 12.557674369729742
Mg 11.498849618252825 10.215752623602516 15.347263116607653
Mg 16.8117312466571 10.547316546048368 16.589960428157543
Mg 11.288591041382722 12.91380060323269 10.687538356758647
Mg 18.680397278336468 12.431156214685393 15.33279615748282
Mg 14.216921365114228 16.657129851579462 10.442572567532306
Mg 9.853161662724998 15.152696913354339 8.179397202568536
Mg 15.714493973872841 12.701790902188037 13.891133092115313
Mg 14.543885536674578 9.78273907552531 14.85783974526384
Mg 16.430185726499943 14.686710951192657 11.391080739249697
Mg 13.127445436348792 11.24026019124104 12.495876696954872
Mg 12.578813179872974 7.981979031722323 13.55765306716511
Mg 12.726771333302068 15.687745779986203 8.03139770925787
Mg 8.682178721431107 12.498128360569963 8.682010755098458
Mg 10.4129478532965 10.217578698291344 9.495108166412543
Mg 14.185628710128379 13.582914258022878 9.559984178704282
Mg 18.58152081996778 12.786516301240397 12.465291614761073
Mg 11.661845501662725 12.729750795294324 7.730851185713866
Mg 17.36821618488885 10.113415456624871 13.559135866773904
Mg 15.970455271019738 11.56619921349207 11.046305342720038
Mg 14.996576303352848 8.804630075254103 11.869166702878019
Mg 12.305018631965833 8.15704626756186 10.652292633104592
Mg 13.469953909861303 10.640050757534773 9.492568715888579
