45
Energy = -43.8773014 eV
Mg 16.223683087906878 8.812298185964924 11.433303877564672
Mg 16.892781508731606 11.084946509007144 13.280348816181576
Mg 14.483119942044379 14.00194618926795 11.6712932735635
Mg 17.74997259826493 13.528272725274373 11.881860294877571
Mg 15.837918174323093 11.642774392926459 10.285058586777383
Mg 13.940752739128982 9.331880886996302 9.588162454046536
Mg 15.165998360393797 8.775230674850182 14.383431297027558
Mg 18.096505289822954 13.443087367832897 14.975063042850511
Mg 16.106064216224315 10.926395135135117 16.229814393200137
Mg 13.543365676532646 7.722332001227744 12.013513149082623
Mg 16.583597371767286 15.720037001942542 10.10425705275855
Mg 13.875613255170741 16.93287786936643 9.478117007148139
Mg 15.077574083203883 13.310828507758982 14.521822887824326
Mg 13.77434367164966 11.074652476993139 12.713397490811978
Mg 14.453815797448454 14.142716301092834 8.582120562627662
Mg 16.579764744286084 15.818015809906607 13.374916417876598
Mg 12.647794630048569 11.954350916821808 9.953308665501275
Mg 14.951323260706602 11.164986511284047 19.039793575595063
Mg 17.177865601860024 13.129461118036806 17.917035280807326
Mg 13.726424485536908 9.093611284913973 17.19548232831361
Mg 12.147811138084315 8.672280695346839 14.414545263370313
Mg 11.30980418197254 9.696374202262184 11.506840133817203
Mg 14.190724232014341 13.669704906086112 17.518517742489134
Mg 15.606628243330498 18.127035787722843 11.707353499799979
Mg 10.883681754481438 17.593000927085697 9.900344868842721
Mg 11.99116055170045 11.575974909825149 18.506742513845346
Mg 11.775822097780333 14.765918600790728 10.035195136171831
Mg 10.672403383403791 9.351475710296386 16.931975251609217
Mg 10.27028362088448 11.016227033619574 14.120601024608751
Mg 12.970397971820182 16.515683478398042 12.467545409558683
Mg 12.927480823539813 11.526892992009332 15.5882311017377
Mg 10.002940459604202 12.525524552613568 11.494885186567751
Mg 16.46137546742067 15.593547284204053 16.427226259636537
Mg 12.081225863064011 13.645670307980774 13.49872603673116
Mg 15.548781102697987 18.14055803636402 14.96760009660992
Mg 12.842210394583693 19.36846990087619 11.3131959084968
Mg 13.535076005419752 15.819380893242952 15.422561917184655
Mg 14.759498658801547 20.49870980670662 13.392425228695945
Mg 10.274431293886911 18.53281523106269 12.657510826639419
Mg 9.277620321441741 11.916583714595573 16.891339098839627
Mg 9.000119986563105 13.716174216315412 14.387771227319224
Mg 9.584247472497768 15.576464996867209 11.985168937862566
Mg 12.572829403610275 18.754426620437975 14.55783122732288
Mg 11.323764139704934 14.011798648196308 16.566071654138963
Mg 10.587259676509028 16.34955562660342 14.725523139197783
