46
Energy = -43.991225 eV
Mg 13.905477930837916 6.9019462487061425 11.070575588238293
Mg 15.620381098426451 7.965560897831201 13.757700697467063
Mg 12.430401146007656 7.447766290089214 13.644466686784156
Mg 13.504589160626994 9.230154070711505 15.952280388327798
Mg 10.829442295862716 7.888603530858232 16.098812622009948
Mg 16.3403435855018 8.429696592610117 10.62218981059671
Mg 15.875725028169953 10.760811155696167 15.322395663862054
Mg 11.281713878802623 8.587426606796349 11.046435916657417
Mg 13.933538720935784 9.80733909999571 12.288527955647163
Mg 13.617151981160797 9.286342356263544 9.172174590465541
Mg 17.155977505585447 10.505487990137668 12.584788499632895
Mg 11.618807813339023 10.607817168285187 13.950823900521074
Mg 10.837264589787727 10.747643981018632 17.023632809419812
Mg 13.26233276282712 12.359236362199654 16.24182695275032
Mg 8.268836565327506 9.331674224634263 16.20506933610127
Mg 9.367713505172453 8.527604525078953 13.476006100149831
Mg 17.84364368181811 12.870302533558384 14.341514738290803
Mg 10.867105818271703 10.60296489929898 8.786965535875837
Mg 15.42578186635384 11.46650200686002 10.222662911521072
Mg 14.458776487770285 12.572097847531092 13.221465141969578
Mg 9.309551718348503 10.914712463152354 11.565406847424468
Mg 16.87507530087571 13.741907181943889 11.611368947968103
Mg 13.35552750969434 12.383511324572149 8.277404438776125
Mg 12.163952868982248 12.092047304947982 11.16933779215541
Mg 10.806047754796168 13.013378635901313 6.969139497330254
Mg 8.908610553097631 11.849027486536745 14.759234547024397
Mg 9.78765926064639 13.425975609428594 9.709693008360965
Mg 14.080927109053071 14.352803909658997 10.519808223120053
Mg 16.27466697881553 16.67340598897472 10.970422816531872
Mg 17.21922952187284 15.850868405720593 13.766918902399729
Mg 10.418038103664003 13.836366643162755 16.662311549784857
Mg 11.560305783173305 13.626799829489789 13.840755512333592
Mg 12.9610919573647 15.57460864351439 16.101162615458968
Mg 8.647858865038367 13.73347928724917 12.41998291575306
Mg 15.589536568909457 14.212954668168859 15.708131309237418
Mg 11.895381866842515 15.374608166953761 8.609711750921488
Mg 14.041719180370892 15.588329936888574 13.264482774791205
Mg 14.629278400754849 16.569154109516003 8.411831005810033
Mg 11.17349574660764 15.51161012536809 11.53716364119802
Mg 15.587866891446623 18.356760733224565 13.403908689175728
Mg 8.00583654159851 14.905608312318655 15.158083739919102
Mg 13.37676569427125 17.652034429636576 11.017688889019023
Mg 10.48747913695955 16.488337154922036 14.744496882300401
Mg 12.819464637159056 18.230275227243375 14.298140074073212
Mg 8.31495517739848 16.672881964499247 12.585036146614978
Mg 10.64324129274183 18.419958777164833 12.103108544231993
