47
Energy = -46.08855698 eV
Mg 17.171739936839078 11.971512965383686 13.488495200154142
Mg 16.984669122499913 14.907603133401265 12.190797028620716
Mg 17.21283744344387 12.482833050121124 10.494635559754832
Mg 16.48465938571978 17.36782315668627 13.925280131589698
Mg 16.069651438054233 14.476717079496146 15.05483032962492
Mg 15.008853666717103 11.665041575564882 15.621201272575625
Mg 16.87098998674447 9.716462346218396 11.313108872057652
Mg 15.923756466435522 9.059191084804656 14.257869231732702
Mg 12.498658069970553 11.896835443811526 17.389774688064517
Mg 15.279522711060435 17.381291849750678 10.967796048642446
Mg 14.30320885569942 12.629261362872189 12.376607927163542
Mg 14.985962431512595 14.413032181270037 9.918459988811135
Mg 13.657398618214748 8.813178908311242 16.535075858798926
Mg 14.001046660939808 18.805553709602197 13.701570244639564
Mg 14.057886354956294 16.77158991237377 15.964372068495523
Mg 13.526300172027499 7.183769768078471 13.812253301743295
Mg 14.73063484304765 11.11533197948194 9.396705371438202
Mg 15.386262894969308 7.078339705512024 11.490878835111717
Mg 14.046747757688449 15.64960729053026 13.004140432682501
Mg 14.301502364904765 14.263325461181784 17.475041739569196
Mg 12.626636143657421 13.619898409916487 14.663864492678263
Mg 13.96533515369819 9.701219083419891 12.093431394723194
Mg 12.895269997301602 16.321944383598254 8.940883386166343
Mg 11.002141384822945 7.452036903301772 15.232562431601902
Mg 12.345527755269355 10.448045749218219 14.469442442062892
Mg 13.14762200430408 8.189941709726513 9.64860088887308
Mg 12.598215682117829 13.26993690957248 8.411227127933959
Mg 10.249023943073862 17.900813266901995 9.247710101865797
Mg 11.91466026174527 11.272352776076522 10.689945780079881
Mg 12.199151528381734 10.304091137633758 7.720732638879138
Mg 12.263792731712469 17.771205222260818 11.486593813120502
Mg 11.359676336864107 15.139268769413635 16.844339770211704
Mg 11.827733293836667 14.415644010244847 11.406012935895179
Mg 10.65488930516634 9.602597526127976 17.12975946193689
Mg 11.461202055428858 16.977743940106834 14.335132200016217
Mg 10.560660502280028 12.172480028096036 13.034374460972723
Mg 11.063814322380367 8.522000126832973 12.229096803766195
Mg 9.855992461493935 12.358562488499267 16.04939989819792
Mg 10.14411490381627 8.8769278939652 9.29130890180166
Mg 10.022867783806284 14.963169793044207 8.912053459687966
Mg 9.622602053037424 11.904869042952582 8.76856808983657
Mg 9.147551552256422 9.683404580659438 14.437241600954353
Mg 9.484420299588876 16.517819305328793 11.800278616883631
Mg 9.436507874191655 14.787510157982231 14.285567941703812
Mg 8.619663808988511 10.383599333576127 11.40686664029841
Mg 8.64551971718467 13.583569420333536 11.187940887414337
Mg 7.675336562803911 12.250708552734343 13.772565024437055
