49
Energy = -47.87646669 eV
Mg 8.809945443686331 12.658921829042638 6.477880653395421
Mg 9.716099555193976 10.309134046434549 8.127836786753859
Mg 11.651533440269725 12.712948889822695 7.507765813496383
Mg 14.625646266618253 12.554693238512575 8.26631836372383
Mg 9.990013168207277 15.331933383293597 7.658290504807322
Mg 6.963656993360909 14.498542800734493 7.8068395130846495
Mg 12.740380093754027 10.176831205165835 8.750361312992888
Mg 13.14742299385456 15.353064112735836 8.229583338165158
Mg 15.659393378324415 9.480659931169715 9.348068061436619
Mg 6.931576095930329 11.559877524698713 8.5859879309544
Mg 13.495100016698776 7.178712827449193 9.17754807161653
Mg 10.708553083804048 8.103937264854979 9.97668107203693
Mg 17.10600479495522 12.03167901356202 10.023648264964189
Mg 8.100719105244266 15.772973632526227 10.178072341238547
Mg 11.099121424897524 16.709522804833895 10.14654286725117
Mg 9.40348871031175 13.036418702520647 9.667316268577055
Mg 15.38157850362987 14.642334666656119 10.296928859760227
Mg 8.114822086649161 9.934393764628625 10.798337774817707
Mg 11.060100255722874 10.992764778676808 11.202886299992505
Mg 14.252914587918717 11.922764135434207 11.350741576600782
Mg 12.188258192272704 13.924554288409487 10.750531597868632
Mg 6.9632931288589015 12.744416508563784 11.595845507278566
Mg 15.56974766256756 6.980620049185695 11.28399444583009
Mg 13.505064829944432 9.213669719449094 11.552692814127573
Mg 16.73981997180262 13.016867418302063 12.84576743024243
Mg 9.696672489827177 14.037723328519203 12.53882311901886
Mg 16.584994318557346 9.7775552897966 12.373345628831588
Mg 9.195009043927639 17.409466597601032 12.419927731255024
Mg 6.847786679543675 15.604821483677458 12.926175436267185
Mg 11.838585513273822 9.2273667600555 13.917138271046934
Mg 11.849723964330558 16.368998230752943 13.080836136435591
Mg 14.531148702594228 7.648794023015319 13.985675667091261
Mg 12.01682987898298 12.39361849234112 13.677685766698753
Mg 9.070605779176907 11.009932420870516 13.602857852346009
Mg 7.352455541352186 13.364744143768522 14.66007598507462
Mg 14.192689734241645 14.538140367320407 13.114000143886559
Mg 9.454359080637051 7.941120395402241 12.673906323667532
Mg 14.537245070823618 10.886838053038415 14.257212304685206
Mg 17.610342134715545 11.321631968238425 15.136584140848566
Mg 9.368160873242239 15.841743164377108 15.028200627678512
Mg 12.266755453800663 6.568682374489646 12.07835360469446
Mg 16.536331118788382 8.696145910366075 15.892214168011956
Mg 10.551689035892235 10.16909516166741 16.3460651185376
Mg 12.421788179954572 14.86816223586996 15.579677455060573
Mg 9.978175097049002 13.069841116200033 15.959418874032094
Mg 13.48778768858127 9.064283437238483 16.56414012580886
Mg 15.402124751004855 13.523272287991407 15.683485532644246
Mg 12.906743531661329 12.077269928342517 16.755945951473763
Mg 15.683225129660427 11.05399886849444 17.447269139989583
