45
Energy = -44.14314781 eV
Mg 16.201010300249443 11.095685688337518 11.935330404654461
Mg 16.615740463063045 12.78529674769096 9.399038211622203
Mg 15.427222825353924 7.920201285523804 11.360888721636407
Mg 17.154965618339446 13.978922897694677 12.007110449197125
Mg 14.80057630078817 10.39060591317464 9.42316713147958
Mg 14.228045117118622 6.985640484256335 14.035223083049155
Mg 12.574297132752072 6.554724221240147 11.709274023325424
Mg 15.989083210416014 9.436280046787974 14.356168967781725
Mg 16.652165558120323 12.550768584433397 14.606873697064902
Mg 12.742514853663517 8.232094532707997 9.250018586671182
Mg 15.146745183075891 15.318514543949789 10.153127276491402
Mg 13.674689391171082 12.936826497067644 11.5120502772306
Mg 13.861290742912706 13.100632238754693 8.320725185297011
Mg 12.650697115697916 10.488533127501332 7.10861768040048
Mg 15.73580601152126 11.035698054541385 16.988645663145633
Mg 11.773391730436972 11.207150249131374 9.959875688175517
Mg 11.261363970846043 8.163689289241802 14.078219237499917
Mg 13.378144487752884 9.082414946773559 16.036237539352697
Mg 14.7978522632002 14.803468816550033 13.665121977614756
Mg 13.293791998617191 9.782578527171802 12.309669688008158
Mg 10.382775874355799 8.533591658443036 11.224603703009151
Mg 13.519067949427706 11.877855132613734 14.508342975791313
Mg 10.964607121046585 12.97814137366498 7.39965431990763
Mg 12.33054907202269 15.602037366489311 8.9263872861646
Mg 10.770653900911348 10.610963988876849 15.822322376038468
Mg 10.849386155322039 11.459434790806162 12.792193371847592
Mg 9.755640414445338 10.025122705951125 8.09646655345253
Mg 11.602387158628977 14.243107605974918 13.556923077174401
Mg 10.719943490395533 17.617194245148912 13.5790346556241
Mg 13.023346790508448 11.442944828479135 17.88197355189102
Mg 14.616500972929705 13.920049924602589 16.639037982998413
Mg 12.879620490830499 16.424080539436034 11.821116038305423
Mg 8.587427842400242 15.402215191064933 13.052310627576825
Mg 12.832614327509482 16.248103414035583 15.45644671340281
Mg 10.558844912491082 13.86684699636974 10.749028615743358
Mg 8.543323591380345 9.847435320680454 13.576893484034864
Mg 8.955908089093736 12.904168974229945 14.887407982471071
Mg 8.278909002689202 12.59168472995237 8.890099402118615
Mg 9.379074146983708 15.462460016023812 8.076272416180018
Mg 11.427687796006623 13.530062596398068 16.603068509177525
Mg 9.748277263308404 15.824638435723088 15.72087640800133
Mg 8.032403138377521 10.159681259778978 10.576333192881126
Mg 10.0618442354945 17.015925970417005 10.66745705227282
Mg 7.8174843524447235 12.65050945710845 12.072904183153122
Mg 7.526883604881488 15.168866539987512 10.32252142565072
