41
Energy = -38.46914251 eV
Mg 16.43668704261456 12.902375279375432 10.198770286698107
Mg 16.375337840820087 11.890314376701614 13.138734738277897
Mg 16.957593744099608 9.130114836047413 13.96782166879548
Mg 17.14483804471419 9.735151719816365 10.895664978627481
Mg 15.900827227774924 10.65944536807829 8.151919586388882
Mg 13.958647993408583 13.439856233582203 12.024244221564038
Mg 14.469414116669403 15.576196973009171 9.860759587182436
Mg 15.219065227066569 10.903215456761213 16.132089003366108
Mg 13.7809349513184 12.886404042042951 8.645303730868319
Mg 14.487486801627986 13.604595694080531 14.962858030528421
Mg 14.711251152198058 7.951793811613359 12.242616758073757
Mg 14.338146557458144 10.681742358161289 10.800272877011405
Mg 14.668230642218743 7.9119485211931195 15.31243520245321
Mg 12.838150978272596 16.28988315186989 12.34934282931634
Mg 14.7981496523906 8.13314242544436 9.204913765380853
Mg 13.630112598443551 10.63040040460825 13.666329669431782
Mg 12.40986377525968 15.45756853963194 7.555915861770634
Mg 10.84625571527475 12.668774084229298 7.857943026384123
Mg 11.907334983183555 17.364714597729794 9.729899677041423
Mg 11.480966787098676 14.203536641227705 10.419940374919735
Mg 12.393723299912725 9.423293093756321 16.471642037677427
Mg 10.8187308343188 11.127246999924033 14.355396261072613
Mg 12.607702914495148 10.14994082903733 8.205584711749397
Mg 12.324342841519607 12.44926790684525 16.633374853290256
Mg 9.56609735961622 15.80122404404318 8.571575623534953
Mg 11.60692203450624 11.417149735623864 11.37142828391212
Mg 11.57451815107255 14.137760409331129 14.027441711800497
Mg 11.967534039860766 8.055474105390974 13.690711048004049
Mg 12.016360808848171 8.397575100385279 10.691237640666584
Mg 9.781548695415413 16.267131313402633 11.717605805366548
Mg 8.386970136897126 13.17868570811734 9.445076547626616
Mg 9.295089852102704 13.010839160964105 12.447729820996544
Mg 9.464249185507654 9.274335384487463 12.31727261158557
Mg 9.607526277910278 8.655587535717897 15.530855153515054
Mg 9.585953428026796 10.40126351519588 9.40787532858879
Mg 8.354646242479202 15.535090054022413 14.209023276536614
Mg 9.102191728882069 13.115515881643763 15.741934434323747
Mg 6.993251747217865 14.854056736419622 11.518085380655878
Mg 6.869999609660725 11.582837501479958 11.5012791985151
Mg 7.66637875671774 10.72956658127269 14.313276703455458
Mg 6.354923793515756 13.338518031251384 14.088273728687092
