45
Energy = -43.2484279 eV
Mg 10.310996059070689 8.216813550480826 13.028449182801824
Mg 11.811660167701408 8.52817708088057 10.503896336150277
Mg 11.864886724694228 8.860401409745709 15.528681989337688
Mg 13.229002864827894 7.583447165221361 13.066698904952837
Mg 9.633707439468418 10.633281992406074 11.161384533181531
Mg 11.041549140698233 10.584006916093031 8.508273453093071
Mg 13.936529097532516 10.613509451808216 10.030223032710742
Mg 12.130724521462433 12.994063721267707 7.341678235195883
Mg 9.783158976664385 10.953651305716166 14.206406350254579
Mg 9.601526767336921 13.33459616881605 9.072577116448956
Mg 11.947037054895402 12.789863242290272 10.846410367038017
Mg 9.3439320635124 13.474955174904746 12.32170591382037
Mg 13.76543863934506 9.764490058402185 17.779790894222614
Mg 14.362505532608882 13.668567032003299 9.261988418882927
Mg 12.752421656005973 15.476180046267071 11.717075682689673
Mg 15.457792393952383 9.871586337677547 12.841698061040484
Mg 14.141454436313444 11.497921997138747 15.24817234662113
Mg 9.178524863019828 13.638075441895646 15.421521848773622
Mg 12.505821947009782 10.661125171722874 12.86235196673369
Mg 9.789992918224556 16.00909554712798 10.574423184351346
Mg 11.972539886264936 15.61397906789851 8.661251400103124
Mg 10.346288040304971 18.738151682903187 11.832609518838057
Mg 14.868824897331981 8.26401709550698 15.390524568887272
Mg 16.879205135643844 14.947284377879315 10.201508207597351
Mg 14.732304784240226 13.080695394334962 12.522558498317897
Mg 12.07210872708084 13.613889290147977 14.153557118325129
Mg 16.68906537402045 11.771973931948562 10.502908637048705
Mg 12.77087658049641 18.235677878704543 10.25803585512362
Mg 10.906453653241543 14.361013720526811 17.881441226569926
Mg 15.373552559114819 17.115855590404912 11.736553768608532
Mg 9.062170967047496 16.34038260567541 16.44455616880122
Mg 11.384924858003533 11.599074509943804 16.70079571199346
Mg 16.874249798659044 10.34090050481303 16.036315821765168
Mg 19.128075783595108 13.28713024156924 11.270959750242824
Mg 10.133130385378804 16.166638126698622 13.55700693734084
Mg 14.792615850434895 16.668570087872368 8.776715517088581
Mg 12.889486128753042 12.303231308614173 19.24347408105668
Mg 12.088228227171621 16.390386161534707 15.863976674817623
Mg 12.844150198967508 18.034828963910986 13.3671134958103
Mg 17.321373567340043 14.964094163718922 13.151369541443612
Mg 14.62195275127328 15.661219947196347 14.412008162301268
Mg 17.655844656239946 11.894036512795322 13.482573239542992
Mg 16.53113292635664 13.508499675672203 15.702115037442976
Mg 15.670067442322159 12.006626072053491 18.225622295276022
Mg 13.782466340960816 14.080743022415843 16.94410640488636
