44
Energy = -42.17357802 eV
Mg 15.29761124481173 12.215727302195317 14.75237893037986
Mg 15.827875741810056 10.154647851406779 16.944567269247344
Mg 15.343790991860583 15.147639200359253 15.358636913709038
Mg 14.575200077984846 12.95279038003101 17.6474155428749
Mg 13.861797784022897 17.69111732399713 15.33654977332487
Mg 13.410508250294926 10.299156969412254 18.522667180075473
Mg 12.868763060204877 15.356458682785764 17.191304453724964
Mg 11.58740111813206 12.749969665574172 18.413415955844393
Mg 17.108131430809205 11.401096577034936 12.250662145893175
Mg 15.983999901279821 14.204634780636036 12.471751706361854
Mg 15.213863384961321 17.062699310728036 12.650592379687508
Mg 12.41293752344726 18.121728073083148 12.85832642175131
Mg 16.123016672891083 9.223462203211389 14.139148993910762
Mg 17.650390583180677 13.547164824225039 10.085099271552533
Mg 15.771141316703671 15.912904494485497 9.721386149916166
Mg 13.914530398444889 11.110308882834369 12.426127082590904
Mg 13.14370013474352 9.547078481607855 15.104980854943372
Mg 13.054358361897377 14.705392587140887 13.301959489374948
Mg 10.89025835425692 9.980993915844294 17.171144927195957
Mg 12.18045228767352 12.519282255382784 15.368387461313645
Mg 9.87759257953032 14.881208846018925 17.261113936120235
Mg 11.039306788376571 16.669376397613092 15.094710186197043
Mg 16.317651709328988 8.69819055387935 11.179635464280034
Mg 13.944412194378932 7.806103828651963 12.686810911609083
Mg 12.960851489282081 16.399819538738743 10.506464097800713
Mg 15.939096266138195 13.684724070297682 7.697573912038359
Mg 8.962533986812911 12.12948762408237 16.576550228412334
Mg 9.475991998793114 14.134730251487506 14.364414280546573
Mg 10.370577138281755 15.94409149223352 12.12783489342265
Mg 13.775475302861052 13.287237744040004 10.377638410451736
Mg 16.103248836993274 11.08282485373165 9.331337344910027
Mg 10.042451997809824 10.291785218902406 14.33089937596849
Mg 11.20127173252526 12.527506192206197 12.30771642811892
Mg 13.730300874742879 9.271995239330224 9.77356245048823
Mg 11.450225073775076 9.226460500200048 11.965082669082872
Mg 13.253235585065983 14.918406733948393 7.784448582599512
Mg 10.86892526676147 14.282308633922153 9.667259333566895
Mg 13.631017010808998 11.71372950572652 7.668163587845203
Mg 7.520922314540723 11.850335581284378 13.84276545033396
Mg 8.363237862733431 13.705765500404908 11.493296325967579
Mg 11.350913607007572 11.098401428240022 9.5250176283769
Mg 8.811432568479496 10.624389860051469 11.38509013310257
Mg 10.984672825156768 12.933018514871325 6.974455092033342
Mg 8.653315967169348 12.289547851781343 8.82708731472935
