45
Energy = -41.24407495 eV
Mg 11.54774732926344 17.733468466679078 18.196564393302417
Mg 8.473076291209265 13.735936791180073 12.228346039990681
Mg 11.1433349263635 17.844507894398543 15.250600451481292
Mg 7.938774446459356 11.036209984321317 13.375900414467955
Mg 10.775910026578199 18.48144519444147 12.40196954877172
Mg 9.524797209678598 15.90893287271961 13.792601821607887
Mg 8.82894809219904 13.341854277487833 15.293070477133405
Mg 9.711690237435159 15.613585066845227 16.89249535862786
Mg 13.757371385858425 16.554565261683667 16.093043623004345
Mg 10.248609062668713 16.030683026843608 10.893526901134098
Mg 7.325600567508457 11.643631102655569 10.407161248723686
Mg 9.093735124113756 10.407040939027809 16.056328214161816
Mg 12.366503842429358 14.87268005080984 18.29748180743263
Mg 15.366564677194075 17.60232134040902 13.778895479147883
Mg 9.760866072961033 13.453377210222742 9.458139600491192
Mg 10.116735765143837 11.005479099581944 11.178488979862456
Mg 13.12583955986443 15.375510953367222 9.953049254546844
Mg 11.405199492562232 12.264090509523827 17.138931344018232
Mg 13.672587071196943 18.213077345839615 11.213589290359995
Mg 12.755304332800334 16.149714511647826 13.066774650117564
Mg 11.698280725473886 13.531339315229808 12.12357903233844
Mg 11.959140271310398 14.255195251106034 15.063138643908037
Mg 14.526823988399288 13.590908501229533 16.880493524817894
Mg 15.693619639255052 15.905716940466485 11.321001305254196
Mg 11.084918713090843 11.305359239062387 14.028751252009776
Mg 14.782236401024033 12.856765508758375 11.520488093861164
Mg 14.057350500127976 12.012024469668798 14.270205389442534
Mg 12.623026748231826 12.515764092018326 9.194856837401609
Mg 15.822474262514 14.489112787311466 14.249693413996642
Mg 11.816158141476606 9.39726943031997 16.296525604349974
Mg 14.606221078897144 10.401176144550101 16.827570590935814
Mg 12.907751368873889 10.45705075509334 11.605922166257244
Mg 15.739370004059118 13.762701876332287 8.916399135428305
Mg 17.910139254473556 13.97897905713148 11.367061983736795
Mg 18.03903542005073 16.338964951087153 13.28880661600554
Mg 17.01069169088341 11.64499413384386 13.186636768982993
Mg 17.005364951544163 12.200279885416869 16.11779722049178
Mg 13.763460622715586 8.972293194680013 14.114634975295367
Mg 14.879778773430886 10.651035941824947 9.039788355788968
Mg 16.66220197514101 9.281595656264505 14.90179886669472
Mg 18.916886950798737 13.701861610277026 14.321557709365429
Mg 15.65979116396936 9.25606480436169 11.661222836406363
Mg 17.531652757333404 11.279599337765418 10.15888447539492
Mg 19.845199970482007 11.74862482579725 12.142153559477373
Mg 18.46992623676999 9.103025550817827 12.416383722979269
