46
Energy = -44.62225602 eV
Mg 16.35911049709395 10.203347438861586 14.920145967785073
Mg 17.818749674906687 12.92859908595979 14.103241287474889
Mg 16.427843086218697 11.283446433992893 11.920597391231762
Mg 16.21220703660351 12.59093584838049 16.599589080511052
Mg 14.565658369420047 10.249290919591228 17.577508618555367
Mg 18.284889144122108 15.859727943299612 13.59414344509338
Mg 15.498185806938388 8.304747215330755 12.750832299763013
Mg 16.739651361963997 14.314144169916332 11.40761717597301
Mg 16.399390115470023 15.496154520110396 15.916359813260993
Mg 12.239735126409919 12.038423435988737 18.899788607054802
Mg 15.825941506749038 12.1461928730797 8.96247840992359
Mg 13.792795943826329 10.915993740846769 13.302785001683862
Mg 14.299500615242675 9.70861651383775 10.347832917678469
Mg 13.746214486112365 8.430038366314118 15.236296183400647
Mg 14.323190955859843 14.289699466565706 18.049654011486115
Mg 12.612903683578756 7.94478941141689 12.302729280367165
Mg 15.465975679644375 16.75753027462304 13.239466451200903
Mg 14.806400379916061 13.723436538540415 13.796781339183852
Mg 11.64090246409204 9.63821623907586 17.36025902192535
Mg 14.69448880518649 16.285771529463894 10.25816928293434
Mg 13.590843101140528 13.229364542550853 11.028187492488673
Mg 13.10776584354538 12.289096345057276 15.87084299845345
Mg 16.701664210541356 14.89800653868456 8.397609390706991
Mg 13.81925474142119 14.409436768458475 7.921165204820799
Mg 13.429722513581575 15.89459663569826 15.508280816730988
Mg 12.763746266606441 11.585547536630092 8.524506082300185
Mg 11.451284223212749 14.556697844813595 17.409367462089268
Mg 11.435568517424642 8.736456636158932 9.311315620735472
Mg 12.64352053015461 16.04260751921228 12.512840653593743
Mg 11.164764121969064 9.761935038439137 14.408812354505377
Mg 11.483669870722562 13.224465500208725 13.433796767617544
Mg 11.740085905910504 15.881637042367007 9.568474014966629
Mg 10.008358962688282 12.030579292286756 16.0785341540733
Mg 11.477669486396529 10.664313386371031 11.50742303302569
Mg 10.484163475675617 15.890953947207299 14.874508050821692
Mg 10.803543092145016 13.810741887526879 7.4157684282547836
Mg 8.525304650067044 14.529166516562622 16.949443857371403
Mg 10.485902064757514 13.093496790357626 10.325254076224585
Mg 10.070188139351039 10.805976610518497 7.609706629756332
Mg 9.653411252194182 15.614891455828028 11.888543011272414
Mg 8.9283042983772 11.324383270859954 13.033873453249337
Mg 8.229417009300999 14.02348951049254 14.024320954561597
Mg 8.711234561755276 15.42773372363398 9.028185599446816
Mg 8.621500800335827 10.490210878042591 10.152716945936685
Mg 7.909877874110946 12.754240916950932 8.170417121525809
Mg 7.508864128116912 13.32262805079173 11.105417545033069
