44
Energy = -42.19888865 eV
Mg 15.440567074066724 10.411322411940416 17.639535947291712
Mg 15.471322206150571 13.536718132210709 17.706909481612506
Mg 13.209179202512773 15.301434613895365 16.69989722825377
Mg 12.947124572583924 12.03764019891312 16.96561060173778
Mg 13.044575384913136 8.874019903051233 16.807727598523016
Mg 10.859088850168117 16.630715524433686 15.253230549237271
Mg 10.660926182814261 13.610273633642244 15.618466652043457
Mg 16.01660078317226 15.113324144367834 15.212638449008102
Mg 10.610223751567306 10.530226074702727 15.621505986090787
Mg 15.798476540209712 8.748583511273392 15.0224033318692
Mg 13.619581911264426 16.784431213983552 13.961657318380663
Mg 16.085220627902526 11.930532864102517 15.233275642120423
Mg 8.528568326837911 14.958913368612192 13.956009348044034
Mg 10.738414268530388 7.4196853045420195 15.552702669847223
Mg 8.359256057532466 11.954009915344395 14.08104730493276
Mg 13.55168543504387 13.533676302392907 14.244984095140056
Mg 11.052858001545273 17.99302897162413 12.42497686557802
Mg 13.467089641320685 10.493634224701477 14.17942373961929
Mg 8.563023111797595 8.9814143908619 13.993882929607997
Mg 8.740655351299223 16.336620544540242 11.31425798654448
Mg 13.433417994640607 6.9248821843018975 14.481289695627643
Mg 11.317880355234161 14.985109604845503 12.700785652069921
Mg 11.186711619428594 11.952951532220133 12.804890916690027
Mg 11.322868559212852 8.645099408875407 12.796002920979298
Mg 10.78319385324814 17.21127326921762 9.44547006153438
Mg 9.004832203407359 10.248355419835233 11.326983403578765
Mg 16.457466086686928 10.56634840448748 12.5506534689524
Mg 8.702871932570073 13.3202849362507 11.328517116844713
Mg 14.028977061955704 12.342807183999053 11.569901070429966
Mg 17.69554150625172 13.356584719430591 13.237285853507117
Mg 14.365452388949988 8.39938059888935 12.043553601058655
Mg 13.305346429755973 16.59268400379538 10.739511043369188
Mg 15.50567831648118 15.075445359965373 12.169366037461604
Mg 11.646784097078426 13.732733548830792 10.129354376703068
Mg 12.047258018018995 10.262422636949031 10.300112391537901
Mg 9.184425318359322 14.785914897317166 8.603978877722078
Mg 9.702823485162721 11.736010165000463 8.75270205157402
Mg 16.96572099136771 12.70286453603992 10.46265202839714
Mg 15.102325879596853 10.164838281626134 9.678931699335248
Mg 12.420063461645764 15.394267916380143 7.651722493144828
Mg 14.750357195451992 14.390802843850075 9.27213935590193
Mg 10.696017875632627 13.328985797077593 6.404006698940514
Mg 12.964600380236922 12.096039647686196 7.962066230723883
Mg 15.975064630913707 12.13457033888847 7.678514654723168
