41
Energy = -39.18327085 eV
Mg 18.091087213593237 12.878955835579813 13.266675067550649
Mg 16.166147523365524 14.417682080086589 14.94261442420588
Mg 15.493106654614015 12.828578438342777 17.420128136832567
Mg 17.97670926870907 12.770697057408098 10.180355781829595
Mg 16.30732542564415 11.181375996052754 15.014601665251693
Mg 16.03380618880432 14.491697756723962 11.763992618524949
Mg 13.284441035951161 14.452823516109637 16.111421797831746
Mg 13.81813786014107 15.875504761006097 13.450970970067209
Mg 12.583692001480783 12.72917357282641 18.52332061403842
Mg 16.257012729517427 10.882251365951523 11.926718548304802
Mg 14.024330406206015 12.654244195152469 13.52429384928366
Mg 13.384091270976192 10.940990946259227 16.14943047472219
Mg 15.769361847605529 14.115914564838706 8.669640690678245
Mg 13.72282929613335 15.739478529799792 10.30275194603598
Mg 10.191956649811441 14.108004692779659 17.352587075384438
Mg 14.135329822796526 9.37102094895574 13.672944622655525
Mg 16.12977392475623 10.922440391941157 8.70990202407021
Mg 10.950857180148247 15.786693028188655 14.733298166629519
Mg 11.445850528157466 17.145007200062025 11.973195002765243
Mg 13.906750155445751 12.48297013831988 10.483778810843367
Mg 11.118478195204252 12.570390101965666 14.688072463989643
Mg 8.007079964151552 15.318067057862091 15.727569732393853
Mg 11.66369882385353 14.015650629934157 12.0524957261633
Mg 11.114572316060455 9.267203019633504 14.830630389417353
Mg 10.459610769840687 11.009287032319044 17.266159688348093
Mg 14.062572048662258 9.286423716517632 10.625705458432442
Mg 13.760388096894216 12.204640389121982 7.324075645427271
Mg 11.827290476290932 10.896949652859249 12.182674363748973
Mg 8.621652840760087 16.7064912540165 13.02437497554493
Mg 13.883587983094472 9.21984553119709 7.518456708528861
Mg 11.315564291287552 16.882153396489347 9.018167263516723
Mg 11.855877687920716 7.749820023654625 12.346969850237084
Mg 11.54979679772398 13.818404810129808 8.930714855368137
Mg 8.841862842269167 10.60951813188961 13.358461584397599
Mg 8.14893807996022 12.292206414503081 15.867324316607611
Mg 8.565335822203851 13.665230274466799 13.113293552008003
Mg 11.554927829977098 10.756323882188537 9.028489636895372
Mg 9.28404039665589 15.22831688679201 10.50561106730048
Mg 11.816174444737051 7.714733672060573 9.371390708100321
Mg 9.606548017948914 9.052696026714237 10.89414699526603
Mg 9.385863590964734 12.126678312813006 10.62809264293336
