46
Energy = -45.72875745 eV
Mg 16.92346645013796 15.831372765373553 11.498641825172397
Mg 14.650349274526105 15.842180818091837 9.647256225018669
Mg 16.218245433246107 13.227803920176273 9.880310456618428
Mg 12.057674349568108 15.567327871688638 8.12329303116453
Mg 18.006939565883325 13.242685622926087 12.2988767480924
Mg 12.116028239759093 16.83055205688912 10.82815899092563
Mg 14.51590994949592 17.1031991349293 12.682886858301595
Mg 14.058154951311039 13.332038089834358 7.743483809006966
Mg 10.629823214156751 12.858684403713317 7.8896555513153075
Mg 16.88352026979673 10.597725839393568 11.414691958923061
Mg 9.668783874555348 14.937696473956606 9.795730914848487
Mg 16.748422638284573 14.973359027251758 14.492754519273658
Mg 12.57066449700098 13.499603748787784 10.468733774666838
Mg 9.359452991565668 17.10470658801996 11.757082544373361
Mg 11.704455995284954 17.400975228482128 13.868963498906842
Mg 14.907262731247206 10.609353499183067 9.142617175137088
Mg 11.898006292483064 10.547977689496069 10.614308765823834
Mg 14.59909792109528 13.949967245541412 12.67242211906907
Mg 12.801342786367625 8.28614169513101 8.855280500108641
Mg 11.12575647443584 14.490870824391887 12.971983143377892
Mg 12.607824784150708 10.760079142367136 7.211952108138813
Mg 13.974868509264043 15.930347533059514 15.45155293439716
Mg 8.817074332537464 12.059823365514088 10.277769363384834
Mg 8.745559874190686 16.23682250881516 14.424916942707263
Mg 10.704108758288882 11.409423385737536 13.278073451833206
Mg 16.262107373977255 8.769585312208218 13.713912062173026
Mg 9.972198241989426 9.833698107115293 8.480397496884512
Mg 7.961872488506114 14.234547548726137 12.217485529306906
Mg 15.536337999846985 13.211969319903073 16.65180248223848
Mg 14.680054494763008 8.242708715516146 11.208329474810338
Mg 16.730882561553397 11.72472855023936 14.393653243837614
Mg 11.64708945646565 7.601961956151538 11.518651576040114
Mg 13.03727982677478 14.407783699425632 17.92938095978916
Mg 13.976004147170777 10.948641019623283 12.816023895375649
Mg 10.895051061464661 15.33700943487904 16.15218126018016
Mg 9.037733491393443 9.191443149080364 11.316936889520857
Mg 12.851864311763523 12.783581599085801 15.06232036186636
Mg 8.699016674220937 13.361218217129085 15.060797385811512
Mg 14.825139584047113 10.07276060056003 15.943801155056812
Mg 13.316249154955461 11.481354114674888 18.0272576340992
Mg 13.271163291243013 8.05808432121694 14.040466844036947
Mg 10.166981981750576 8.330242138217294 13.965884730833297
Mg 7.562418141917361 11.290698137875095 13.000604805702379
Mg 10.544160770625084 12.458044177292487 17.23224400551064
Mg 11.766184034103958 9.788242938462965 16.06624317674775
Mg 8.838272504841246 10.454744229037887 15.641766524586615
