41
Energy = -39.24221399 eV
Mg 12.251193778047421 9.391874134612495 6.542114776084716
Mg 9.37196956342725 8.969791572186883 6.725968287164975
Mg 10.443781641124447 11.89741944246319 6.199835931215178
Mg 13.70400411282341 11.842638523240986 7.354796743667112
Mg 7.826107561713983 11.280973029214136 7.668650860480929
Mg 12.070981603746947 14.097212380057139 8.31308502160034
Mg 15.081353116486213 13.829287708726493 9.15038833577413
Mg 9.04581093193137 13.886170618877804 8.354070006651913
Mg 16.345761206932025 11.403642302432628 10.612146546942384
Mg 11.190402394898733 7.729266446516774 8.873345742432846
Mg 13.86710572820021 9.50732895279153 9.206697012859445
Mg 10.917595060159355 11.176498943065043 9.040851833980522
Mg 8.542536407776248 9.14981820756251 9.702278579005002
Mg 13.350897794867974 12.01152149876313 10.87921986776458
Mg 10.742829255554064 13.520679260294374 10.917376571665981
Mg 10.109627992982531 16.20696075238952 10.00993795846239
Mg 8.058583119014607 11.96133587333498 10.70068546141448
Mg 13.148758689383277 15.51092947856579 10.900050501463253
Mg 12.789354610043597 6.991119983067933 11.83313444099605
Mg 9.739749823538494 7.141054844388816 11.552642424276808
Mg 11.539146111259617 9.634551553446945 11.381375260100247
Mg 15.390707326339346 13.924137659152144 12.223026332061083
Mg 8.269656799365517 14.741014206735873 12.140548100858567
Mg 13.863462004305033 8.039352855395384 14.606605789210636
Mg 10.148275301270719 11.657667482086756 12.933697723644293
Mg 14.013304580954012 16.122056818898887 13.825452898289416
Mg 8.117304888304293 9.483400326127233 12.81001352044602
Mg 14.90507953180966 9.218294642716861 11.968190246883854
Mg 10.94091584113914 16.1423562610854 12.963800405037597
Mg 15.93962610961107 11.40312233462492 13.785925186124041
Mg 9.622821514699542 13.931176684129364 14.793667801573648
Mg 12.913832110589336 10.755997537666559 13.826394490212548
Mg 12.477424286741886 13.584131168295244 13.362915632446565
Mg 14.737097354180479 13.63580505551119 15.479711806608037
Mg 10.783937793783005 8.401315396946508 14.047509843912378
Mg 7.216412263061631 12.368567382608672 13.719219294436101
Mg 12.123801323951586 15.376220198759876 15.918808745375896
Mg 14.591473839573528 10.799005308014088 16.49957133135212
Mg 9.32437848973746 10.693475238556633 15.552016618696005
Mg 11.959505061106258 9.488213692940082 16.57814692048107
Mg 11.86567135472912 12.436852522914133 16.388363427512573
