40
Energy = -38.2071732 eV
Mg 11.188831561618347 12.67651724623158 6.6251150436502115
Mg 13.466060143431513 10.659307496620574 7.523997083193797
Mg 10.500903312481196 15.27048514553967 8.053474607011045
Mg 13.827398167995593 13.983211903105333 6.844015535562277
Mg 10.353137794449609 10.19204839617277 8.010387501398107
Mg 8.961929776470068 12.729844072777183 8.792559612528743
Mg 14.77225051239806 8.487482460403777 9.362623514471748
Mg 13.272018009173024 16.293375706078947 8.69938840303293
Mg 8.060487107590387 15.236852878708106 10.284758890486971
Mg 12.217736195803164 7.82071913993109 8.023758259783843
Mg 10.908357554888587 16.79912468801466 10.528505612416103
Mg 15.07404929288314 11.366532996573405 10.266820349790308
Mg 12.38855852868287 12.88246978021918 9.45691371862617
Mg 7.562593106575576 10.048951009253551 9.378910725291128
Mg 10.523506909216344 13.911388108909085 11.413411246368966
Mg 15.424302614231948 14.271866815459143 9.38876326096443
Mg 12.568164538857795 7.054483493907891 11.083064681880055
Mg 12.299827333571526 10.015196076773014 10.37461993294591
Mg 9.877870812954427 8.131200759760944 10.17161441939182
Mg 6.937560455869182 12.445822233420639 11.252445201053959
Mg 10.040518447048896 6.756667568819078 13.064136511368064
Mg 15.824169173409535 13.499672664507209 12.308405419453994
Mg 8.128420125268773 11.345189225158652 14.015033302963657
Mg 11.188670095569732 9.633748628708773 13.297804469982143
Mg 8.208174564556927 14.26663373253655 13.266908353442952
Mg 13.381125874621947 15.190593331417043 11.564331414936689
Mg 8.413322599736462 8.448335387540691 15.08606103807442
Mg 12.900205620963423 12.135333252731384 12.462346105011745
Mg 14.346513650311215 9.313970659262147 12.512180587392047
Mg 12.963620177895104 6.7179944996972125 14.021028265561847
Mg 11.13941991859788 15.783269133105843 13.587930007780564
Mg 7.8288671151217955 8.96935024626265 12.203194002447875
Mg 9.750105746397743 11.162332018991556 11.254962792316915
Mg 15.219662937017864 11.544367815467925 14.504356771019184
Mg 10.999929114489658 7.452806961164883 16.030759936588698
Mg 10.706890545559922 12.843384488469738 14.369823441661435
Mg 13.725633926042319 14.360460340165842 14.463640134346395
Mg 10.401469901613824 10.418881562982127 16.23794156804253
Mg 13.373263925835762 9.32897377639187 15.548083397637603
Mg 12.912126348403051 12.188807836363456 16.303578417726914
