48
Energy = -47.54206241 eV
Mg 14.588246334363841 15.589582422878896 8.493707512471397
Mg 15.581526411905404 12.811099701990246 8.116082800499234
Mg 11.955874541580345 16.212685668224175 6.912566266955315
Mg 17.02981866489833 14.506026837639098 10.21798373127178
Mg 15.018716753424707 16.767404114223098 11.216611392099617
Mg 16.779122129838417 11.204526855067984 10.332769689898647
Mg 12.330697686223242 17.2670414023347 9.772131250354615
Mg 18.061646380281108 12.682927162856588 12.721551657400129
Mg 16.880386399003697 15.494444111457819 13.138547492036686
Mg 12.766587728763861 18.252670062416787 12.691287322997127
Mg 15.463609474003174 18.073671476401614 13.937216106361527
Mg 12.555010140428061 13.35276855430046 7.688664668750582
Mg 12.624690566670822 14.340207905671944 10.653654537802218
Mg 13.59021972402049 11.312399603904433 9.681746219279246
Mg 10.133330332702531 15.122783093743669 9.02981845898257
Mg 17.905735270700227 11.261831836618896 15.526404069029606
Mg 14.922575167733864 13.076517902382609 11.922915933486548
Mg 13.389180622484236 15.284584461387283 13.665428944702123
Mg 18.254169256847636 14.150733803493406 15.438541935747843
Mg 10.44792811191167 16.279630132019435 11.916846710973738
Mg 15.962488385290351 16.027011626768182 16.047103527933274
Mg 16.32132578325906 10.258744677210215 13.180804358374317
Mg 13.27792568115946 17.546138157615605 15.890549098046748
Mg 10.530933852837938 17.809599803583207 14.554719430384065
Mg 10.569266575217958 12.040565725764441 9.60666007085423
Mg 14.79477398321491 8.904383157434953 10.951124681811688
Mg 15.260726599606883 13.071711681306011 14.8132815433371
Mg 13.787263080124701 14.682280682359455 17.434683997194796
Mg 13.004079655900535 10.864806414308706 12.975664265201386
Mg 16.357666897685448 12.982335880232682 17.613859971764942
Mg 8.507549959678165 13.770816826760989 11.205135866915821
Mg 11.199337904938924 15.31625422483053 15.96633873485259
Mg 11.65254558611505 9.222308516831161 10.441671010961144
Mg 15.179219464190888 10.154389634323728 16.075823697390234
Mg 11.013040681878358 13.278887432667288 13.095767730109351
Mg 12.396562577015247 12.420150112151656 15.592820996195705
Mg 8.713485474223376 15.255522643106469 14.10901842201756
Mg 14.220150749381595 8.131865256354304 13.913878941428736
Mg 9.380706585260072 10.619781270832757 11.932884947659488
Mg 13.615627652898706 11.649352933529714 18.25696275133019
Mg 12.903352202235292 6.654341143370427 11.460399240333699
Mg 12.376779458805391 9.229417452890766 16.083257896623888
Mg 11.20711286009359 13.651990490364465 18.555462166516268
Mg 11.150417276131924 8.338923077427824 13.335170637937944
Mg 9.17075827994533 13.132696020337185 16.336867177404656
Mg 7.824166025328618 12.37611185870395 13.761494907210242
Mg 9.88770923167133 10.526279182325919 14.903800247198477
Mg 10.591305937238053 10.853027315524965 17.873635096877294
