43
Energy = -38.55089791 eV
Mg 14.606290519294003 8.85529025850129 9.220197784573374
Mg 12.481626289089707 7.670750977202341 11.092318405018045
Mg 16.740800426250868 10.651494515668785 10.378787440977694
Mg 12.333185828766608 10.607508093057548 10.26773873187761
Mg 10.17932880715601 6.7975216741869735 12.88351127944126
Mg 14.667861116521136 9.335171275899302 12.275710629095242
Mg 9.83399095851719 9.304050044738227 11.336041471982472
Mg 12.222678533635792 8.649013972535446 14.018351614853943
Mg 16.476789948461192 11.172761785913414 13.668860366577679
Mg 18.384502668722263 12.661542147783381 11.947040124641722
Mg 14.462458009125863 12.062828101416185 8.680145474528775
Mg 14.336559805332882 9.999174272866815 15.487827389408574
Mg 11.656202293739732 12.600588887200304 7.978854504863334
Mg 9.471858114502433 11.642692248000882 9.712702542170755
Mg 13.039948639215607 11.720123896068449 13.204364780968328
Mg 12.322638618176546 13.588491672294825 10.846449985853887
Mg 9.266841667569517 9.302728817460068 14.290224107622793
Mg 17.9876085781298 13.536603560653706 14.943787688327545
Mg 15.216144299615772 12.921541427797134 11.48489359657972
Mg 16.15416771741086 12.045776034118276 16.681616160996946
Mg 14.780650108599765 15.163111118265235 9.503034081421713
Mg 11.272558733065422 11.116647702808773 15.556233457152908
Mg 14.985979769805459 13.867855603044452 14.360405209815504
Mg 10.007713525637127 12.124479361936212 12.833630775178948
Mg 19.603574767262923 15.311139652194814 13.154695149707207
Mg 12.190797554163066 16.64036286606784 10.258690678295714
Mg 17.054346035102412 15.330577505140015 11.485517218628623
Mg 8.252349237608238 11.691527634087414 15.596052675306646
Mg 13.261322344709635 12.954203770926574 16.726052394212594
Mg 10.038937610000843 14.785849737703188 9.21025499068601
Mg 7.833588602141622 13.714625369856563 11.0860678648482
Mg 15.559825476121684 15.059362225223477 17.07683203773474
Mg 12.047373918962364 14.366702694919514 14.244291590670224
Mg 16.927047143022637 16.417504101760688 14.372707602522553
Mg 14.31215587272266 15.997974339417823 12.390173091573542
Mg 10.094876685792011 15.357737011569787 12.163159722759668
Mg 10.16242233921421 13.688002499958728 16.755494339292607
Mg 8.021222008661573 14.19323218354955 14.005382478249052
Mg 12.345140504549368 15.75230411704767 17.125445443213078
Mg 14.234626820918354 17.20738695853456 15.186760230337901
Mg 11.913761717100723 17.450115383868773 13.26297859433187
Mg 9.877227135770227 16.30757282018893 15.189555143244002
Mg 11.687460877879396 18.548287567691563 16.133570283879447
