40
Energy = -37.94315948 eV
Mg 7.64662686016621 14.055802222024408 13.746418041847134
Mg 9.345394636406 10.57030973498467 10.164283138935943
Mg 12.452541416328499 15.90265678297322 10.572576399698802
Mg 8.719573153786504 13.038928615826983 7.87118258352054
Mg 7.91670922097882 9.26216538031942 14.566024451055354
Mg 12.097769121711613 9.73688259445386 10.162753196048584
Mg 12.88857037443742 7.4190759379405655 12.123423362683491
Mg 6.529105198410319 10.879549777115429 9.234925660262002
Mg 11.560639652997965 12.903285560018286 10.382131600020314
Mg 16.142436379760753 11.195601670048672 12.27289327680846
Mg 13.075968227920168 11.159569825315698 12.639085879463213
Mg 10.04934734890021 12.044956167602885 12.876813451960599
Mg 12.956346686737072 9.109488174940111 14.941924000732259
Mg 8.113095081095274 13.40293431867768 10.773754835396204
Mg 12.952959674952062 12.199174104830318 15.876519336361461
Mg 15.545335693201817 10.673973570249444 15.325863111417329
Mg 7.600873843849292 8.419849766788916 11.693947116583965
Mg 10.021177302413102 15.177538874372202 12.340616190954
Mg 12.88575542150551 6.919359733783484 9.057409207455486
Mg 11.582153052662457 14.366521925178455 7.457781780967406
Mg 10.181206976788811 13.745699611669467 15.432877406606567
Mg 10.565942386605101 8.331681385089237 7.635417243938981
Mg 14.259323583308626 14.559633479161459 8.630047899182813
Mg 14.427765506501128 11.653404978920149 9.613105582736184
Mg 10.155874333866795 7.231594469894979 10.452891041391577
Mg 12.511094380768016 14.101373239996567 13.483633545162116
Mg 10.405784510985665 10.621604539102119 15.705145767587727
Mg 9.715418949170243 15.583014432473329 9.385845841493667
Mg 11.113082487059467 11.266218653163643 7.511479593951733
Mg 8.279078830733832 10.287651174390248 6.877210366177134
Mg 13.798748595447403 12.273409354665514 6.6714814678893966
Mg 7.731536418581522 8.0809242768159 8.703547701228857
Mg 10.490982500173045 9.070209256272063 12.88927857556947
Mg 15.40209524866852 8.453398625432989 13.35036989709885
Mg 6.92230216611054 11.268683870042404 12.520173839125693
Mg 13.580414155538719 9.360810738576127 7.406263635265673
Mg 7.743108556404415 11.9479371100896 15.73236221631759
Mg 14.684898202918896 13.95769087363463 11.503519372242401
Mg 15.365472081004631 13.374143992080679 14.401380752229185
Mg 15.003268667088415 8.813068087028734 10.433418518575094
