55
Energy = -56.01534415 eV
Mg 11.684704 11.684704 11.684704
Mg 11.684704 13.223512943496777 14.167415875438271
Mg 11.684704 13.223512943496777 9.201992124561729
Mg 11.684704 10.145896056503414 14.167415875438271
Mg 11.684704 10.145896056503414 9.201992124561729
Mg 13.223512943496777 14.167415875438271 11.684704
Mg 10.145896056503414 14.167415875438271 11.684704
Mg 13.223512943496777 9.201992124561729 11.684704
Mg 10.145896056503414 9.201992124561729 11.684704
Mg 14.167415875438271 11.684704 13.223512943496777
Mg 14.167415875438271 11.684704 10.145896056503414
Mg 9.201992124561729 11.684704 13.223512943496777
Mg 9.201992124561729 11.684704 10.145896056503414
Mg 6.639490732139814 11.684704 8.554979496596987
Mg 11.684704 14.81442850340301 16.729916267859995
Mg 11.684704 14.81442850340301 6.639490732139814
Mg 11.684704 8.554979496596987 16.729916267859995
Mg 11.684704 8.554979496596987 6.639490732139814
Mg 14.81442850340301 16.729916267859995 11.684704
Mg 8.554979496596987 16.729916267859995 11.684704
Mg 14.81442850340301 6.639490732139814 11.684704
Mg 8.554979496596987 6.639490732139814 11.684704
Mg 16.729916267859995 11.684704 14.81442850340301
Mg 16.729916267859995 11.684704 8.554979496596987
Mg 6.639490732139814 11.684704 14.81442850340301
Mg 11.684704 16.8843314483872 11.684704
Mg 11.684704 6.485076551612798 11.684704
Mg 6.485076551612798 11.684704 11.684704
Mg 16.8843314483872 11.684704 11.684704
Mg 11.684704 11.684704 6.485076551612798
Mg 11.684704 11.684704 16.8843314483872
Mg 13.29624824092238 7.468766353888479 14.284375420670957
Mg 10.07315975907762 7.468766353888479 14.284375420670957
Mg 13.29624824092238 7.468766353888479 9.085032579329047
Mg 10.07315975907762 7.468766353888479 9.085032579329047
Mg 15.90064164611152 9.085032579329047 10.07315975907762
Mg 15.90064164611152 9.085032579329047 13.29624824092238
Mg 7.468766353888479 9.085032579329047 10.07315975907762
Mg 7.468766353888479 9.085032579329047 13.29624824092238
Mg 13.29624824092238 15.90064164611152 9.085032579329047
Mg 13.29624824092238 15.90064164611152 14.284375420670957
Mg 10.07315975907762 15.90064164611152 9.085032579329047
Mg 10.07315975907762 15.90064164611152 14.284375420670957
Mg 9.085032579329047 13.29624824092238 7.468766353888479
Mg 14.284375420670957 13.29624824092238 7.468766353888479
Mg 9.085032579329047 10.07315975907762 7.468766353888479
Mg 14.284375420670957 10.07315975907762 7.468766353888479
Mg 7.468766353888479 14.284375420670957 13.29624824092238
Mg 7.468766353888479 14.284375420670957 10.07315975907762
Mg 9.085032579329047 10.07315975907762 15.90064164611152
Mg 14.284375420670957 10.07315975907762 15.90064164611152
Mg 14.284375420670957 13.29624824092238 15.90064164611152
Mg 9.085032579329047 13.29624824092238 15.90064164611152
Mg 15.90064164611152 14.284375420670957 10.07315975907762
Mg 15.90064164611152 14.284375420670957 13.29624824092238
