52
Energy = -52.01198454 eV
Mg 12.806616297875262 13.004582407392677 7.459357132277659
Mg 15.163182930288986 11.847068189306622 9.205626952848622
Mg 12.5843834759896 15.792097710184514 8.465926296246696
Mg 10.596342955596242 11.083265925400275 8.31702114435447
Mg 15.316190631667785 14.755392174112735 8.252137159810667
Mg 10.161813663913499 14.027138884701287 9.081224047041845
Mg 13.293697775961702 10.01280897237156 7.817352019885793
Mg 11.756113864234372 8.095554248138676 9.480099899068733
Mg 17.290988647001825 13.57782557830858 10.257107863700142
Mg 16.899641956694314 16.73982265208073 10.037673648169347
Mg 8.776600109858977 8.954723692247619 9.723087932107486
Mg 13.906450755151688 17.814863903402987 10.3416238025397
Mg 12.595702016152119 12.911256271927574 10.652508381141153
Mg 8.209993660384344 12.007561577530945 10.106653323433397
Mg 14.619515646662002 15.067993505715702 11.276326777476113
Mg 17.527701623658043 15.266847818525395 12.748717869182386
Mg 11.40596573312395 15.970662555821924 11.133792963975976
Mg 10.829740272601498 10.500243094348258 11.322057743843306
Mg 17.038046066428848 10.41489163610678 11.051389262476828
Mg 8.288875520909624 15.224837718982716 11.50441120567937
Mg 8.074570027679645 10.142360203684754 12.552088525022883
Mg 15.032798237176086 8.1978302928447 9.61479116464515
Mg 13.329038390051444 6.81337935233191 11.686279047598426
Mg 15.936103145963534 17.845707949191407 12.608825614629009
Mg 13.738304254534274 10.116938535617527 11.36494004908102
Mg 7.508921959802556 7.032818773874153 11.823529032488088
Mg 15.677020432931538 8.331531366839192 12.891506022865432
Mg 18.765397061855715 12.533049591599422 12.658044456296677
Mg 15.277420259206968 12.492364157973284 12.640064792603207
Mg 6.743121624126971 12.88828063670078 12.626191360447889
Mg 10.512883463325355 7.719944708712255 12.410242882682391
Mg 9.943751506759183 13.013098287484162 12.580335714393069
Mg 12.696424195230781 14.365299395552531 13.421730362224658
Mg 17.811823323723274 10.167966921936976 14.020406348935692
Mg 12.535680891068548 11.48344936035789 13.700715101430852
Mg 12.898417068608643 8.440282969167617 14.242027529660477
Mg 13.077131938530478 17.450357185342927 13.371662753976874
Mg 15.239965514544764 15.596423937288536 14.635801643221617
Mg 10.251261360359193 16.237401934316363 13.936403859153776
Mg 10.181881263323376 9.836837329346576 14.732628693840386
Mg 7.815649586392076 14.738808425493204 14.764094902098615
Mg 16.97109605265624 13.017940516271407 15.103308030655187
Mg 7.8672782613111005 11.735528600644532 15.2043815298974
Mg 15.085890301943442 10.44333188794287 15.113408240441608
Mg 10.62374339419664 13.208386090384742 15.400063127960196
Mg 13.98344854088649 13.156985928929368 16.04435564403277
Mg 12.497359281851502 15.84975609876175 16.112853443238798
Mg 12.46788497504089 10.623379928454893 16.7203054778631
Mg 9.665582282614487 15.94081082181872 16.930529872434143
Mg 9.663285242172734 11.007075195731794 17.625506644688066
Mg 8.220228337189404 13.551623834208508 17.66289882723174
Mg 11.418235601737862 13.53077264553864 18.145145259950805
