55
Energy = -53.88118649 eV
Mg 9.457029975754578 11.503796863011011 16.941855596582894
Mg 11.255882169948892 8.792692336266388 12.37162068937091
Mg 9.687524032722353 11.380913242535401 13.548935927833783
Mg 11.544714709573734 9.651793774484545 15.481802521078096
Mg 9.057838840959178 14.108096947641332 15.22838084345441
Mg 14.099782840604373 8.798776643062006 17.197537995036036
Mg 11.436894640160222 11.373443890124902 10.434281960179316
Mg 14.100393144676076 8.670036828198109 13.967585328660912
Mg 12.516039393306345 11.459870718013596 18.110149539206624
Mg 11.618916505866537 12.689138338684671 15.428151322643185
Mg 10.954079826983389 14.109685597045447 17.98927258479085
Mg 12.616281408501374 11.24306271019899 13.103390563757301
Mg 14.108036677512862 9.634675520722485 10.995338356731109
Mg 9.44926295204053 16.720323921443608 16.932241056449392
Mg 11.350752506891604 14.101158936524158 12.392006431420977
Mg 14.105932780459684 11.229128822248937 15.616863966998919
Mg 9.687244150818728 16.824212014779988 13.542722575702605
Mg 11.616393455831764 15.519620626433428 15.423846388392981
Mg 14.111699949393453 11.424498639884767 8.444790150547405
Mg 16.947139572413 8.775822424531107 12.378803750870533
Mg 12.52113190954791 14.09871097741261 9.025701272527387
Mg 16.662790574544115 9.651247070907838 15.48078610530959
Mg 15.689704942543889 11.458487886444958 18.106177041837576
Mg 14.104242865233655 14.107774143021174 19.685595961731877
Mg 14.114251650451154 12.674672754442414 11.05679317738606
Mg 15.598205868390595 11.231745851934857 13.108426222419444
Mg 14.105436298958278 14.106762874802058 16.874782998835844
Mg 11.44181523055787 16.827041940232874 10.421632538042603
Mg 12.516687650943368 16.758306531485115 18.101614024344418
Mg 14.103939834415206 14.102910429552097 13.868063110357728
Mg 11.542184096544908 18.556990517216665 15.470469213819074
Mg 12.615533388182898 16.96442166412621 13.097944937380307
Mg 16.774556741990626 11.365407399987744 10.432681651401628
Mg 16.59328106778234 12.689848562806443 15.426930796863457
Mg 14.108388482568438 15.531168103264442 11.051248497515134
Mg 11.256487028046902 19.41023262902065 12.363480795493082
Mg 14.104229660614049 16.984732005636182 15.612431106042688
Mg 15.709683720553226 14.099020111423991 9.03268032197078
Mg 18.522255954686635 11.376120707514813 13.54904791628722
Mg 17.254135142082475 14.109509164236746 17.985372007047662
Mg 18.754977041521123 11.47131339925191 16.939351959923524
Mg 16.858965177779474 14.105395274953503 12.39432825923261
Mg 14.111351116209683 16.772269546239528 8.43560707035203
Mg 15.689015460836814 16.76174196838425 18.103444068044354
Mg 16.591326000316812 15.523676787798687 15.425206880154246
Mg 14.103137646215638 19.42758779245421 17.181046072448055
Mg 15.59697057988662 16.971599557966613 13.099744918456393
Mg 16.773923521605425 16.839893936254192 10.426440311879603
Mg 14.105034474856804 18.56731265880946 10.985169904816448
Mg 16.65882936920328 18.56016886850799 15.468614595775245
Mg 19.154956777230392 14.103990717960018 15.242467602282389
Mg 18.74683022330607 16.746444467109797 16.93341995819451
Mg 14.102388616171936 19.540525883788415 13.945758009689253
Mg 16.944822168497105 19.430192201400253 12.366903699222938
Mg 18.517977683305826 16.833314317817052 13.542346943207011
