54
Energy = -52.47370909 eV
Mg 8.971450143024592 16.34820229800067 15.44826144068781
Mg 8.963823508592371 13.587482120819121 16.72885994485709
Mg 7.92856660318477 15.902533765878825 12.764421356426915
Mg 11.713078403862989 17.070662747728928 13.867078786878409
Mg 11.607619562800837 12.199162433660764 11.300349844277957
Mg 9.479086005501188 16.40472749144263 18.398596493569606
Mg 7.560635032413407 13.148279651261715 13.96256668483508
Mg 11.780778134987074 14.873059992417689 9.62552390976804
Mg 12.687681487671217 7.666307374740715 10.905126938394542
Mg 11.248885194092583 9.605219749366606 12.947238729416226
Mg 13.554890053547927 7.729204201018166 13.679485683339855
Mg 13.796759265506983 17.319529857661866 16.121445989938422
Mg 15.048354031630005 16.970017432758976 13.483300955608984
Mg 12.668671262094973 10.75220341848127 8.610712403482335
Mg 11.534125797292425 11.875059728092031 17.284059365808915
Mg 12.366949391204466 9.486853644456213 15.796591380605907
Mg 10.815401814474402 13.906818946528395 19.29735531374478
Mg 12.85612110889479 13.440830808531405 7.194148073272476
Mg 13.120218159901297 14.557604869057016 12.523587811342686
Mg 13.977566803722848 10.271784431576778 11.67948342168542
Mg 12.431867299676089 16.66523353426886 18.85301340065153
Mg 15.42783717205336 9.961777135786186 14.342362804141116
Mg 9.757029725820047 11.195629572719524 14.949494008622667
Mg 18.112290321516955 10.472406592108511 12.949277641391472
Mg 15.447744531995545 16.482783846150657 18.65364881022949
Mg 13.674291724202517 13.920339153072534 18.285017595727133
Mg 14.664158825057148 11.61217151467037 16.757668043518905
Mg 11.657645806704135 15.060038193233478 16.315103257854464
Mg 12.818525686406261 12.079988145032264 14.217778230093234
Mg 19.8198267137546 12.866780677794205 13.87729067130463
Mg 14.285616850843294 12.908047728563933 9.984328530258427
Mg 19.134120121464356 14.58791104701695 16.163999870755124
Mg 14.928317144281964 8.853664795368669 8.904687165027436
Mg 17.25787185252472 12.260811761723732 15.354994146444778
Mg 16.65380874671676 13.926902000413794 17.76821568567423
Mg 10.419208389448873 14.106620068869894 13.75991976858493
Mg 16.665605818429334 10.83004548161768 10.281166464425306
Mg 10.299959963757201 9.55953036079341 9.962915745985056
Mg 8.784343652978345 11.160256892289288 11.992676174297555
Mg 15.549375446922548 12.626491249038244 12.832545816570397
Mg 16.796151872432446 16.68122259505597 15.996279632319554
Mg 12.221630970138131 7.833329192990272 7.982940338061923
Mg 14.718507992074372 14.390954837933442 15.32758142648112
Mg 18.31160581651091 13.187049978925437 11.32734795397897
Mg 11.038008663085753 18.33555234131446 16.631612075523933
Mg 17.44880099527727 14.94609572604864 13.67365815294521
Mg 9.069990123821613 13.938486148571842 10.845078476323929
Mg 10.208029002783107 12.464028580472151 8.508919225343826
Mg 15.370635771330765 11.559224735507156 7.312382004090738
Mg 15.92319094331898 15.210401020741783 11.157963773531531
Mg 16.992553164574034 13.639420040322664 8.68456115062001
Mg 10.300908392395122 16.86876493153319 11.191490867001244
Mg 14.617895390965787 15.685905526939447 8.40717734430111
Mg 13.36632892510589 17.152900507531662 10.964753719591481
