51
Energy = -50.53599689 eV
Mg 9.412640719522646 11.250980028958622 9.862591540878157
Mg 7.906320498022979 11.922534842011018 12.402033411366547
Mg 8.376167457348906 9.101590974435267 11.635647804161422
Mg 10.825716828834013 12.899929494824365 7.720642744529181
Mg 10.949377343525972 9.861437363068395 7.797623532618025
Mg 7.999211417685619 14.922272112724768 12.962576240282617
Mg 10.153292505657397 7.422641594953269 13.189167326983249
Mg 8.745252857449364 14.237381262801023 9.775997817315575
Mg 10.944861961008735 8.066520852564905 10.292277098817678
Mg 9.140910528762474 9.876555193593365 14.686351354845106
Mg 9.29530908928315 12.902757800244858 14.945575235466874
Mg 11.122758999092968 10.562481203873903 12.479711325617425
Mg 13.654306367380242 14.053170869680635 7.48026761379706
Mg 9.878294093528119 16.748176205729212 11.283284583418807
Mg 13.6823316185572 11.079902353945593 7.326234239138465
Mg 11.19958836972663 11.05275389893001 16.654860388942
Mg 14.68608718706119 6.817584922627634 10.131721925507257
Mg 8.71403055917189 15.917638335513201 15.949322567982977
Mg 13.065402996556765 7.375517795009431 12.680062237749063
Mg 13.303324230907721 8.114157014733388 7.965831277428485
Mg 8.31234972473172 17.827031401440987 13.596258511491662
Mg 11.868357611275677 8.360802571900063 15.443744820129012
Mg 15.014434386876534 12.327572297470084 12.186511701852236
Mg 12.83496137764238 17.579130165181063 11.114839238077057
Mg 11.04945488584636 15.671988062464267 14.086633577798992
Mg 17.839513481468856 12.57116904532127 13.58018486834468
Mg 16.071167941701447 15.106476327474423 13.635148350876308
Mg 15.612033957303382 12.567319849216132 15.57087940054846
Mg 17.35989616793461 14.145847185735628 11.052614649072744
Mg 17.588780336116717 11.025082225469603 11.01860455615212
Mg 13.864723517053246 17.380386097570454 14.008476210516417
Mg 14.23110923592428 9.980540345195676 16.86689432117822
Mg 13.323882277794429 14.890818282334886 12.289723843167806
Mg 16.881130986206916 9.978029795408883 14.759120482137858
Mg 13.546363195636276 12.693142063031974 17.705133989900588
Mg 14.015692983378518 15.128877333065548 15.94230340707034
Mg 12.501498292263486 12.831573769472264 14.374122525958683
Mg 14.943420312048163 15.43720298469886 9.865991423222118
Mg 11.207846312473997 18.723296214640627 13.50455725729829
Mg 15.822467463956963 12.558839361392355 8.9870803779059
Mg 11.153314584335128 14.259817297179726 16.945602156344194
Mg 15.991489127059811 8.642535024018805 12.191746878558035
Mg 11.893649330534133 17.288187157925904 16.52421773647467
Mg 14.960375014327877 7.6652097143247815 15.086258787547383
Mg 15.935528407497305 9.461388579145817 8.980307960770867
Mg 9.496652556276711 18.858149986492926 16.073952140265348
Mg 13.817309048242077 10.186371296008634 13.858935320101587
Mg 13.493998022778676 9.783715055471161 10.699550183752605
Mg 11.656648896321016 15.381929289084649 9.334628990902177
Mg 10.569326282414073 13.570018424809964 11.99168347144152
Mg 12.731966140104296 12.576096163438589 10.147040080905013
