5
Energy = -0.85119896 eV
Mg 10.925451911971088 9.254321137405064 10.435407519798614
Mg 10.565169927926975 10.661020855498952 7.867884997057722
Mg 11.962979022979132 13.608692396032843 12.876017070903666
Mg 10.150067664911095 12.183332573295965 10.667238269963057
Mg 11.703965540422438 10.685768377847626 12.855579442614008
