53
Energy = -52.49500139 eV
Mg 19.90943635499591 15.970149783506875 14.93829294646478
Mg 20.33784470209009 15.184535869651972 12.1316682241404
Mg 20.189362482397897 12.990616746193401 14.394908237103424
Mg 18.149521356234743 14.153307169876266 16.691832050234538
Mg 18.24457640447603 17.34243674350996 12.686880911889645
Mg 19.29026830004992 12.562384555342621 11.3550463335753
Mg 18.480610575273282 11.23899233073745 16.272333457911746
Mg 17.578522168592695 14.289866157841011 13.483449589879992
Mg 17.009983565511806 16.73145891807353 15.43761252280454
Mg 17.18162660910588 14.693315348875716 10.438964894109827
Mg 15.904920367423609 11.821077877421823 17.903247455449147
Mg 17.566687661110194 11.18065593715458 13.412281474548962
Mg 14.972862017492323 17.883949117732584 17.245472944196372
Mg 14.896054274705104 18.742920423477816 13.886000562647393
Mg 16.728514280523132 11.316656841529076 10.471421170886675
Mg 14.937695230653487 13.14876581473594 8.963326475589655
Mg 15.462950223612957 13.113565895434693 15.198576337200889
Mg 16.40803487599265 17.907341341146513 10.432803717427229
Mg 13.45554617731511 9.848810402196797 17.34925741196851
Mg 15.335286970457469 14.885856174976848 17.792258913797973
Mg 14.867486813398425 13.057089312395652 12.194841336515278
Mg 15.377526666702654 16.089918394714317 12.565132328410053
Mg 16.025844666820262 9.73800903152989 15.573768431335978
Mg 12.506921635521104 18.691537374664073 15.924595944431589
Mg 13.969474207447307 16.044992422165745 15.119563615398638
Mg 14.084816978197699 15.850320990723866 9.710329340536525
Mg 13.547488808999113 18.43169668874129 11.068099213953328
Mg 15.18574271834273 9.507837247513336 12.463031833347634
Mg 13.88258134926147 7.78853175716072 14.700155791457506
Mg 12.417443232179968 13.601281938114841 15.329968144197156
Mg 13.363194357282989 10.865615579111662 14.579492432083505
Mg 13.015996813032329 12.82845768549438 18.186881567138894
Mg 12.366141309463698 15.278995549125762 12.58952900238818
Mg 10.6938136685336 11.23969183826093 16.530561872593
Mg 10.690935220427868 16.36963000582347 15.33265861022985
Mg 11.231618185475437 8.466027171934979 15.473159738703547
Mg 12.07838568267835 13.577172421614002 9.674327295473198
Mg 11.986377564196463 12.28906832791452 12.429047295058865
Mg 11.523807891219594 18.332088087758642 13.119588139793215
Mg 12.49523543539939 15.919006394745951 17.772024972863218
Mg 13.532840746540804 10.807327187357417 10.253425809584689
Mg 12.129258442428764 8.961363119478149 12.394330985746496
Mg 9.836627117790846 13.662483656288982 13.913685184109532
Mg 11.04062195850562 16.642453740171007 10.308538237462276
Mg 10.002908117323255 14.091266558154544 17.230700490456
Mg 9.799354564772232 10.45018872214376 13.753437675841768
Mg 9.06085677924609 16.418874640132366 12.703853132121099
Mg 9.34885972451961 14.00892412538661 10.906726479956058
Mg 7.823518361985622 15.369422377383604 15.545178593999394
Mg 10.209021410018002 10.959557724558358 10.587429449105777
Mg 7.608689664793839 11.677953651479863 12.111945737441925
Mg 7.704746979397549 12.239144557144549 15.318907836757575
Mg 6.7513234902830455 14.260832648471562 13.029563307247264
