55
Energy = -55.72900038 eV
Mg 14.081200195536093 13.91951975183371 15.028223160173203
Mg 12.478828912992306 15.861429081129192 12.973974445117305
Mg 10.755389557196892 12.903967531025994 17.882767732706046
Mg 10.525897711017121 10.193157977570742 16.367955264782964
Mg 13.25967135879837 11.43574976416707 17.12880480150108
Mg 9.137221806139337 16.19660909619975 12.284585729089715
Mg 16.0109188306139 15.713291703606485 16.621690769142674
Mg 13.431410019493553 18.811597695753047 13.53630536917421
Mg 15.77835277427611 9.677164359809028 17.08050071632702
Mg 18.42613129556836 11.408567350388438 13.024735855847299
Mg 10.581526552627036 13.485031367136347 12.367906333377597
Mg 10.59810839668234 17.68810849926127 14.721578072220085
Mg 7.8826366482062795 11.147946985373677 10.708040135306696
Mg 13.33411205611315 16.887798150295286 15.86676646869889
Mg 12.022488493662241 11.585507746351883 14.236873884865398
Mg 11.884819412968332 13.031082129882286 9.261655884480666
Mg 16.382593585421944 9.890822079903302 11.47230061753183
Mg 15.980351495442365 12.690462194013712 17.3024514566334
Mg 11.166632759831943 14.337091721375241 15.227651087040236
Mg 11.0637747490146 18.44463667112326 11.752296528906163
Mg 18.49064514946139 17.892580494299768 12.502460555532835
Mg 15.512237329966187 15.687605053653435 12.992654240427353
Mg 18.453033887054506 16.408497191158993 15.001701024957521
Mg 17.334976266730347 13.617876297672002 14.766461394934298
Mg 8.854718508026599 13.93307272509007 10.010386054881355
Mg 7.610443995405682 13.52832532731577 12.973880841906485
Mg 9.339425720447903 8.833242754925415 8.840744386417079
Mg 8.850330400490412 8.37030192660737 11.665928253802162
Mg 13.566893519175274 8.877684575342789 15.283126556893107
Mg 12.098908105320652 9.997214621556086 8.289246671579008
Mg 9.458404547550277 11.640103533178698 8.05064474209485
Mg 14.303922318128816 7.396096328160181 12.599181245304363
Mg 18.674614586953876 14.840912131511521 12.382710230309298
Mg 11.174241609988764 8.509457468106074 13.602382552864956
Mg 16.84862020787011 16.48232797593766 10.34438671184767
Mg 13.47510937185762 10.115568575955324 12.102420712373437
Mg 15.294146455760565 11.377691874506743 14.170666178847279
Mg 16.661226511348733 8.650258931070569 14.28650316281248
Mg 13.53077974286117 13.117539985935649 12.0880331133317
Mg 11.67398098784341 7.743856009699248 10.656504330461397
Mg 15.983989159182089 19.16778212445231 11.863880241131932
Mg 14.385554685396773 14.742279548836336 9.718750752847766
Mg 11.338511629979928 15.811046413056834 10.11791395946176
Mg 8.376205257865882 15.631786739328131 15.166985849347563
Mg 14.548476156603234 11.533321048149983 9.517815031356568
Mg 14.365942949530485 8.459424008369428 9.66071157044149
Mg 13.303062457104778 14.481425599441176 17.905147860039904
Mg 16.49778772713864 13.065494027823014 11.353838343094159
Mg 18.175536363718376 10.856654163113749 15.919502328321322
Mg 8.673438118663995 12.67048259369752 15.78517975469745
Mg 10.878385458124958 10.812126954593595 11.090987956041094
Mg 10.717629222313509 16.153134581392262 17.515482378902362
Mg 9.012559961412142 10.725565769597617 13.598305986282352
Mg 13.829580774373012 17.49257067607579 10.709064976277002
Mg 16.123760195976658 18.266296065417368 14.818491688483196
