52
Energy = -51.75471208 eV
Mg 13.273425209266335 13.384775455171086 6.45865694559808
Mg 14.237671351500545 10.648116986026801 6.188424689786539
Mg 11.010422798895389 11.073888168998606 6.6443717785966
Mg 10.855899756193738 13.822375951857262 8.05135601836198
Mg 15.722602960527503 12.54805220317611 8.156240972763113
Mg 12.62685954563625 8.515553401949287 7.378157398053148
Mg 13.647441736122582 14.508211303345453 9.269547473344765
Mg 12.70534182350876 11.177676344588656 9.045926334537153
Mg 15.364966468347287 9.636669061886884 8.920324605413034
Mg 11.372464207162283 16.139132468307317 10.25898757828818
Mg 9.295389558068738 11.497749694737466 9.483578921991962
Mg 10.611629481667885 8.805463911446356 9.696527078700054
Mg 8.778780084812322 14.570418314312178 10.105475476290698
Mg 17.4001371192896 11.410074659705762 10.644275749807832
Mg 16.379488770299105 14.526121255020907 10.493916540928089
Mg 8.826895193697812 17.25187455096977 11.627873493220843
Mg 11.435928783238074 13.010604650456104 11.008293843161999
Mg 13.378997824272341 7.725979940622239 10.159937216919657
Mg 14.547516675481766 12.0891797834845 11.150269491669075
Mg 8.15583845207017 12.59501297708966 12.235042607982376
Mg 14.211393531862594 16.993178725435484 11.172530534180037
Mg 11.629056191799869 17.734913590633877 12.825987026247475
Mg 12.437255252291022 10.001939186577179 12.05914362919981
Mg 9.219972609803602 9.78963188519573 12.247044650869347
Mg 17.525826921111815 10.326441217561749 13.729211279788865
Mg 6.673693512209053 15.28881960242859 12.188262533393772
Mg 11.130736786524201 7.335837363460554 12.61960396542504
Mg 13.553754848794549 14.445771266568165 12.63906315157136
Mg 16.351436490033432 15.974918766977614 13.117310704049325
Mg 15.473295027764221 9.236892936848955 11.911689244783885
Mg 10.940631525095496 12.006704943533094 13.739374061770386
Mg 16.978241924126873 13.108381339802472 13.145564384320977
Mg 14.138381769392693 6.709342995305708 12.868653792143986
Mg 10.258428754933279 14.8931834179758 13.045031257432166
Mg 14.057803143908007 11.59043878584817 14.19339442232478
Mg 10.733415265092653 9.240488161597224 14.994563746882074
Mg 8.127876132820317 16.53416712503822 14.550510750610412
Mg 6.624543759843118 13.765149261708137 14.644728048329565
Mg 12.759798855930512 7.2157551295067 15.364791772104171
Mg 8.339654200752454 11.176171497827994 15.027987025894532
Mg 13.951820024930491 17.003297583383365 14.57856259338111
Mg 12.394336758441654 14.013642224308995 15.287645387703604
Mg 15.522362808225179 14.238020421076664 15.471552471390423
Mg 15.434326683447194 8.577859388062638 15.00599239346622
Mg 9.308897391600937 13.980863121341846 15.899650449430448
Mg 16.269595072382653 11.215682146486571 16.340233300367753
Mg 11.064240579794557 16.660877633247885 15.673349998935567
Mg 11.020384871964952 11.575879512474751 16.888130164365695
Mg 13.374807672909423 9.703987654768163 16.930434644429102
Mg 13.882684502900656 12.651345467176101 17.59581133609388
Mg 13.818048330832484 15.854754806431202 17.347941811544164
Mg 11.363392118026653 14.41652287786183 18.116856371758924
