54
Energy = -54.35113735 eV
Mg 18.61231445294744 17.023488018641263 12.27321075193291
Mg 17.637435140180134 16.374943897978184 9.30026286603006
Mg 12.49978096538953 17.530075824610627 10.66224228721696
Mg 15.934763761398736 17.23003325665446 14.16001666734941
Mg 10.474832178809443 15.760389799642823 12.535075409043213
Mg 15.825397404559018 17.8386381852928 11.130645597404524
Mg 13.866463269143559 19.111196771640333 12.85184161396015
Mg 17.94522470191464 15.527000605393127 15.439547433202895
Mg 19.478616535883763 14.4948826997783 10.45947528765714
Mg 19.69802598616023 14.39610885705187 13.372900367230832
Mg 14.735919520043627 15.415722045725172 9.664730879832174
Mg 13.16732622737838 17.52020695257746 15.35176595674388
Mg 16.59041423640088 14.899814186752279 12.222288322760644
Mg 7.444750605890423 15.717549303303459 11.896650837193555
Mg 11.455411318111766 12.955939132951112 12.787512174195781
Mg 9.107560597510517 13.818790932622553 10.259965402365872
Mg 16.852794614778258 13.308906298413085 9.437854836972697
Mg 11.002938199067458 18.605916513168147 13.29944841875743
Mg 12.011686976597996 14.530384531856376 10.090085235848383
Mg 15.320932946195144 15.98163165281477 16.981146134046877
Mg 13.609252363397548 15.630189977765125 12.813563248743243
Mg 8.113765735882675 17.81347810497487 13.833716536210417
Mg 15.307626138428914 13.810972486718525 14.73172331716836
Mg 17.94731056547325 12.216444633113104 12.03024599960126
Mg 10.218630095403874 17.200591437916522 16.04230750544383
Mg 14.013459064310409 12.380581621025701 8.797348428410633
Mg 14.412832899100357 12.92466546851308 11.819027000535726
Mg 18.139158492163116 12.443947487820212 15.074573312452566
Mg 17.153290675966403 13.598561065246473 17.707189832599035
Mg 11.345946710593052 11.559547566440497 9.902965678161648
Mg 15.811037647787707 10.524379331944925 10.526682909958325
Mg 15.833264536856657 10.79134534836766 13.631849854694915
Mg 14.11557132724728 13.191479474861994 17.737345665138147
Mg 12.489358372156781 16.293127562399924 18.08802729714159
Mg 12.170957598199893 14.551760943645876 15.382337736133762
Mg 12.982187844614563 10.316508513934707 12.25147259237587
Mg 8.651432993826214 14.965173711781615 14.940923120778447
Mg 8.563960009825486 10.81582327065661 10.715561520747196
Mg 13.35846625394036 9.290792704781463 9.298619552887471
Mg 8.339565399217054 12.776853834189877 13.000604463959217
Mg 13.146271867874232 11.679936093597247 15.067465283086435
Mg 16.042261580299588 11.02294207724211 16.653841061516133
Mg 12.127355689717048 14.0222470194455 19.927529630421194
Mg 10.068023234147033 10.144426428546321 13.335177452237955
Mg 10.674311091957604 8.63689332710949 10.722339640931022
Mg 9.940776094141713 12.23051064848895 15.537169041934234
Mg 14.91659677683066 8.03922865370953 12.296155143286272
Mg 14.268721019361173 8.694750423235865 15.273745747186235
Mg 10.01117211464279 14.568063072575178 17.686990087813978
Mg 11.358254297068074 11.81343690289281 18.04488232128641
Mg 12.840689694607281 6.6656468804467215 10.653175465250516
Mg 11.995986765131438 7.696233235606722 13.466326245145826
Mg 13.612226031846708 10.012656284218714 17.989453091939247
Mg 11.320408105707097 9.373586776208018 16.0292967241245
