50
Energy = -47.78453807 eV
Mg 8.416041318265021 14.953140612122464 9.746145931784083
Mg 9.66759029859596 16.403614225349283 12.255672614659384
Mg 11.39982156531472 19.185369282822695 11.027213840471227
Mg 10.89083745089706 16.628316428001785 9.367421840522269
Mg 8.432674786242387 13.25157402750063 12.23909086523264
Mg 8.740614906283222 14.839470196757441 14.691872050633163
Mg 9.061197943590946 11.941065619110356 9.534883752042822
Mg 9.792626114632561 11.625245360233821 14.41444585680785
Mg 11.702735282504737 18.28149706243813 13.912543274801957
Mg 13.784881084222643 17.972424242972938 9.539000992743896
Mg 10.734527888561727 14.022993427636823 7.808126320581588
Mg 11.131482804354368 13.889652731697852 10.876259793852455
Mg 9.083646114194842 8.8713889115411 9.899888958506267
Mg 7.912368822045148 10.30320073467138 12.284552353226552
Mg 12.664681611715341 16.340032637066326 11.805190670601661
Mg 10.312555895749426 13.42836273073115 16.82242243848366
Mg 14.265775398664893 18.88408896667113 12.457780748941683
Mg 10.913264361616028 10.856446027825854 11.679363012815651
Mg 13.509752572776634 14.888011049076178 9.175312805658702
Mg 11.603276789491035 14.15692789525212 13.84199039746739
Mg 9.584984077444538 10.584037838013613 17.23000393536084
Mg 11.049047670010411 16.31258764201356 16.01067944320979
Mg 12.293225172175985 11.741155200066737 8.981779000882225
Mg 8.269339686150227 9.008933263141428 15.076463050302511
Mg 12.764004225040994 11.283718820850657 13.914583248022826
Mg 14.103938410923229 13.611047032208944 12.323025357491849
Mg 13.173041061583747 14.262265475488148 16.65110242367402
Mg 14.076807990185545 16.252033064567296 14.424626009049655
Mg 15.669408159988125 16.389987164636494 11.366304734526167
Mg 14.020035113174906 10.681434300226723 11.325162654259575
Mg 12.078363380201717 8.606850003839948 9.928600843290646
Mg 15.422364408874008 12.656180921972512 9.469708391312391
Mg 14.570868038883251 9.895918929694037 8.482836789112602
Mg 11.279812083104424 8.848636713342458 15.32887895675718
Mg 9.933536023837878 7.982803643688671 12.641756469553437
Mg 12.630614162261306 11.263446257215728 16.963463147670925
Mg 15.340673065758649 12.246590508115903 14.963909911771891
Mg 16.64590782906233 11.939486247356992 12.189492843063011
Mg 15.306513909910434 12.512650254495691 18.006841206204243
Mg 15.988400638482329 15.19600400131712 16.592403587661423
Mg 16.637720972296645 14.704465225223418 13.718360995604959
Mg 12.956257323949922 8.133048346423614 12.896278844688387
Mg 17.7741169890046 14.356972637101027 10.829146441643031
Mg 14.916937480726896 7.777122895094547 10.621306204866588
Mg 14.210662112000652 9.0018147945662 15.613450631909583
Mg 16.709659888619118 10.129211868706122 16.742660638268575
Mg 18.066133700303453 13.070870514280475 16.218485059764426
Mg 18.237187564770334 10.608441241036253 14.305005240217818
Mg 19.235401916045742 13.244375153345734 13.283305455084554
Mg 15.905125977834167 9.10034839330443 13.185231352958642
