53
Energy = -52.79946584 eV
Mg 17.66261676819996 11.990803846221855 11.64437157941944
Mg 16.891890143475642 11.105095566799985 8.539146352452153
Mg 17.623519026732687 9.854795502566589 13.782096949593043
Mg 17.41031250637254 9.110128889722185 10.759071199004246
Mg 16.721153253863015 14.93213276850142 12.210397600272247
Mg 14.108059074605984 10.62387312706968 7.407819852986496
Mg 15.43243671580915 8.353027247833289 15.404515739927318
Mg 17.394964685820977 13.046909843810115 14.543133324764547
Mg 16.157026568418285 10.982250905335164 16.53739956307204
Mg 16.359439453496996 16.301060199565953 15.032986844364556
Mg 14.717978772364672 11.16146332972473 10.680253827796504
Mg 17.273508351508085 13.984252307426406 9.460072532183686
Mg 15.036074854015466 8.355021995436838 12.380765342677924
Mg 15.793460365683156 13.900271768800245 17.04520176893546
Mg 13.71549181617068 13.928388765521614 11.376291699115235
Mg 13.468563666200666 9.503163356864741 17.47493402197096
Mg 15.027496243565103 11.234983369059997 13.599239050254917
Mg 14.762387434133498 8.464861818079164 9.28619935322733
Mg 14.65506961505759 13.430007854584218 8.23207740403289
Mg 14.496285281692431 14.120855397225352 14.31116159055176
Mg 11.772809632357587 9.048202517984782 8.283591286491307
Mg 12.750941931112086 9.080436476943973 14.336859352946526
Mg 13.079145404816726 12.00493423308402 15.833236219363386
Mg 14.387892869189283 12.031225034851325 18.928983421037994
Mg 15.129127684957822 16.114341440543672 9.727937637217403
Mg 14.855474108902692 16.706306358493705 17.6385725416864
Mg 12.186064191291095 11.791549667138009 12.852587424008203
Mg 11.542513451459675 11.66486744769995 18.647114085547045
Mg 13.096167146776073 17.073716755679307 15.368939866564235
Mg 12.718908641259008 14.547448448096032 17.468229361581713
Mg 10.52036484391811 10.31208634688882 16.063411047415276
Mg 12.27825848547333 9.204674646326067 11.208423719058672
Mg 14.172721105646655 16.71418445832512 12.645231718610832
Mg 9.952902393011476 9.267659070398466 13.176877370357497
Mg 11.613246924118805 14.363120207966562 14.358842006762757
Mg 12.1712472292529 12.081743470243275 9.402786280938797
Mg 12.072074796446653 15.049399248295588 8.802631647509658
Mg 12.569027423121243 17.627338179566436 10.399411303578999
Mg 10.673975567176335 14.436814071481779 11.566847815868435
Mg 9.262880919568039 8.917146487980109 10.04354990957305
Mg 9.801957928587166 11.635034490821134 11.070982944716153
Mg 10.869837029083468 17.130256174002792 12.982572370510749
Mg 9.938569623893972 13.333319801456287 16.69602729499924
Mg 10.361842775394564 16.410680804909617 16.327019547763637
Mg 9.253824153732431 12.146952596391175 13.992319868772643
Mg 9.62665391351314 11.191684886900006 7.963597476744042
Mg 9.875335337927767 17.000537088375822 9.605655830751425
Mg 7.292198855501624 10.337101224452269 12.16673312010322
Mg 8.998317816037344 14.020214293797157 9.128459077123157
Mg 8.665241234711566 15.098968013027052 14.215359066164451
Mg 7.26160766727188 13.369325476320766 11.984847590024263
Mg 7.929486548286494 16.208260861044998 11.530272109901626
Mg 7.054912940797032 11.596734050265136 9.500660257434964
