50
Energy = -49.31364689 eV
Mg 12.296209076065365 14.406216155172567 18.721828962706812
Mg 11.940693565100446 11.57166126557901 17.409701147544897
Mg 14.4296195715646 10.325647579054888 15.588915159928389
Mg 11.81023758480502 8.914335739295243 15.840069698511474
Mg 9.937209100153257 16.301925105272215 18.73642639374577
Mg 14.757207210280875 15.959957756454754 17.928523680276694
Mg 11.951134753217568 6.507579151352984 14.024554728152397
Mg 14.447756885644045 13.174327472150189 16.835084867012593
Mg 12.199035653202484 15.049950687809796 15.686587594909858
Mg 9.7977954972389 8.658017667346456 13.572077875543252
Mg 14.666431671638547 7.610832751620452 13.9679469138349
Mg 12.216035997587861 17.54858691032733 17.29475152034247
Mg 9.770630337932397 13.709057658316944 17.126352439953788
Mg 16.949691526954073 15.189214620681062 15.929172826365308
Mg 9.629423738136962 11.139938453313652 15.431281219949502
Mg 17.04611804909513 9.411758431813793 13.9990918995169
Mg 12.321336817701447 12.412381819324223 14.353326684024166
Mg 12.706015039174224 9.787786971910602 12.85856122339679
Mg 16.91282135118624 12.04227497842069 15.588286518228196
Mg 9.560896771279452 16.653514084570464 15.775682491837832
Mg 10.178836739354994 6.375089060599929 11.689119580724567
Mg 15.6041514629474 9.126298054179934 11.322327365379042
Mg 14.7933027508888 17.352044352093337 15.29243360017784
Mg 13.096686344113069 7.3118090320177505 11.226835009232929
Mg 14.675297050387107 14.52582800235509 14.028396345139667
Mg 17.945611690269935 11.168709700783989 11.638540858099566
Mg 16.994594857777763 16.356208830000323 12.797388008384866
Mg 9.449379934883627 14.005452276651797 14.118449229134146
Mg 15.231710545177908 11.868340679088268 12.84172342094018
Mg 10.611314589655096 9.109389184221111 10.528078148538428
Mg 15.759071106720521 11.822576609629948 9.626382082399688
Mg 17.88152880698657 13.657874928538693 13.430919763763983
Mg 11.894179015718832 17.885340848210586 14.183624030359193
Mg 13.299079589024327 9.940068551105767 9.43086254667318
Mg 9.896993645277675 11.450847725298106 12.373984181405314
Mg 9.375420539256364 16.816909831803883 12.705274107584101
Mg 12.032202767632853 15.126492475117846 12.603980598859719
Mg 12.694087084244588 12.436788252151493 11.255191536716776
Mg 14.297743112435606 17.4569584435651 12.360731031688664
Mg 17.74062220720933 14.039192424099427 10.557140072570274
Mg 14.802511276550396 14.58133903081461 11.037910863393668
Mg 9.471767931469536 14.082291010929497 11.059742274756394
Mg 11.767557987176295 17.894223115931357 10.92313482578012
Mg 10.647349777945733 11.856501579024469 9.210742423722108
Mg 13.396362136150339 12.738299946358696 8.030040552649302
Mg 11.947667429287836 14.965413973333177 9.500214174631276
Mg 16.00126436741978 14.646378229162675 8.164621440743137
Mg 14.514347499204913 17.137632163818218 9.335370496873095
Mg 9.443580429411384 16.709839056454257 9.650553560613455
Mg 13.498236529660954 15.573649292977578 6.983085541883937
