52
Energy = -52.22628686 eV
Mg 15.08869009796743 12.672745526351903 18.517055363302028
Mg 14.463650247534536 14.663363261520622 8.112531893235778
Mg 7.702815370457355 13.380499858249584 15.81623595348301
Mg 7.548644909687117 16.294351121085697 11.846096820836394
Mg 17.688995406088303 12.777557085727858 14.257612015397903
Mg 10.106528035085596 11.461774820394135 15.281176355206096
Mg 12.917593355856654 11.933916149670258 7.740763656609966
Mg 8.657154673402916 9.989519007854447 10.601758460904994
Mg 7.92175439997839 13.235392986684223 11.012671455971823
Mg 14.436068704281924 7.578708220774034 15.28364868407053
Mg 12.536694361768495 13.377682555311441 13.86621496155453
Mg 15.296663530706683 14.769494171684311 13.942728698427434
Mg 14.629587172768629 17.232864324669897 15.523385884600525
Mg 11.044799363903484 9.626645014166105 8.558381969265591
Mg 17.73667869679883 15.204912442601126 12.146889620011523
Mg 12.624862859030557 16.766111126767196 9.628064064247797
Mg 17.2468136557293 14.481560414121736 9.255343759868005
Mg 13.504946360847207 14.705009211267216 16.755294818575493
Mg 11.563595969919978 14.679700152745013 7.694168329932729
Mg 11.727491645567843 8.941432843166554 16.289433607720298
Mg 16.423785786638735 9.741639767518663 14.36228766281817
Mg 13.542300142117686 16.952965457972397 12.499260031983992
Mg 11.700446553663514 16.34438998357469 14.798444081169585
Mg 14.648285551530861 14.243503025006769 11.087175402140204
Mg 15.76631353317281 16.971828858671262 10.287246319580639
Mg 9.409644474332536 15.592382864533134 9.594842111401148
Mg 12.375273567497127 11.866824118194634 17.18440050059788
Mg 10.114552973511886 12.418873658309135 9.145619200546241
Mg 16.476718568138562 17.703358307179563 13.193292461343564
Mg 17.385998317451374 11.537279678910602 16.994041878172816
Mg 11.618933403457993 14.281897346296594 11.113810586432574
Mg 8.382239592659337 16.29219022061397 14.814406050111254
Mg 10.471670103212649 16.958877369299824 12.143661261187546
Mg 11.931824721856582 7.052848047183603 13.850530838085607
Mg 12.95480278859184 11.579845682994131 10.743539800077533
Mg 7.645875159054757 11.415830925254877 13.403072255649597
Mg 11.584726061823519 8.662994700097013 11.321478534128406
Mg 14.725800067915069 9.808677166687247 17.223417631475712
Mg 16.65198837991174 9.54739472326289 10.964521635214242
Mg 12.921364500341673 10.269077008367647 13.842231251915424
Mg 10.497554918899473 11.572685901267512 12.24765962490465
Mg 15.262132748637569 11.775479386671172 12.540417815597953
Mg 9.639978942716967 14.128156237633778 13.370961716449825
Mg 17.873647303938277 12.307361288262404 11.249506569387126
Mg 14.49632613002539 8.073905841131017 12.30427948405159
Mg 15.687806124706045 11.829601267853224 9.149289205875196
Mg 9.643496356969859 8.94631868178659 13.669880414103314
Mg 10.506760767645867 14.240045383552724 16.44352551350909
Mg 6.272576807062237 14.207145216168767 13.433824989926274
Mg 16.64228190631927 14.558873740037408 16.674505576173978
Mg 14.824118781691032 12.206051290647414 15.407498451699336
Mg 14.08128342237782 9.158871731074546 9.398077402091541
