54
Energy = -51.69138866 eV
Mg 16.170735170193623 9.78943868006304 9.571932338299272
Mg 18.43347166833852 13.241048297739706 13.843701191980568
Mg 17.285254378932674 11.324362771322264 11.813869347988376
Mg 16.682052600469945 12.629850654475655 8.9834030803591
Mg 17.986956078233725 14.274179096414981 11.164893448563541
Mg 14.06113103309093 11.279161074131501 8.021843324845815
Mg 14.867815937894422 14.155625204234475 7.192475258242522
Mg 13.609183720145438 8.524246290868483 10.22160971009083
Mg 15.480916385389014 9.006882053263986 12.747472395865984
Mg 17.459276160710164 10.428035095534 14.629237479691085
Mg 16.80837538729024 15.898301699748508 8.867403199400446
Mg 14.215906305359315 11.838544042785104 11.102937994757454
Mg 13.20067386216643 7.062507173046288 13.036920601815051
Mg 11.534120624115927 10.773009783821724 9.684045920515018
Mg 16.40256087732162 13.220248976864077 16.029127908368274
Mg 15.392109286121277 13.92640051038911 13.094988961778723
Mg 16.531376515214298 16.621161821140948 12.249880280480271
Mg 12.14348509529718 13.503671176674292 8.733440368691783
Mg 14.46242200231234 14.748953804707453 10.35325508374179
Mg 13.028797464601547 16.34080477321974 8.089468305073913
Mg 15.692663280587569 10.274667597518025 16.91985712414303
Mg 13.408924636649822 8.80747334484853 15.534556090261255
Mg 15.752455206472899 16.185510782873212 15.12640522501073
Mg 12.465625891099801 10.021217262589412 12.680905987980937
Mg 14.534885817468876 11.414752107258748 14.281744670073818
Mg 10.610368525075938 12.371985833490019 12.230872615073588
Mg 14.695510768044738 17.85026916072216 10.126725518835185
Mg 8.726539042659237 10.33562811351138 10.624781644051394
Mg 10.816615296244578 8.013229110708746 11.066586997895758
Mg 9.273292651074566 13.222251477076833 9.659527130905735
Mg 15.084429403058245 12.652322008187884 18.789372504450068
Mg 8.057470007423884 7.832291060996196 12.262883862606708
Mg 10.527634236755748 8.208079878671347 14.227331076485777
Mg 12.748573608585726 10.916144371228766 17.872297745022696
Mg 13.36245617379022 13.529927412602774 16.216426891927938
Mg 10.12195485144594 15.926988211314656 8.473671733937456
Mg 11.441356694434702 11.325323557815452 15.115441161620787
Mg 11.833593275525494 18.28933889132089 10.601855389059882
Mg 13.603321418398096 16.637336137507575 12.750241375445066
Mg 11.394220078860712 15.221231968480705 11.12062829023853
Mg 11.706717335368392 14.411484684036372 13.936747799384678
Mg 7.439741020946364 12.793146092034894 12.100991366801585
Mg 14.884703181708542 15.544592025418966 17.9449848485278
Mg 10.88276726480708 8.72264305614162 17.185030307820618
Mg 12.811529261857984 16.595049024027947 15.6891258977646
Mg 8.313793316612358 10.46302360352502 13.72697026662192
Mg 10.789823321248678 17.42661525542406 13.405250163785924
Mg 10.47741067835172 13.16628280490233 17.495593993099497
Mg 9.025664675918362 17.43951317604448 10.769315547123659
Mg 8.981080882054554 13.166163469332217 14.852424306144663
Mg 11.793463908039126 15.681019213187627 18.37388004714995
Mg 8.832178888552685 10.800280542115894 16.73293983746444
Mg 8.631236285009683 15.406277320847673 12.911831896331307
Mg 9.820764411625778 15.916403778858484 15.835928931623432
