54
Energy = -55.04114316 eV
Mg 13.727372984287188 16.267492806142826 15.164142164800786
Mg 7.992646816997213 12.344396558310377 10.671458523394596
Mg 16.345228368278534 9.751660360925644 8.92505141042826
Mg 16.415370984457084 11.257113002347294 16.94411300965386
Mg 9.324020792099757 10.019416127178486 15.013446930524553
Mg 11.240967430426542 11.500893518355419 10.080344264183276
Mg 15.094451780360785 8.343854126194959 16.544668068921784
Mg 7.7465535937346255 14.579408542765032 12.960238266224792
Mg 9.561177535364656 9.894711015855279 12.017143284249176
Mg 9.452541454796531 15.02162851854378 10.51010496922693
Mg 9.468502577828735 13.106480681214135 8.111365007836003
Mg 7.135124422561723 11.482984550544629 13.435089194089924
Mg 11.699450970272258 11.767816536675488 15.423480155296954
Mg 15.510173990547411 12.424146306506005 7.692815939842744
Mg 8.60525455404053 7.285785055761635 11.131984584790963
Mg 11.164172440876687 8.44378654770835 9.509177652787802
Mg 13.491855237797864 10.524206672184 17.505927712056145
Mg 13.930944394144246 13.403706709552173 16.661154292348165
Mg 11.300938642035248 15.72504291943676 8.169516603337176
Mg 10.356306816760032 12.77883268764991 12.753562186655234
Mg 14.286840620716907 11.756921209515275 10.636127256562627
Mg 17.37568712420566 9.005801808240452 14.867894028051076
Mg 13.339510579951359 13.408844586578896 13.42274351484779
Mg 14.854083130191306 15.876213687745384 12.44509618979281
Mg 6.455648952167273 9.623730350267135 11.106337015502396
Mg 8.958405278852151 17.569018615846176 12.780777014265142
Mg 10.930116626944837 17.669737472258635 10.537266400266379
Mg 11.266436203398674 14.753795483649139 15.90692928286628
Mg 12.894393694771642 18.20774170476085 12.785811826004245
Mg 14.091927115121761 8.60967399577668 10.634271781090275
Mg 13.736187461962313 17.057287483203833 9.857200987034036
Mg 11.287180945324819 15.601134224902644 12.999998330923162
Mg 14.173128151834122 15.353430842671703 7.359255434080705
Mg 10.658794599279169 10.474819405026865 7.113375038378573
Mg 16.317216515078357 13.183661600860045 12.388276783048076
Mg 8.834947889861015 13.078016993504878 15.435163047437088
Mg 13.496538999856822 10.046359860118418 8.024443374663564
Mg 8.699056512089225 16.16580158538873 15.324878490210065
Mg 11.039366158749324 17.999284807958936 15.083868812257142
Mg 14.789321568482269 11.046481614609183 14.449245616180148
Mg 12.473707378619364 10.390231988429443 12.682344961840762
Mg 11.814765960621868 7.410145031896734 12.255646126542672
Mg 16.58049443510952 10.043141323288005 12.033180671108598
Mg 12.181046459055715 8.668615549832326 15.236602566940912
Mg 14.681224799419716 8.082408454327572 13.540830676528213
Mg 17.975399731237452 11.793673547094784 14.404319712875047
Mg 12.500068147921 12.908808631246862 7.6360895945105804
Mg 8.514262832062403 9.846612186560677 8.992161659432105
Mg 15.661879907039493 14.600076184940184 9.820269588615366
Mg 17.621887924750315 12.141308385404722 9.909966772615945
Mg 12.514105337047221 14.261825352658935 10.582116077213284
Mg 16.19954587423247 14.233641607566526 15.101796298544043
Mg 6.982537786193597 8.39108472682116 13.635230262225988
Mg 9.582354470938272 7.148431413951457 14.116825547651901
