52
Energy = -51.20413823 eV
Mg 12.889208692911103 12.728049570730905 6.160573264877556
Mg 10.86654166079833 10.798208080348108 7.068985348789407
Mg 10.335348009994004 13.642266485724681 7.799903430051095
Mg 15.322463654030654 13.139392859381172 7.881129096772654
Mg 13.000482344258764 15.190893407040557 7.999917706898432
Mg 13.841225908227724 10.05469979228197 7.494211213948379
Mg 11.210020979074612 8.950431236005016 9.319264330347185
Mg 10.377619523126972 16.376659131562267 8.871728166081498
Mg 17.32957086881944 13.477547232414626 10.19468018982108
Mg 12.803176940122178 12.14232598722403 9.280644547144862
Mg 9.675132595081235 11.622590989401257 9.951452556349285
Mg 8.839547682619674 14.480386759105487 10.639828959676864
Mg 14.883761536185734 15.10154266995233 10.366933384368343
Mg 15.691361928514144 10.856110210868346 9.955559932977618
Mg 14.131610606389934 8.371964065424892 10.048200001237245
Mg 12.62817733716067 17.200430808963812 10.59534083161811
Mg 12.179190395506712 10.568483438971215 11.711352993940396
Mg 11.878732695848722 7.57827853641994 12.092923409240225
Mg 9.252515745718426 9.411061284527191 11.877813679466872
Mg 11.857654345977068 14.148129706933963 11.106988844042771
Mg 7.502507534883474 12.271529792921651 12.218729473658021
Mg 14.746773987421237 6.47883063350854 12.314401378985611
Mg 9.50146252446254 17.45247683293849 11.540141012805801
Mg 16.617822889362298 14.511778658584475 13.158828804028962
Mg 14.270793332774927 12.687496680111831 12.283742023976666
Mg 17.446258942385267 11.569508435294408 12.415010214169873
Mg 10.685144910560602 15.49570586768386 13.420055971085736
Mg 17.126689330745787 8.34004096193588 11.753997707948642
Mg 13.953116608946127 15.998610980653305 13.150526632482132
Mg 11.919785549465782 18.382790655015455 13.309105650989832
Mg 10.351285744587916 12.347887931683294 13.217594120244296
Mg 8.129217937825338 10.339331542743007 14.507260939074184
Mg 7.321331693257901 18.48726063623575 13.482656770333373
Mg 14.888719378461714 9.679644282201432 12.958720803524171
Mg 12.65631722488734 13.764626477281096 14.733996590277581
Mg 7.680762417353799 15.400584885497434 13.35360315262076
Mg 12.898926175078257 10.890507479908502 14.649124311838493
Mg 13.345875264351905 7.548508748432195 14.884038097605078
Mg 9.634252126628901 17.81988690912646 15.202908865873644
Mg 17.75605402368443 9.691085037148845 14.66469493493787
Mg 16.405521385375625 7.13824154608837 14.61269952629798
Mg 15.84819585730157 12.156492747931168 14.972260963631282
Mg 10.660222067230052 8.934740208772308 14.557983556766555
Mg 7.8728123857843455 13.139590297633601 15.27952534537226
Mg 12.478319302957201 16.76919442394496 15.808634899271482
Mg 15.117647378543833 14.941389095248113 15.93059562959804
Mg 9.860920559233996 15.004310437910084 16.358398085410332
Mg 15.287864184961547 9.398693797862482 16.407520088562194
Mg 10.634981436787177 11.972452865382385 16.46495115477194
Mg 12.356461894718038 9.318454596492254 17.2063495991966
Mg 13.872107624646013 12.002440528616244 17.297298661134363
Mg 12.464063601659216 14.512012498621667 17.752771872566242
