51
Energy = -32.46186655 eV
Mg 14.830560085809623 16.973820098757407 9.583817676539232
Mg 14.093275174912282 15.154154773806138 7.268258059675762
Mg 12.261759617371796 17.691957062477712 10.989196245279784
Mg 17.438672829605608 16.232578643259192 11.20287165853877
Mg 9.637648822780507 18.32330457915855 12.346243384951169
Mg 16.960780624291242 15.449358264142445 8.153741500072858
Mg 12.495704244365246 14.865859555831111 9.85038622597299
Mg 9.77436759207911 15.982967456514844 10.436076596979468
Mg 14.920278902050107 17.89892675723559 12.48044912281048
Mg 12.494734005382755 12.491210551742418 7.910732472566699
Mg 15.152215632578676 14.349096637720203 11.302402473461479
Mg 9.883436814601911 13.053447308849496 9.403398563973143
Mg 16.93039373966641 16.61128990894913 16.916334041069202
Mg 12.084924055518089 18.45182853721367 13.976940259197844
Mg 15.457108563748422 12.806938702799794 8.609461355216276
Mg 16.229990970279196 15.730898936216088 14.046354083139493
Mg 18.071408762267968 13.41488504932424 9.927631722195095
Mg 11.153731900746724 10.220767375399769 9.600228075053836
Mg 9.744164160549577 15.756874082472818 13.888541898968194
Mg 11.03870917453693 13.49137628025008 12.290112114132349
Mg 13.252431242960839 12.029843283717652 11.065880053016025
Mg 8.028172750531784 14.01573399618391 11.694754739932968
Mg 14.269280885646804 10.13282870635959 8.87804739723892
Mg 13.089495581826379 15.507224058832175 13.333983642165517
Mg 14.435335252562929 17.675960142270597 15.629158228619596
Mg 16.213149832550833 11.150960930206665 11.323719754701418
Mg 11.672389689416732 16.456353100550245 16.26893192584092
Mg 17.746029764075544 13.416415142594456 12.858108051345951
Mg 9.142846601086697 11.088285106739566 11.738418376227186
Mg 13.403254317289516 8.932159160425613 11.378986637290387
Mg 11.78690123333838 13.448348101827614 15.197875866448928
Mg 14.369231533651417 14.644509035994338 16.476418995189107
Mg 14.59245292193524 12.694514725132475 13.95027153726925
Mg 17.638391641311394 13.778754521373605 15.811412115615527
Mg 9.15764454303509 14.665532961153485 16.657263181832782
Mg 17.045084080288856 14.378843346485576 18.802926130036433
Mg 10.490034211576488 8.359640663394337 12.01683134751947
Mg 8.698137704267745 12.780953403869534 14.34780228339354
Mg 11.963521000000833 10.73274070250238 13.660289944910717
Mg 15.839427151299393 8.678173981226886 13.057289496568089
Mg 11.61377426688812 14.135527380432649 18.27489218690025
Mg 15.92827640875627 11.854389910029626 17.233639793203114
Mg 17.20285948809241 10.956861611351211 14.481944257320265
Mg 12.972442530271442 11.586228770338984 17.309046151278533
Mg 9.133498589648733 9.728155444253876 14.503177794146705
Mg 9.984209704420342 11.633931736403236 16.815676484002786
Mg 13.016564483919707 7.589821767467054 13.978358108325283
Mg 14.315355326443022 13.45438716219722 19.374426359565906
Mg 14.529896078910879 9.749887039649385 15.546266987415061
Mg 10.20043392955559 6.855959587945463 14.540489657412174
Mg 11.601482957330301 9.050519802180329 16.250227169973293
