51
Energy = -50.26915016 eV
Mg 12.889436732257206 12.306265064938028 21.109842188601448
Mg 11.541941812266517 14.224779428514129 19.29335776947194
Mg 10.280072203815795 16.391053772674333 17.596104871340895
Mg 14.770705116300599 14.189104421412594 19.713057117174934
Mg 9.32919567716705 18.49708459695403 15.660099677434973
Mg 13.331957762939759 16.35484271841114 18.105156438062497
Mg 12.161676807545465 18.65711898861632 16.42811049903041
Mg 16.40762331373627 15.969862367922477 17.87490607474038
Mg 11.790183796184309 11.232420397586488 18.461370085083917
Mg 14.885216122756901 11.21048651027625 19.19037332021784
Mg 15.134863736640481 18.553481333431286 17.1033618713908
Mg 10.34189538910644 13.437449735869723 16.549053161408775
Mg 9.171222404883 15.680321055830916 14.730332264480525
Mg 13.513912386575788 13.242062373389125 16.943145708624897
Mg 16.785013132965627 12.98197441551216 17.229441070331482
Mg 11.32036411921158 18.1492412158302 13.417053597953661
Mg 12.184731698956856 15.712126010514986 15.228265554824882
Mg 18.737654225781615 15.07265604707136 16.179032583722076
Mg 16.94521574674079 9.954354842430844 17.42983083318282
Mg 15.161457640952094 15.003468992491833 15.03064750010488
Mg 11.40824518367576 10.767715863072834 15.470930758343439
Mg 14.322064854153933 18.062472499464445 14.286937119534064
Mg 13.899941529534678 9.6111998975374 16.838246125963682
Mg 9.733735577595597 12.914899519547678 13.533034913658758
Mg 17.269769226475315 17.51874911913121 15.269055058959898
Mg 12.78033381153621 12.997907817365123 13.84320715687615
Mg 14.104758706344448 18.446046178599254 11.266623080405607
Mg 19.154135963241036 15.905068553986492 13.27554168285104
Mg 13.281906027999874 15.653260190119163 12.32702931686859
Mg 18.324290348852372 10.775021330807553 14.915644473670435
Mg 11.294543855025294 18.034523375745533 10.431152322513713
Mg 10.260683743718994 15.494186768433579 11.925916620620335
Mg 16.22971447696036 8.511737560422802 14.996101472772953
Mg 17.563485802765022 13.507473634073362 13.940936569380014
Mg 15.250993769969748 11.68629784273001 14.870914991673779
Mg 11.161923411665471 10.455032637372048 12.507461184842926
Mg 13.581529109216918 9.325482994292827 13.75390103751677
Mg 16.343150807499242 16.519567966997812 12.542509477296088
Mg 15.254088021600532 13.336712392130329 12.015469830103097
Mg 15.28886769771375 15.826911040030206 9.838591748648215
Mg 12.200366899938857 15.379476447443324 9.319694044318883
Mg 13.523644157883666 17.93349973198413 8.321232149905281
Mg 13.79228844687746 10.756043049942388 11.044094064395624
Mg 18.86160725176676 11.785973468107796 11.935362056073304
Mg 11.570811335317035 12.930627452015816 10.921121506561958
Mg 16.44619070435293 10.076667122092394 12.435514207570083
Mg 17.926951194537104 14.439815566517767 10.76579252176086
Mg 16.774107791683054 13.88560374437366 7.897454502346547
Mg 16.68750484920916 11.616827013567276 9.831774498192772
Mg 14.082737024624484 13.046432224768498 9.007128741594636
Mg 14.481862256830771 15.50694656590044 6.918263110658239
