50
Energy = -49.92330825 eV
Mg 17.428842588420714 16.6478637158529 11.219539168247081
Mg 11.706897256192748 18.31251000480616 10.877923747656197
Mg 14.623079576046905 17.645965389416364 11.02848556370935
Mg 12.983884343397145 17.679505166459382 13.63460721013973
Mg 12.58467106673067 16.174621014128736 8.933415587409922
Mg 15.863567134392405 16.846404425232038 13.914375222437881
Mg 15.438707374049617 15.011918661627758 9.59736136287897
Mg 9.827236288679378 17.79780999914382 13.316953018081323
Mg 18.506220227070166 15.301963682951275 13.592449887421655
Mg 9.89233361472815 15.903132230434672 10.868440055758581
Mg 18.306569453578668 13.724478466176265 10.805845606291191
Mg 13.00477939203661 15.071553265510163 11.764281044828389
Mg 13.64413924683404 13.413317800032305 7.747975471916276
Mg 16.485001040269783 12.22489965845848 8.75908083288438
Mg 16.697310737514446 14.180991145348104 15.753900095699654
Mg 10.94542852252131 14.978714331416784 14.01765423859352
Mg 11.140433278054482 17.706934504086384 16.00599622731636
Mg 13.791648108299958 14.458867281430676 14.800203020922423
Mg 18.311061861307405 12.355644110863366 13.716407093424783
Mg 15.813287553715652 14.040908322338616 12.54058095715
Mg 11.209008299215743 13.471950563198297 9.634709050637406
Mg 16.831231964866383 10.963148905331122 11.478302799735454
Mg 14.104457214982073 17.09047619799204 16.419181819350182
Mg 14.741166804788968 10.664312514407678 6.847080874298188
Mg 14.041176901917762 12.252904679879467 10.677387980876853
Mg 14.621471051445322 14.655653300561701 18.093457720985455
Mg 12.291054284361572 10.751086252393007 8.461057952919854
Mg 14.670502044552176 11.581448127219785 13.858432137815738
Mg 7.850271839473449 15.452454951061272 13.271507594821946
Mg 14.9271591418637 9.45333427767645 9.60150903436133
Mg 11.83025438460457 12.347911539360815 12.648927257358949
Mg 11.73273844418222 15.035553414512238 17.187778260541403
Mg 17.42230497400231 11.20121995237494 16.296371530611093
Mg 8.840347108043296 15.643119555130458 16.093345155787585
Mg 8.904165806608917 13.15960644944886 11.681953833424686
Mg 17.52922277435846 9.382117948463144 13.963520199815727
Mg 14.89099338978071 8.68339781092958 12.64613082397603
Mg 14.699720266906851 11.955928964510024 16.968919667651626
Mg 11.873636804487285 12.259243053065475 15.691177423706364
Mg 9.912423794833039 10.829244448662964 10.211163470272153
Mg 8.811557977902854 12.756231614687657 14.69126239140978
Mg 12.412697759879633 12.508733290079821 18.82386580099902
Mg 12.336525570773567 9.513242902585473 11.365427582728119
Mg 15.14438680858927 9.071447700335252 15.75932812955694
Mg 9.523001060517002 12.901511488188529 17.62046748042899
Mg 9.66523627837434 10.224008227228717 13.123292189508792
Mg 12.622693244612243 9.677178397485129 17.44922484462193
Mg 12.33157848044354 9.33597965469107 14.38586562990002
Mg 9.741636857823483 10.048927611532555 16.131128054518147
Mg 10.266275715967918 10.332342956509965 19.076735883569032
