52
Energy = -50.29628264 eV
Mg 11.609445897599779 18.81657452677243 12.514446580617285
Mg 10.591323181163666 16.25991346213693 10.869626736776357
Mg 13.384095910307458 17.252291914798754 10.6656642278926
Mg 12.237815193515589 15.203233032306297 8.474373052881988
Mg 7.8436979847406265 15.153495498143158 11.648938088833189
Mg 6.3788855994381874 16.572610952764784 13.896778337530458
Mg 9.193218027651932 17.407971486075276 13.264802073868141
Mg 11.242060739535306 17.670333448541786 15.60313233560823
Mg 9.69253548852457 13.599877587764361 9.760269603794617
Mg 14.419387271821938 18.321377485839932 13.467156657550166
Mg 15.222466188679071 15.162278834340968 9.586089006945677
Mg 12.280458667500339 15.913971147383807 13.388404231131394
Mg 6.918444609534916 13.593927751700402 14.227224503773305
Mg 14.201850246244348 12.604129686833055 8.650198623120765
Mg 12.61135699611025 13.873503422702333 11.185565797751593
Mg 9.958326859118579 13.903248345611543 13.370100083156279
Mg 16.36603271979359 17.37181635874857 11.293338382431877
Mg 7.77286932316617 12.032277808730463 11.850990132519602
Mg 11.548665610209094 11.487399113148337 8.712778819619496
Mg 13.975703106127257 16.53928634564018 15.8777233024461
Mg 8.636087483247065 15.82192690515198 15.823259371332785
Mg 11.472176087584893 14.655033438554328 16.094166590647852
Mg 8.748589995889077 10.540949811602296 9.411745319117767
Mg 15.181467305293316 15.14591750837854 13.23656406142853
Mg 10.787616754165011 11.441514528399134 11.751310195853696
Mg 17.767253942339828 14.623172200460255 11.197787923548802
Mg 15.263825559245205 12.639466806526455 11.653595777165336
Mg 8.831716186025833 9.076188811548505 12.126372542701285
Mg 12.507601427944754 12.483330525972292 14.13459702985942
Mg 9.06481417027777 12.771192407682383 16.152225104642763
Mg 17.195401572621787 12.726601862509195 8.947703241471633
Mg 11.384635582033505 8.917289912374443 10.261677415223733
Mg 16.69849809386679 15.390746834388427 15.981940834933827
Mg 13.471607887328323 10.230675054045259 12.274398554738951
Mg 10.103174946635741 10.44324561609838 14.616662319653102
Mg 15.677030648683795 10.188201169295986 9.945086330167234
Mg 14.20877666240483 13.551220524635777 16.40797020332605
Mg 18.1504696052489 16.373707540595724 13.559152346329865
Mg 17.727110726045023 13.361170406582527 13.958461576928881
Mg 11.705571517994635 11.673880201159468 17.081747942377365
Mg 15.285540268248655 11.489849003446224 14.552704307649151
Mg 11.36488741210479 7.9750309235854075 13.218569323728442
Mg 18.069396740018547 11.38380953796884 11.72991397885959
Mg 14.175803988050268 7.692714281714597 10.680985606127532
Mg 17.089681494501722 12.560547368114923 16.84705060043324
Mg 12.899004923183742 9.566441813008767 15.39924132716242
Mg 16.335300121569745 9.208067328591127 12.759218973321943
Mg 14.600039078680052 10.792838947691946 17.698141386613788
Mg 18.299253241915704 10.47345028658586 14.815822434964875
Mg 14.190628583010238 7.358610965214458 13.649825643242492
Mg 15.811467241180244 8.687979106911122 15.787253280323572
Mg 17.68049585125442 9.798180101465913 17.828366773584936
