52
Energy = -51.37183704 eV
Mg 16.991271440117885 15.374329650088397 13.790226992280123
Mg 15.923328248229291 17.140637704854772 15.973720369421168
Mg 17.386565301605653 12.310104270117275 14.180999221235465
Mg 16.482216747357594 14.16602122742187 16.643592282220276
Mg 15.873398695214586 18.380489791987273 13.201261280401168
Mg 17.361991712843086 16.599014799082738 11.134729716020557
Mg 16.618797758442465 11.183665992979611 16.985901008877313
Mg 13.2465129825441 17.787359492929333 14.753315298925552
Mg 14.112419765844109 14.697635374605502 14.883654405682977
Mg 15.065585229727047 13.388847709396384 12.30707963136872
Mg 13.602644080360283 15.83188905493837 17.55019179602101
Mg 15.146897819134535 18.33690935684763 10.06964456212595
Mg 17.633687326626305 13.471315147660262 11.043762227979158
Mg 13.027929243113261 19.06122868664324 11.939624720807405
Mg 16.524273036021686 9.291710426700057 14.716948195280084
Mg 15.44213690811352 15.179175383640542 9.341456784547377
Mg 13.945094331722302 12.612523311538725 17.57471494912831
Mg 14.167985958209286 16.152185293845953 12.143217418776159
Mg 11.094770651481259 15.863145157821469 15.69825742005487
Mg 14.189177632971747 9.296018358421785 16.698247400662467
Mg 12.906485000810086 14.006971728286377 10.172174082383862
Mg 16.148678072377063 10.453392207046793 11.980139682789524
Mg 14.403210716785747 11.60570180116442 14.693175497552275
Mg 12.272220404391872 16.886331674356594 9.760223768321621
Mg 15.22949287481737 11.963628747333471 9.483883758651489
Mg 12.081448344395879 14.122729280913138 12.884157902304839
Mg 13.122014217481018 11.229388553968326 12.055949618187517
Mg 13.387424039326719 13.511350384502553 7.26680743597226
Mg 11.667087538087964 12.851565418643244 15.404274485772916
Mg 11.724641391357919 7.705336976579116 17.14615729840964
Mg 13.947460481748545 8.47967229019096 13.376682568472278
Mg 11.233678785940965 13.950140265185414 18.125907445502733
Mg 10.950653302382308 16.90235814139149 12.78353256978911
Mg 13.940066270424696 9.131353727632437 10.117183261669139
Mg 13.404472284042185 10.553380146388994 7.504480768259124
Mg 11.70073772372741 9.993210634614977 14.694994187015187
Mg 11.392332849725872 10.711154082575987 17.718330305098483
Mg 10.704827188716623 14.641407333079817 8.06334671345121
Mg 9.08891610691461 14.421999178267072 13.932144861525682
Mg 11.228890086069669 11.75224246127584 9.837459296335187
Mg 9.775277575940752 14.57273678193057 10.93916892292251
Mg 10.325682555874591 11.788329960573785 12.680358782195162
Mg 9.18933466503055 8.879455173359338 16.426508903007345
Mg 8.832573470212726 11.706644493410776 15.428324606013739
Mg 11.212182502021129 8.806022525163694 11.712927519124536
Mg 10.815006765700684 7.209202821257575 14.34553148631412
Mg 10.725873883782478 11.873096382729718 6.890630474866619
Mg 11.064687246825274 9.056624728334196 8.660678338888832
Mg 8.431091534922317 12.699633286361552 8.89291173624659
Mg 8.626975827375693 9.377812819960118 13.417315942647267
Mg 7.609200670182203 12.46257075643345 11.93030820740029
Mg 8.682460495944433 10.041841911636531 10.40245873720233
