51
Energy = -50.87325688 eV
Mg 12.197110128670674 12.94965033001603 6.665219369482029
Mg 14.866801811922665 13.788920824395014 5.672380094252068
Mg 13.665606540677551 15.680203886225463 7.650157747123017
Mg 14.856854554224496 11.299469088845667 7.3204514816521735
Mg 9.75154855093968 12.196851941969722 8.31673141602562
Mg 12.1850476403288 10.267410688310967 8.280024453196704
Mg 10.833459667204965 15.038819172106557 8.68451564695011
Mg 14.896182035130698 8.681330448318404 8.89800596740473
Mg 16.178409491401318 13.880467723685307 8.524250298562007
Mg 9.506643163932571 9.300500059420148 9.748156280053957
Mg 13.394039321619795 13.23635750509493 9.446256307847086
Mg 14.800941635413631 15.746328367645885 10.709864321814614
Mg 7.708717044170083 11.574828825120367 10.373642581386289
Mg 12.406883159949231 17.413899490967037 9.753231684546444
Mg 16.957598328606235 11.093696067111784 9.471108491381376
Mg 12.216925346112083 8.351932891314583 10.660609381825303
Mg 9.03399999538698 14.118031830120248 11.019922756664974
Mg 11.262104416207954 11.728941312970564 10.978233588803626
Mg 14.231367118685649 10.797166633657966 10.813733863721207
Mg 9.97261435464575 17.082898670526273 11.551850158196116
Mg 11.949977565309226 14.797966396953944 11.571805761427445
Mg 15.045698303079668 8.135009315933804 12.068794738153171
Mg 16.656593632719083 13.524133892687301 11.562828644321176
Mg 7.1172081887951135 9.277566337419309 12.113283066748647
Mg 13.086822955352178 17.523022335386308 12.720101836988196
Mg 9.620902370662748 7.074306933022955 11.964807849119223
Mg 15.00745535681296 6.735516438059716 14.787895295899997
Mg 7.730758896637048 12.418249051040315 13.244268870516734
Mg 10.87948292984005 12.590000336805778 13.842829906888223
Mg 15.318718415356111 15.608978752400478 13.724575071572847
Mg 7.460438816853632 7.214422592864731 14.06298930046742
Mg 10.536428482261556 17.986742453377335 14.362858626937774
Mg 16.787572769572858 10.69709872315375 12.477073759979898
Mg 9.898461936275853 9.952831105893521 12.874917632744868
Mg 13.849776615138651 12.92400279547822 12.879215598485992
Mg 9.05002280614639 15.299033916374023 13.857686439453563
Mg 12.408624102240566 6.839148178016249 13.300957620908866
Mg 12.84576996061944 10.015858353636439 13.409833088499713
Mg 13.072564264852637 17.417979205739464 15.841305102724595
Mg 16.31233588765686 12.786695744897807 14.651443277047058
Mg 15.611742820404356 9.701218454755038 14.914191474501044
Mg 10.226529009265477 7.885500362389524 15.08199382590634
Mg 10.198730879917862 16.039865724389042 16.623285519178065
Mg 12.207685676492 15.061192982329812 14.462501056760548
Mg 7.8915011581651715 10.124265180586148 15.193834033667905
Mg 11.638374654255934 13.514685959882478 17.13743361962477
Mg 14.453394201737336 14.55818947173789 16.40903602376397
Mg 8.804260148729073 13.124371203767872 16.06611954879679
Mg 13.642213589939287 11.72584156092832 15.903882994169352
Mg 13.020472139872181 8.55406763688612 16.128773357552795
Mg 10.748418136952509 10.666323822528879 16.222922143449026
