53
Energy = -43.56058599 eV
Mg 12.409609227114267 11.738851922508518 8.162442037253765
Mg 15.013403493010626 10.547441354192717 8.737263813533223
Mg 12.318780024574776 9.124844416328436 9.674244075129268
Mg 11.456220621235941 14.2575638515906 9.45725185204122
Mg 9.926892810067727 11.44222232771123 9.946744260518837
Mg 14.86701996304009 7.4583414751371455 9.813387318487527
Mg 14.568386171529031 13.602294940706258 9.418984242315226
Mg 17.38107374975549 8.990291294945301 9.988508504590206
Mg 13.74361535610033 16.391429312898683 10.428780930988585
Mg 17.15436979481172 12.057266944312703 10.307810697099589
Mg 10.53730258945032 16.820602267824082 11.034345108997769
Mg 12.667772192813498 19.128998507787895 11.205338307904562
Mg 16.543644116738747 15.34348561824812 11.282733551573308
Mg 12.635161476724424 11.784014162637646 11.276938652188472
Mg 9.015088702401997 14.018578525001203 11.307516513958676
Mg 13.12743892383651 7.599357487038389 12.291312929999162
Mg 14.986891447812141 10.014160082364114 11.748492056883574
Mg 10.376361334581441 9.245687551861208 12.03104887899039
Mg 15.43609924662419 18.116078166104288 12.269751563150765
Mg 8.053430991245978 11.186572243273092 12.358008609465317
Mg 12.19790070830962 14.637104779823526 12.363169667389096
Mg 16.389981291245338 7.470727493873421 12.536081203930515
Mg 15.150247556910003 12.981458008008708 12.450823790365515
Mg 18.16933465550368 10.108831056650336 12.677717185003665
Mg 18.255036777750252 13.074660464046374 12.923149819515169
Mg 11.488542335215044 21.157900351857798 12.95103823709727
Mg 9.596944567150667 18.800026633805462 13.34211200661974
Mg 10.661868332044186 12.422856327592902 13.406660341089632
Mg 14.568589267935279 15.603154559710076 13.758828156585572
Mg 12.248638076322178 17.459052293085694 13.691204907961296
Mg 13.982514117267607 19.95787056721771 14.258733658888683
Mg 9.35446132705261 15.722187011490528 13.752558374136765
Mg 15.660049057551173 10.835205711232465 14.547536732083259
Mg 12.572584344643182 10.039282559187328 14.00739538823498
Mg 11.229257933186073 20.089199971514187 15.642448414252618
Mg 15.792210051742153 17.741605077022697 15.34797995798821
Mg 13.512671437644544 12.816245421717753 14.950450013594336
Mg 8.099617469232095 13.041011832309099 14.768931396115914
Mg 16.65320734271318 14.090981250940624 15.181969125107722
Mg 11.78905698194262 15.041999688326893 15.387974446435022
Mg 17.82517000140369 8.31303851200024 15.05814129832684
Mg 18.329177422424383 11.354659240652527 15.63843977469061
Mg 14.699712937196486 8.007441464214022 15.018074436181378
Mg 10.009328876112223 17.43519105340434 16.22211019597243
Mg 13.103464703292865 18.03635135910544 16.700257764529596
Mg 10.629659738393368 11.652047321869356 16.214449273930498
Mg 14.471796737984713 15.327400436776912 16.973388008080867
Mg 15.562718049111988 12.400635245102155 17.351713080428993
Mg 9.453966049915918 14.293415284528406 17.144873568776205
Mg 13.407682386727899 10.267624876563167 16.933260911685426
Mg 16.36555078101562 9.446963258929639 17.285169053249607
Mg 12.48966166008987 13.11035150230805 18.002891292356548
Mg 11.672055320348221 16.00665746150661 18.380785143174737
