51
Energy = -49.99967087 eV
Mg 16.427695776072337 7.986490008905845 14.584460463158841
Mg 16.263056263083612 8.988233724142466 11.737978010766232
Mg 15.0822052441383 10.325046291727551 9.402630986027068
Mg 13.087534109745373 8.526573006397136 10.859726253216655
Mg 13.920053595775553 6.823003878496078 13.240942126415717
Mg 12.094839518648334 10.311747746047107 8.57196378449479
Mg 10.046036396792614 9.098533436984885 10.505602310182653
Mg 11.214247848894523 8.528990566556462 13.309896594748002
Mg 14.196748812108803 11.575494802931322 6.690765778655883
Mg 8.7029899849787 10.133596432869115 13.406438044143908
Mg 16.585462548138423 12.662196343859856 8.345783707024186
Mg 9.736495266712497 12.016102180360514 9.383280714020295
Mg 15.23672706110238 10.111992434589023 16.434407378124828
Mg 16.87831253703803 10.98598905440199 13.967613699829936
Mg 17.58176085250357 11.674596115107509 10.959228436609346
Mg 14.749424233082797 12.312414496790751 11.977201796750597
Mg 12.782237166347743 8.128518490239912 15.838678897876466
Mg 7.442401414707758 10.842358789459338 10.852121866529702
Mg 13.976692671598578 9.901052258456408 13.556129691842438
Mg 11.831873072670605 11.35323662871119 11.593764294282686
Mg 9.846563280468853 9.303390941039586 16.08549644172338
Mg 11.53697855199857 13.265360762416744 7.1589306619157185
Mg 11.326419328138893 11.499599848179669 14.501999906027198
Mg 14.778390054994837 14.573411575162257 7.049479900237026
Mg 13.477253321165923 12.931485038679838 9.426736965182634
Mg 9.138798166666255 12.992903933561504 12.27412867679163
Mg 12.249953324607185 10.635056911040943 17.420056207934277
Mg 14.019350328048516 12.549240698352234 15.067863350739456
Mg 13.080554667793658 15.872131909213316 9.081524571447716
Mg 17.177111781193958 13.83690516607373 13.045121899683135
Mg 12.055387117519901 14.51272276046346 11.79660921463797
Mg 16.90003354490351 13.016110950049429 16.194711831993562
Mg 10.63660397319395 14.516324762466493 14.414519705939595
Mg 7.4101957931526075 14.84030976884874 14.298402554841502
Mg 8.679184650466222 12.39745155083928 15.591344122806031
Mg 14.563188056341234 12.534490063107675 18.19761454733416
Mg 10.189408453050374 14.9566049307183 9.503954413316595
Mg 15.769494714593373 14.825355385687166 10.405604520029476
Mg 11.663696172342394 13.477226601880215 16.995006112447484
Mg 14.280528662196177 15.056714820043727 13.621603756312041
Mg 9.206878951489365 16.028480277078103 12.152714963947439
Mg 14.343841219394143 15.14896768980088 16.764959410189178
Mg 11.218870734929878 17.65486575045289 10.5900106654786
Mg 16.781451271605516 16.802363536339776 12.526786826159936
Mg 16.91597554825252 15.926838469191706 15.326026683702759
Mg 9.028384223777827 17.30323913644559 14.97151442326297
Mg 11.751234735881106 17.209830712393572 13.553034447730647
Mg 9.006536457384664 15.08342973698778 17.0069394769551
Mg 11.748935219038167 16.49379911783027 16.456976773178237
Mg 14.06106686352474 17.397955490321998 11.603801024600932
Mg 14.430328213475928 17.796725352099674 14.947019432505899
