52
Energy = -52.22812464 eV
Mg 13.705924463052854 12.027056481144554 19.471550085414393
Mg 12.943513154566668 14.779914910533586 19.063361385427324
Mg 11.278606654891728 12.416268746325468 17.63277717943622
Mg 11.323937464827024 15.339482701462853 16.57099742176947
Mg 14.318223763590604 16.39907493923511 16.94780773108243
Mg 15.86448230560793 13.947387232972622 18.32171773836686
Mg 9.76919649498378 16.020258536547317 13.99574336167714
Mg 12.675425841146506 17.161082548990027 14.436282038788976
Mg 12.327955886678124 9.612440947724494 18.131344369471655
Mg 15.69057995298149 18.11132874314918 14.851252216587934
Mg 9.787896365344931 12.891855996592826 15.10830357106735
Mg 10.23133838179573 9.889361270897007 15.984848986666707
Mg 13.798839236894162 13.434928875078748 16.20963159052478
Mg 14.368534616603293 18.3657393541085 12.031959438917962
Mg 17.31718905536978 15.608614531607499 16.170963071470158
Mg 11.213839473431884 17.692463046456997 11.808211682974916
Mg 8.263132905927806 16.586073776657425 11.469281020882697
Mg 15.126447323141221 15.16348758884274 14.1479077006428
Mg 12.205148601259557 14.14479492300078 13.80056462128058
Mg 16.69995808726132 12.58593577014057 15.429774781695944
Mg 8.412994759731756 13.65042488296544 12.559358230307476
Mg 13.32971944871305 8.198182671576603 15.637214275166704
Mg 14.900569702175176 10.664965096839406 17.03751206004577
Mg 12.663386239379571 11.114720764592992 14.757811134304447
Mg 8.719735764744806 10.51742948276132 13.340825363188545
Mg 17.06346854907258 16.911758905575155 12.447785069232534
Mg 15.94800284853371 17.02933148924583 9.719409840443872
Mg 13.786944004468815 15.405358993256888 11.528852755831828
Mg 7.913512228227457 11.512143123500126 10.513510580023672
Mg 18.13906225514921 14.330597348507636 13.508554948876665
Mg 11.155742135813105 11.84587438332334 12.192571000001355
Mg 14.642919282043747 12.539702654203051 12.929687526446559
Mg 13.576709733296967 9.976486999863786 11.890392712997913
Mg 12.889518749273735 17.21065257745768 9.264012846607743
Mg 11.28950506781684 8.537127860976145 13.357872180899461
Mg 8.423839510102317 14.344512896535187 9.373074079804635
Mg 10.902110628628844 14.696219130342708 11.117478687631534
Mg 14.310602098423024 7.178063850908148 12.910700968536318
Mg 15.59344724146514 9.823091493862862 14.271556003883779
Mg 14.663535578821051 14.69727849663117 8.462837144008914
Mg 10.11115942376429 9.367205415431712 10.61587671666912
Mg 16.51093882121247 14.069685334149275 10.89502424242719
Mg 17.52308908428907 11.567370140517868 12.464320052416847
Mg 9.833836082554683 17.040569297253914 9.076710861844116
Mg 10.475121503698515 11.973611299838137 9.039316035631764
Mg 13.241470638536555 12.69874071980346 10.15942638810213
Mg 12.734622823798338 9.87002360529116 8.957952416555672
Mg 12.230004830133943 7.259852366060394 10.704841497905257
Mg 11.627294849713994 14.662870334029474 8.192651497381542
Mg 14.885198255384038 7.907054616539335 9.760252097809596
Mg 15.763591595482023 11.057673259516399 9.99685974439284
Mg 16.782839891636147 8.718814074535622 11.78818899287201
