53
Energy = -53.36843403 eV
Mg 14.069878816038688 11.841884961297422 8.54193887729892
Mg 13.524731501545647 9.02105597768322 9.410100369392746
Mg 15.928495653506095 10.418772124588916 10.704211588052452
Mg 11.049289152176947 10.948930623373775 9.05453951430454
Mg 11.253490781816014 8.560361341067347 11.230891842476103
Mg 17.090207267976336 12.520408072342137 8.848067918848715
Mg 14.131618923939376 8.774646712057908 12.505914824460039
Mg 11.730559027417483 13.722625562538285 7.698892634404039
Mg 15.06417385642462 14.624300216761652 8.151393452471144
Mg 16.83631315207437 10.17678724195817 13.654206237047832
Mg 15.071234590311462 13.472565767616224 11.241424350663296
Mg 9.662432914744876 11.121446327112162 11.912191558152657
Mg 9.628762323666834 13.54234680665496 10.209545276622709
Mg 17.951755363684608 12.398171470939044 11.82078366197327
Mg 11.786693532591743 7.425476321816861 14.122330014621722
Mg 10.154181049232005 16.186553163573553 8.749095927317695
Mg 14.548611277000726 9.15914585184224 15.411799613793598
Mg 12.78977626827161 11.3608545122988 11.394943237632395
Mg 18.39582639314868 12.579583628603125 14.802570694529233
Mg 12.881938269226943 16.639359454258607 7.859332402146594
Mg 17.521179586018825 15.128895572776155 10.294210017646458
Mg 9.048533392842412 8.362980096580571 13.143633345168649
Mg 14.332633918004962 11.967277000986808 13.932074365846544
Mg 11.635520425775283 10.45411930911995 14.29079621046808
Mg 16.10155120274233 14.432061108228439 13.85360417578362
Mg 12.517327138832128 14.673955668062968 10.41836036350116
Mg 12.115243871519025 8.547993839713707 16.95287532232837
Mg 18.943335957608387 15.050334056314616 13.043935424051288
Mg 16.159224694109284 11.664791440358368 16.469566742390768
Mg 14.917158395697365 16.788667451069102 10.256400528956581
Mg 16.886972206295923 17.18043597429697 12.42524097456434
Mg 10.004696965779022 16.102922957945925 11.823947921011982
Mg 12.13975543768259 17.960954963771385 10.508244781682254
Mg 11.730236405577989 13.483521218749944 13.185336007334227
Mg 8.640788756245867 10.991004359619884 14.80635845078418
Mg 13.089264506492828 11.491842854638566 16.800644307479036
Mg 13.508868424592528 15.90707051661666 13.037713190156166
Mg 16.915232115697656 14.684111619368874 16.74227523771232
Mg 8.693915512105306 13.732577973463108 13.320341267910708
Mg 9.348389003838598 8.289511449384952 16.019065855983797
Mg 13.533599767444151 14.456428582250615 15.767444928993145
Mg 15.918456128418544 17.23714426389269 15.217515126219945
Mg 14.339615412719086 18.78144006833529 12.86865902910794
Mg 14.662417118137425 13.534437500427284 18.4944418985547
Mg 10.143575854723293 10.718895578793017 17.587225594336143
Mg 11.327094752866389 18.458076216291314 13.28130970304759
Mg 10.576214258307035 15.972883636462035 14.72985708266079
Mg 10.471245452486395 13.244824605715344 15.984222970298129
Mg 14.7281584861835 16.61323839908032 17.89161922036247
Mg 11.597258458688856 13.132496818817554 18.884359441605792
Mg 13.018053569434988 17.7744461987913 15.658814918142546
Mg 11.53591089114458 15.898651816259626 17.602271379017406
Mg 13.040013463058136 15.524410147275294 20.101561063892447
