5
Energy = -1.72515606 eV
Mg 6.219714584903282 7.341391126977057 4.739933434196076
Mg 7.695480327531032 4.974555176732936 5.426915372503482
Mg 5.591127833268165 6.344921716076871 7.576299060985237
Mg 8.399261796130725 7.5207819255518435 7.22585934944729
Mg 6.948284025009545 8.673683620759867 9.883538672559977
