54
Energy = -54.47447081 eV
Mg 10.898152919133725 13.509945384843197 6.1101769249714035
Mg 12.153084732865272 10.592007338880958 6.268136312506468
Mg 9.041939778359724 11.315530489456716 6.430122977349179
Mg 13.658943745292826 13.426279406920075 7.149835585786761
Mg 9.95991425868513 8.869519933342898 7.6406729275812095
Mg 14.691843267589752 10.87117939862192 8.264553955387433
Mg 8.857499866012246 13.752542970709992 8.359481311203247
Mg 16.384671438188818 13.581312962372245 8.237401020878472
Mg 11.647263580874286 14.980155917116356 8.77855286123151
Mg 11.384344300128474 11.761406868249201 8.803838065062177
Mg 12.571518741158506 8.840544742365921 9.054486169801049
Mg 14.584828681340186 15.720832768067723 9.515578197984725
Mg 8.480435146837422 10.969451795794496 9.47157736091154
Mg 13.716614631388474 12.934175174603563 10.427114860196095
Mg 16.937543632741548 11.536688155960102 10.399489778279012
Mg 9.196921681460253 16.0146637267895 10.586015403592942
Mg 9.872725560105936 8.586498350771114 10.669768798549935
Mg 14.709268526658587 9.653049465474089 11.063019324508407
Mg 7.429510056344073 13.448367847310315 11.097059842421473
Mg 10.496699243891202 13.323933734615874 11.17469812000623
Mg 11.837857552999617 10.741344710575502 11.619058285595171
Mg 12.042527899091045 16.15435501286647 11.546330730868508
Mg 17.089081563583328 14.555706775386756 10.964397973792218
Mg 12.499074699246192 7.598988210606381 11.95361256589189
Mg 8.679961939056064 11.06384323228539 12.536126528523322
Mg 14.884006716188903 15.848363358726969 12.566768638566652
Mg 18.14778169235061 6.85314175731819 13.656837989252201
Mg 17.457194127335303 14.887814113484412 14.034003864830726
Mg 12.746584029458887 13.684870524597727 13.305134426893538
Mg 7.18125988521219 13.318544441756483 14.199788444768206
Mg 16.965556175117985 9.943470714366006 13.166603080561925
Mg 13.577428970547794 10.202819371032488 13.867901186766261
Mg 18.610650032436027 12.514820378957712 12.809842511433793
Mg 9.619536627341912 17.518224061335978 13.356028151752604
Mg 15.370271190589998 12.590039832131351 12.887363649675633
Mg 10.378424712756619 8.833550367394698 13.726839494093767
Mg 7.015442137205132 16.03110313337722 12.626678072010778
Mg 9.897557360856617 14.606784723321603 13.77233540327305
Mg 12.50095725211392 16.70021573223233 14.462146866226629
Mg 8.323122528466756 10.857935596858542 15.71283874428518
Mg 14.87024534278181 14.871932086127766 15.473036003801893
Mg 10.955297481716503 11.771630389503331 14.540215737719134
Mg 12.726744958178212 7.457877072709939 15.063743295612586
Mg 15.14840733210568 7.437495810234089 13.2867808731175
Mg 16.9032305087796 12.094938603025271 15.427364220083035
Mg 15.68242775605969 9.116301768256108 15.808185154669387
Mg 7.414922965500466 16.24881676624567 15.481546577876765
Mg 10.123371592378094 16.777589349276194 16.304148404807005
Mg 13.032350625877749 9.498503703539582 17.189487018087693
Mg 10.263114930129445 8.766358177528833 16.696139624895658
Mg 11.89276773628801 14.342464082421134 16.338806960522422
Mg 13.897799580268094 12.128599486956025 16.109691586053597
Mg 8.911401814672303 13.829194423778425 16.633236579307308
Mg 10.873975449449283 11.658334754715977 17.569460511370956
