54
Energy = -53.50286898 eV
Mg 17.611162736456585 17.92711789099742 14.771125181645687
Mg 15.941170157135002 16.361349524590658 16.837436916094273
Mg 17.90997996153764 14.90325479073072 14.932047938654863
Mg 14.770982793201549 18.532642867612843 15.096513873495654
Mg 16.726564434786205 13.213866990326522 17.232394787343118
Mg 17.739480877447953 11.981090556399344 14.475971955014852
Mg 14.552612113068399 14.587990686262776 18.92548963084041
Mg 14.032767177449351 11.74542601903212 18.33357370753007
Mg 18.504363851462475 16.585815357464536 12.385195512253258
Mg 15.584047929281093 10.63286790929303 15.986945621687797
Mg 17.3340050198505 9.041715159829572 14.023902172371098
Mg 16.29666828721849 18.54514217800544 12.03747468609132
Mg 12.638531539029904 16.44466639629945 14.47735100251463
Mg 17.626814277946227 13.71232236982572 12.036021612737272
Mg 15.382354100358084 15.791132145071423 13.35299805495587
Mg 12.899326463217934 16.547919749716186 17.398432820714707
Mg 14.138016895575662 14.058694726000427 15.791959616170958
Mg 14.771716122226415 12.725260564189806 13.195238787397617
Mg 15.204101349943828 7.563824241363042 15.394050450574236
Mg 13.119753889295126 8.899146237749248 17.160774075589895
Mg 13.369273423673043 18.396823265972806 12.411190038342951
Mg 16.89460725074359 10.783679513342912 11.654309766718846
Mg 14.33333894566005 17.95755663478917 9.59636813355581
Mg 11.725598673291952 13.708669651365701 17.76510981543162
Mg 16.301713926845817 15.885398257851518 10.327778711652705
Mg 12.714799565347432 11.415033308981627 15.459785411449737
Mg 15.370575361908271 12.909557625799163 10.042517637913761
Mg 11.735451418689673 13.660956806015495 13.658699127082532
Mg 11.053472862017307 10.823290502843125 18.216272812225004
Mg 10.222933668205926 15.460691578658771 15.889892068857893
Mg 9.63118371726319 12.270911883577813 15.589703956223318
Mg 14.269314468422511 9.716857201656014 13.148491110559663
Mg 10.352415847678204 16.77656938171703 12.5878019900711
Mg 14.473063356168947 9.864619581362318 10.039069957951538
Mg 13.006631896181231 15.380851983599278 11.194613062130852
Mg 11.054385378578372 10.426300263719199 13.228366411608203
Mg 11.40233483033311 18.701998264874458 10.290311386042978
Mg 12.49247087139977 12.103539267555451 11.138659558780176
Mg 10.183897588011602 9.05094142249404 15.989410514710464
Mg 12.401709597405304 7.5278115969704 14.521219791901768
Mg 8.018494657104252 9.71368804005631 13.98991700017001
Mg 14.177185547766774 15.027613817132337 8.24196445527678
Mg 13.079844543690339 12.007248869845496 8.117951089494463
Mg 8.507009737969636 14.517537135015816 13.653436950678932
Mg 8.46637399224429 11.925387015922588 12.140064190719778
Mg 10.040534501316326 14.128990558630576 11.100767020722653
Mg 12.150173777762374 8.028105765807247 11.509958643389382
Mg 9.574306818210594 16.575908018556472 9.562800574894162
Mg 11.69699266727362 9.392661345716903 8.893680780662942
Mg 9.323042404022658 9.229056537715355 10.933243579487494
Mg 9.721244032006007 7.44403822708488 13.30455506298173
Mg 12.038389986595762 17.12300608004622 7.854325332707382
Mg 11.244643056706899 14.303645622991551 8.375503853796952
Mg 9.922348672570683 11.714280032497072 9.294528847976254
