54
Energy = -53.63460948 eV
Mg 10.375129206651478 11.568220785277008 16.051167179340087
Mg 10.709631409313179 8.096360538098287 11.272292143976898
Mg 10.607640623770633 13.581874220668562 18.252032979162443
Mg 11.08817045575761 10.382402479043474 13.362673755686949
Mg 12.635527863364567 9.399127723401593 15.843374488007655
Mg 12.963883389149165 7.881637300344898 13.157276443833624
Mg 9.041015929994368 12.558105203043892 13.394518244112957
Mg 12.953457296617662 11.66500906898527 17.839556246354668
Mg 9.292623001437542 10.709403558692907 10.865523676697899
Mg 13.281047688515923 14.329707106620052 19.481904416351995
Mg 9.563720042160261 14.608180531768891 15.593276233992464
Mg 10.165344817666602 8.648440026456033 8.422021086767352
Mg 15.159696088906145 8.008204678779641 15.061658166533595
Mg 15.416135597253534 9.932543380356403 17.343820169803916
Mg 12.309577950376713 13.55551649487599 14.404450759832654
Mg 8.69338442732219 13.564577977272297 10.175890969046135
Mg 9.323438272107305 11.484218932378589 7.946845460727615
Mg 15.677282094605141 12.35117951970141 19.159718561540277
Mg 12.07429574119957 10.81084710540599 9.442773337057002
Mg 10.20909322063061 16.216660585373205 9.782296604522847
Mg 12.183996454746653 15.87582850998517 17.04189903958345
Mg 15.990739172432562 15.04329105017605 20.49219090399041
Mg 11.252601313953978 13.728233076303125 8.428559396187307
Mg 13.734200092659117 10.918459566705327 12.055429550359069
Mg 9.394912026530289 15.383079626122651 12.627802208971604
Mg 13.455178188709914 8.118084251340806 10.191058213525437
Mg 11.559111615481768 13.088610250808348 11.481194436264643
Mg 15.883161717256314 8.638566339925625 12.224753883335632
Mg 12.441462480745777 15.959744880434377 11.980911203886889
Mg 14.797018586803638 11.540444931122517 14.782479973311961
Mg 13.219519168458726 16.064292311207453 9.004703764827454
Mg 11.112802615972715 17.074457559729172 14.575235506308859
Mg 14.659730323630717 13.942153347182565 16.591493301512777
Mg 15.412415614374327 10.264642395670533 9.53230677667382
Mg 9.995883783675863 18.27176757412538 11.995102337068353
Mg 17.437159519401263 9.843335029867246 14.71068657026742
Mg 14.866087274521004 16.709760599835136 18.175610828130907
Mg 14.107622650456324 13.126085881491644 9.47280939560071
Mg 17.444417313073256 11.997832572059501 16.761876326438433
Mg 14.197215833554937 16.097148835089893 14.38979529171162
Mg 14.753313537958572 13.859552012981199 12.433565125446968
Mg 17.334953003880706 14.834835892816884 17.735961347861718
Mg 12.09019642624485 18.670329894093104 10.012966047710282
Mg 13.580198542001597 18.500257524729 16.029916316740454
Mg 14.78196561817384 17.927767779718685 11.11236672643768
Mg 16.8900374129744 11.524833105886403 12.242081756059632
Mg 12.74360549208608 19.061754873934355 13.05806305099714
Mg 17.104010114854624 14.038839274164937 14.57460267127494
Mg 16.756333042762403 17.08563826709596 15.847361031757604
Mg 17.138918509496236 12.661296867318812 9.394085172693842
Mg 16.10210944895733 15.473222806449407 9.98614437590466
Mg 16.932898629730808 16.588044475106837 12.771677112473308
Mg 15.603774215667325 19.04616051139759 13.874409963140772
Mg 18.21867353631521 14.12521990939164 11.720519263399249
