53
Energy = -52.79994155 eV
Mg 19.217785179825892 12.76397482615562 10.308165160162552
Mg 19.718749586710896 15.301099749754151 11.648157556441795
Mg 19.15174630179068 12.844628774203848 13.341847847595592
Mg 18.10249961349107 10.379089108462972 11.598309760849082
Mg 17.3311776516834 13.373312775808671 16.080060597310375
Mg 17.999434346064092 15.673379885708393 14.121373959069857
Mg 17.164426224225735 14.845765206516383 9.230059881991755
Mg 16.728555872966492 11.207665481773438 14.034422710922673
Mg 16.529593679132816 13.795707062217994 12.062357711286023
Mg 16.386317705345995 11.858807799441006 9.589795623180208
Mg 17.390742233537576 17.024720229182975 11.374049195643254
Mg 15.181127988918426 8.681292141504231 14.535991385699399
Mg 12.942619859073071 7.971876096612842 10.007438082384516
Mg 14.932016458850688 11.15962792313055 16.4809644223173
Mg 15.163601600813138 9.598262301048292 11.321294180218283
Mg 14.741394944026485 13.681509856380623 14.494690671681747
Mg 15.8393406632498 16.13175460280999 16.320824380205885
Mg 14.799977412827552 13.79734547292215 18.036461345730928
Mg 13.737590730801157 10.728085257353706 8.804142188634978
Mg 12.620140307122647 8.058756896423533 13.00640977289589
Mg 15.185169950780363 16.552191787718872 13.353846772558441
Mg 14.604409394284398 16.055829031226345 10.485364249502688
Mg 12.449329068653386 9.335004118635284 15.959102165235027
Mg 14.263721828081518 13.824876494058174 8.40864789672846
Mg 13.59583330166441 11.047803883535275 13.597868423970498
Mg 13.643531616603886 13.040658879362388 11.3006666462796
Mg 13.645275934959708 16.677508622111667 18.292871524199818
Mg 12.328441727785794 11.839915832374254 17.846656142258013
Mg 9.980498487714666 8.26780492080109 11.114068032068506
Mg 10.924081698150939 9.59888134586596 8.528689847815722
Mg 12.546142844047202 14.71821488721519 16.213268236116843
Mg 11.818000086297411 10.649024675079433 11.236307152634774
Mg 13.23608806387041 17.606295707617196 15.3505078642068
Mg 11.78685918270282 14.592014877978471 19.24274113293849
Mg 11.404335956036043 12.454232694627525 14.833986595852185
Mg 10.257068908405945 9.811623484286702 13.801951633936481
Mg 11.737949877374506 15.34473360241658 10.00734839143672
Mg 12.365768160295238 15.08102764885576 13.199411206310307
Mg 12.564869099236937 17.81130296434041 12.103577894474276
Mg 9.763919190180104 10.533830600537058 16.699457439486512
Mg 11.270206129391584 12.631042093149073 8.890727375284698
Mg 7.617808523210923 9.862091443900166 12.436084038641134
Mg 8.784093299813122 11.056491974261805 9.969261576227803
Mg 9.736267248819166 13.534888180252961 17.28424091543784
Mg 10.31383591545631 13.088483454612522 12.119070535783896
Mg 10.600891560737852 16.718462745514394 17.231430884669383
Mg 9.610867005366053 15.04153503639708 14.737418272747925
Mg 10.470931654472027 17.89695562391373 14.408043851533002
Mg 8.245539546701009 12.278384927847336 14.408843135645592
Mg 9.727011501047231 16.38546581674976 11.913657348359234
Mg 8.639921079018244 14.233321699421777 9.940430786085619
Mg 6.487031353449899 12.373182686119133 11.561169782259977
Mg 7.341326462011543 14.790985724636094 12.796769599629457
