51
Energy = -50.43317592 eV
Mg 10.068440101899915 11.016157284779306 18.02019371656297
Mg 15.241019482428358 9.185360255364746 8.170874535329348
Mg 11.434618077585526 15.783603029028649 12.298632123346897
Mg 11.432241252207577 7.897806084747024 12.547345944618229
Mg 16.168021077431867 9.077147000083537 14.305309444862633
Mg 15.310808303195913 13.97029105934588 15.225730208502828
Mg 8.38681183944253 16.263604124368417 12.464885205689056
Mg 16.024736608173672 16.758035749462508 14.259587948763029
Mg 8.889210105293605 8.002169641887614 14.13953940606305
Mg 10.433413336207394 15.569386859480188 7.739986227346699
Mg 7.943362569970067 11.599759037513179 10.315819080675084
Mg 10.912149659357684 10.702825665956277 11.20921394465281
Mg 12.168900398280249 10.5368890849407 8.251039069549895
Mg 9.851144155254111 12.54869314417271 8.083578642245369
Mg 10.914425452416559 10.490294067369799 14.487843918374242
Mg 13.501221983978956 10.204550859937953 12.813365899300642
Mg 10.47517874390413 8.169921069903975 16.72051997232602
Mg 13.230942297560773 8.229898891699655 15.212342396139842
Mg 13.343345198390741 8.600080560547127 10.300730283563567
Mg 9.58136991147406 13.189027483499771 12.616414860195928
Mg 16.077526634551674 11.92993164130559 13.13493263272292
Mg 12.48955524381021 12.952473884923396 13.454252913860387
Mg 10.152941840222685 15.239382564099154 15.024078729766599
Mg 12.704383898520089 13.64361950149439 7.543069309321308
Mg 6.4407097150775705 13.614737118600054 11.98784428765536
Mg 14.689962120028161 7.205441518675752 12.592768560112116
Mg 12.705276428073441 10.001721832087874 17.613023291996
Mg 7.79925265824539 10.888480410599202 13.330775362916162
Mg 17.53976630970368 13.321766937422435 10.922615904681365
Mg 8.591404626062564 8.68694995334965 11.251197544272324
Mg 9.146459216721503 9.639884975207925 8.397469132870862
Mg 14.230778434218982 11.75054779754588 10.312707634693838
Mg 10.11814561823731 17.245802600809785 10.074471653409498
Mg 11.695340672183145 13.488202684594354 10.39706839891409
Mg 7.135402503204351 14.614733893784665 14.605338963115909
Mg 14.542519413805273 14.396124835471172 11.97822620849406
Mg 17.10788868360648 11.410191779024887 8.766121400349462
Mg 9.030262766482048 12.583799002918958 15.699960708505346
Mg 12.03871995637849 13.031207858332614 16.468718191366456
Mg 13.123899164304865 15.846962976772904 14.781369953890653
Mg 17.837953216070947 14.565613896905582 13.584153931170304
Mg 16.711252343831415 16.275774868748957 11.244477455745445
Mg 14.323385997895535 11.194538057734121 15.524501981539675
Mg 8.51494166275567 14.624966113504932 9.882099468460867
Mg 15.385310547287895 14.23713623885699 8.931975853119235
Mg 16.29288091685851 9.499581117269008 11.184905373327734
Mg 13.021936596971758 16.120502758381146 9.540820588997109
Mg 13.969245983479533 17.40372241985684 12.208086133121311
Mg 14.77301122213744 11.724734719862276 6.888651089084255
Mg 10.751201839022306 7.467580678506513 9.458673569087292
Mg 7.965748443016 9.816809636482068 16.251116172542854
