53
Energy = -53.91359713 eV
Mg 11.296304279439605 16.038945301395938 8.260919221095982
Mg 13.699939265308457 10.800382556087667 7.212008737416095
Mg 12.340932393835477 13.360084395571645 7.484909936743184
Mg 10.45972194762033 10.967489510043528 8.003357341889668
Mg 16.76857674029218 10.608465413586538 7.466599554687614
Mg 9.3496843644899 13.734083160097258 8.517954004882933
Mg 15.468860545600997 13.332560899331362 7.9041279398442725
Mg 9.3387363395708 16.212239769018378 10.498403832744017
Mg 13.592935797079017 14.884658444413475 9.837082114228522
Mg 7.691763087696583 11.186836537550311 9.284460214614308
Mg 17.87786650780822 12.292593551044797 9.546395275051983
Mg 9.265571937374435 8.375270820316427 9.551765909435044
Mg 15.07140557846898 8.462112099847145 8.550363079187038
Mg 12.29624398183679 9.278036929755116 9.544232661798619
Mg 9.662092859640142 10.450296987486785 11.64265236777034
Mg 14.619316632536771 11.479204922673036 10.224062032018887
Mg 6.54557345060624 8.921122983362835 10.996517547830159
Mg 11.623204255012604 12.608680744035105 10.482921850809777
Mg 16.358813796622353 14.466536775994767 10.838775086409985
Mg 8.763877768481295 13.409003451879782 11.467082741900743
Mg 12.232880884693921 17.750321671398602 10.567701514779662
Mg 16.980409196526633 9.580301526798628 10.601314065945424
Mg 8.570139521914058 7.4719950040829834 12.481844984872474
Mg 14.626509286361943 16.470222982970014 12.20890547998858
Mg 10.752464417371081 12.437801000683075 13.650228385161288
Mg 10.015132981961473 18.298096953712836 12.598505649350988
Mg 17.047823133224448 12.099360846125267 12.509510443696032
Mg 6.317967124206679 11.686366000431754 11.953603028041307
Mg 15.56076047051762 9.75322395417368 13.451901865648294
Mg 7.621979270167153 9.882807416599107 14.018862786385537
Mg 11.433034736818259 7.500327738367985 11.84751017838855
Mg 12.675953425780685 10.309766886845896 12.34931742274445
Mg 14.415349419148386 7.919565193524018 11.401596854311965
Mg 13.983851134419709 13.188930120779252 12.628086021960183
Mg 11.639577500161153 15.199625774562529 12.348415927736331
Mg 16.189932495668174 14.508765620372417 14.195861632511575
Mg 12.824209408790349 18.62263864889765 13.362495942512966
Mg 14.256585689605464 16.644844773310563 15.177560613791243
Mg 16.448728424648536 11.686818608004984 15.61493154837447
Mg 11.073453870460293 16.88659147851199 15.131769135707726
Mg 13.360845202908534 11.320592220889992 15.098954564856957
Mg 8.783716223795798 15.59763678979601 13.59100127679534
Mg 7.732409799109797 12.845301950000504 14.374661143440909
Mg 13.29115737262777 7.917656961787397 14.374234954429173
Mg 15.160111593699547 8.911738531681364 16.430563477624016
Mg 10.576167222752549 9.164766850488013 14.362083579742732
Mg 12.5693854755106 14.26386275597558 15.150099104626772
Mg 14.860878193544112 13.844969619277144 16.921546948381835
Mg 9.757544967786934 14.240154137388673 16.164789179451947
Mg 14.596081081800795 11.123165803075246 18.233636166506574
Mg 12.148225891887321 9.42846968910147 17.073190181538855
Mg 9.587158534766118 11.193265882734474 16.28139870963756
Mg 11.952628905277038 12.515915741391415 17.66380016793115
