51
Energy = -50.17766971 eV
Mg 15.377044827254117 13.444389594390588 17.84581233472935
Mg 12.471949522466948 8.349909995052002 17.58508332865478
Mg 13.98384344307602 10.876635082544233 17.611900605021667
Mg 10.849940735531963 11.015054617561123 17.247366940482134
Mg 14.37310361190885 16.145216811237304 17.31904333821365
Mg 10.09875721679678 8.264137484588923 15.642677511519475
Mg 16.777013469662165 11.515088690512991 15.80768574271197
Mg 12.402610140505413 13.643780199061409 17.38623562685712
Mg 15.124595710119538 8.928691748632252 15.453567776484276
Mg 16.491697716028987 14.632001322714174 15.381071276284256
Mg 13.144095457836137 18.45171322043863 15.793410647953849
Mg 9.473430661124137 13.758742020705412 16.566357902198217
Mg 11.129869896715928 16.42945959968983 16.815987358257722
Mg 12.441825441266431 10.014228726390352 14.833348600728907
Mg 12.945357878056457 6.769863716215318 15.195806012070634
Mg 8.650949367688169 10.961583923149188 15.175272530704728
Mg 14.064478166976517 12.457650644488734 14.940473415972738
Mg 18.027624396767354 12.883464561219093 13.08027266801165
Mg 13.179783930540163 15.284761509817283 14.680247899150332
Mg 15.803179618912191 10.689076890186344 12.95219021225262
Mg 10.968208467753477 6.792021481306004 13.07489733435995
Mg 11.107478561557445 12.677955172892077 14.199662208151876
Mg 15.554365950199792 17.33479811006496 14.316340035010088
Mg 13.569212460287908 8.360471355449054 12.598149746627984
Mg 10.15459533169858 15.565116603621036 13.96554601653044
Mg 10.425594270247865 9.718261773670733 12.728162430775825
Mg 17.49149380055475 11.488093211471227 10.342811800644812
Mg 17.806913333394746 15.998695444013523 12.949946749168534
Mg 15.243035897699151 13.988916259242329 12.661931087701753
Mg 10.491935787360278 18.47906802070115 14.544545371804452
Mg 7.724019481187138 13.69245275581304 14.08314810129225
Mg 7.989612235546611 11.309513623866232 12.223779376939637
Mg 12.497877097011601 14.780874588715243 11.769119207887682
Mg 12.975811752468443 17.7904147352406 12.746635302598907
Mg 14.77421371795434 12.777174609827892 9.992094996487474
Mg 12.86912548373705 11.503487158815624 11.93157359022322
Mg 7.950200004825464 15.752910284247092 11.906200435233119
Mg 15.046562072127065 9.526636055022001 10.316776989624863
Mg 15.355693905378743 16.727059441400478 11.1850452210247
Mg 17.141773486553685 13.287561193018208 7.70673658420922
Mg 17.4557758007471 14.586997789668516 10.364471336573382
Mg 9.871505753311427 13.449733916572681 11.473157424477433
Mg 10.255734337219462 17.736160770279735 11.562044092165104
Mg 11.962475282284563 13.628768847407635 8.91806666263384
Mg 9.860128501035948 15.731603607858201 9.478896922934783
Mg 14.97973134708457 15.41058498151399 8.491896287720945
Mg 10.303866977835805 10.965927135039683 9.925030566373959
Mg 12.635315862389929 16.92849328633828 9.625742721196575
Mg 14.249983499124573 12.950149507459372 6.883865941869483
Mg 12.928444954987443 10.677142008713659 8.558288404565896
Mg 15.920277640593362 10.626945347425192 7.730896713060793
