50
Energy = -49.81987948 eV
Mg 7.618260662694815 8.424418384449487 13.520518015951069
Mg 8.665963041033974 10.397645618446502 11.613715177783327
Mg 7.782723229438115 11.244217724195332 14.60193625105546
Mg 10.550860150536906 8.099044429196963 12.906868706032151
Mg 9.629824980114998 8.95636946904975 15.80101215008832
Mg 10.101645043305389 12.645422383420248 9.898111499845044
Mg 8.213992101529309 14.191033164821354 15.489344667029583
Mg 9.024143809554046 13.257372860617279 12.650005968457993
Mg 11.496939903634594 10.004270544046488 10.719900489704209
Mg 12.355271782627348 7.6416430971148115 15.34481744785402
Mg 10.823526475784455 11.020346516214452 13.951762729121935
Mg 9.990930284575636 12.02363558984216 16.699054141471212
Mg 12.040669307781108 14.909298570067161 8.341399930723183
Mg 12.627430976666663 11.91554055022268 8.520743916121436
Mg 8.838423009275953 17.059859128077115 16.377515439580588
Mg 9.269170993713379 16.278313624498356 13.567881915893185
Mg 13.339245504190728 9.56703441336881 13.242173443141455
Mg 11.146650348593608 15.156818773013642 11.3250840772182
Mg 12.350722250734796 10.160804621394883 16.86203948889881
Mg 12.530595230293505 12.59306069952041 12.135023326284387
Mg 10.539004851115367 14.903029709492635 17.59343923242656
Mg 11.255592550670231 14.05126607721226 14.649915904001208
Mg 14.206974229302599 13.785375316440552 6.533000135006821
Mg 15.039859878719055 9.338246158102677 15.881590414993548
Mg 14.799858505884593 16.299715205147262 7.778394094739636
Mg 13.662559017605203 12.192565203688794 14.96768324168462
Mg 11.870081332321869 17.770137237054755 12.795925628654647
Mg 14.52316424519558 10.755673712191413 10.704605824648059
Mg 12.35678656935416 12.60738520507898 18.558721836835545
Mg 13.351934029829753 16.990626581144863 10.290511044229993
Mg 15.570808688087086 11.611842773046561 7.982203106662825
Mg 13.818280406234363 15.218326089927636 13.227761833539983
Mg 11.827571487468195 16.928305854268647 15.709840669441432
Mg 14.404996068084998 13.941873463310207 10.212801424817512
Mg 15.127307963870077 11.804389824735267 17.70293069911205
Mg 16.957712894336574 14.165819641286733 8.497079382984786
Mg 15.831319875403194 12.939289807848679 12.809996350137615
Mg 16.3699924674014 9.931893355702083 13.036936440397508
Mg 17.340332939817475 11.298741383034251 15.580675444357713
Mg 13.529982367963187 14.70120003670109 16.94064050696379
Mg 15.000693885720091 18.148337209352608 12.576936156741136
Mg 13.470225974479602 19.443162649473226 14.739329190486536
Mg 17.400874832194685 11.506373956821024 10.379848814173817
Mg 16.32448394890777 16.317696503344095 10.526177619521805
Mg 16.155652891266563 14.107062149307197 15.768390303931964
Mg 19.00798721468918 11.381772187786915 12.937322323291061
Mg 18.336117394122173 14.128456290182767 11.396010149180759
Mg 16.972232563705965 15.953739324102532 13.452218316976523
Mg 18.841702569874066 13.791429181237627 14.465550794041953
Mg 15.052983853807598 17.022958895352318 15.527011436632462
