54
Energy = -54.00772006 eV
Mg 18.124915133675714 12.588620002053666 15.027936587405065
Mg 14.044075895964887 16.966900463863258 10.051050067066942
Mg 14.197008496810826 9.09763261002392 9.587265130548825
Mg 11.019689091228361 17.013780712065216 9.435885899752622
Mg 6.765047147192106 10.17615637525423 10.77718538717065
Mg 12.695970965256118 14.49909291581263 9.043165096726538
Mg 13.035416911925818 10.70414266991218 14.214830250322304
Mg 15.595677508825174 16.96894107652189 15.974875082131613
Mg 13.317242391150513 7.728485107651522 14.625080314922805
Mg 7.211308606106622 11.3407220699176 13.526703252577029
Mg 8.1917345529553 9.19146311118317 15.380854315782958
Mg 7.357688128520767 8.151724790507506 12.842483897162902
Mg 17.00099341950391 16.191232396166505 11.138537360367481
Mg 8.819114917415554 15.903523711237952 11.253775338595801
Mg 11.970026829618549 18.257231860041923 12.103963193760139
Mg 10.213662007893786 7.520875044699697 13.802007217106256
Mg 11.376471342207683 10.048715683512283 9.321429058480767
Mg 16.178044206103376 9.519821426293072 15.166214075826613
Mg 13.629628002289405 14.931961929316888 17.303575624473314
Mg 10.961722535221492 12.868942258425998 13.768585110599178
Mg 14.602404259788562 14.270223944792738 11.60109677666943
Mg 7.438882693137737 13.158796279296608 11.026486667776677
Mg 9.220556247079422 8.23801381980465 10.560432627581957
Mg 10.647320769203713 14.803877978022035 16.094016210333024
Mg 12.273919459252392 8.290728389813786 11.750429021890023
Mg 13.519686004723429 14.085679127335064 14.460938058563647
Mg 12.115548322910998 12.245133459998385 16.85242485685668
Mg 18.75904417781672 16.04581115072258 15.970231587965447
Mg 15.214040512447914 8.944360610816835 12.393545712129278
Mg 18.037851402634963 10.376941555213925 12.849590217366881
Mg 13.075408004638371 11.633150462866531 11.394566061552688
Mg 16.735186566079342 14.51285403234087 17.355952970572673
Mg 17.67366891025378 17.697624539495212 13.725269802928398
Mg 10.99250652810635 9.491385159902768 16.088379279229095
Mg 13.900720826932359 11.81604400589481 8.36113143885863
Mg 19.391690526021055 15.181957375922533 13.235872485963235
Mg 11.824740297730502 15.275899622466433 12.119346469344501
Mg 8.601744526466984 11.303773984411244 8.869530403970783
Mg 9.140938416434677 12.020738868156819 15.988731150656445
Mg 11.07686798489425 12.494708382191561 7.5721752476147834
Mg 14.692702680975383 17.180613879416157 12.984185893096408
Mg 9.228701078820587 14.701735606029745 8.580802573024867
Mg 17.826757174312437 13.248412257723112 11.623747440622209
Mg 9.842080224922443 16.799760559889947 13.945447116060093
Mg 12.566151326410198 17.002832932030596 15.09031690461344
Mg 15.212728952690108 12.202305991271654 16.3839321751109
Mg 10.026278101878512 10.38312053950437 12.495825453906132
Mg 16.15273933335753 11.193116436486772 10.308162757306096
Mg 8.252891141105728 14.234992664313692 13.815466059012408
Mg 16.421975717451787 14.79596313509932 14.02836160822583
Mg 10.445712362168296 12.937743849291877 10.743060732595806
Mg 13.848224976447558 9.627665218815277 17.0315631477379
Mg 15.540427177099975 11.980252235010482 13.278796278895452
Mg 15.923977636061489 14.083328141311467 9.00429496130933
