53
Energy = -49.98051353 eV
Mg 16.017874291418273 16.081722360326047 17.82966894011496
Mg 13.407453271952646 14.487377833784956 17.767658326846476
Mg 16.09468618841224 13.110036310923709 18.099911489197975
Mg 16.24300060626427 10.211727695158867 18.449378506283143
Mg 10.85185850826924 12.716911839298044 17.819446446187865
Mg 13.522479915046679 17.314745283935206 16.52745017674895
Mg 13.535937441177193 11.488900057447633 18.0460063640741
Mg 11.054884154815051 15.342329563859588 16.308292233101024
Mg 16.264205631330952 17.321149382324787 15.156279315800246
Mg 15.366557491122686 14.236083218530828 15.325320968095747
Mg 15.856664116314718 11.159976994539258 15.565806163704607
Mg 13.75969223550306 18.190861595675543 13.640146511173912
Mg 14.249421316625709 8.708994182621133 16.94509331972283
Mg 12.55923327078211 12.564956984092603 15.226231741743954
Mg 8.404473494310414 13.91432836403332 16.379144301627807
Mg 11.099789088797428 17.997153085914885 14.925402759639002
Mg 9.261114821897044 11.276327635105428 15.403854562063996
Mg 8.704363840662438 16.27241402279435 14.62267232101751
Mg 12.83967953262585 15.229845248383358 13.66331550847271
Mg 15.905110146379746 15.491144525102188 12.728688154623049
Mg 17.05798396665642 12.720219258625892 13.121697213199038
Mg 11.428010393719532 9.828351301253111 16.654045100527973
Mg 16.477928501499076 18.47965809721088 12.449440680295297
Mg 10.060322301237232 13.591585086143649 13.604639375516372
Mg 17.064147254708978 9.778042625625913 12.965979997601055
Mg 12.361687026472767 7.1047064816990035 15.385854133381109
Mg 8.60690278106272 15.695972799214063 11.686250226657805
Mg 16.83370292637776 16.848061766962598 10.056056209187147
Mg 14.262471928715799 11.448540047495088 13.017508764770932
Mg 14.734500507463974 8.38667274507528 13.962471118726976
Mg 13.920317844283659 16.999357041277886 10.957356274702557
Mg 17.46616020847172 13.88772960635454 10.44180083875952
Mg 12.003377097894301 9.73259070623009 13.60876952725097
Mg 11.13727437524208 17.54191109546394 11.913150421035015
Mg 11.394710462626865 14.571768423853817 11.061179468948003
Mg 14.24238323985183 13.673926235093411 10.967409393565111
Mg 8.647767967721162 12.869804781045987 10.87114067427314
Mg 15.977779280405095 11.066184519822354 10.515935384358619
Mg 9.588933427191478 8.27742046180196 14.48048062961072
Mg 17.61624243088582 15.185167881043538 7.687207627087236
Mg 11.762646716727579 11.573974160869716 11.08356362334344
Mg 9.219905800482756 10.547664983283848 12.513391433402063
Mg 12.791114404570022 6.5294711923457305 12.50330440269575
Mg 13.664287631823859 9.009690226394811 10.986318212318006
Mg 9.500194487042373 14.879188708126716 8.71800008841063
Mg 14.655079182745855 15.898521562853679 8.267333529484649
Mg 11.749136541143823 16.795280343376607 8.942368125089418
Mg 15.581938041573606 12.982575739030452 8.198912357307716
Mg 10.533001641614186 8.037326443127263 11.415661597384762
Mg 10.213611093084216 11.99474404252824 8.3465335188076
Mg 13.574483983344965 10.857621121001396 8.446765718542277
Mg 12.54885288631365 13.797496858283877 8.336908445040539
Mg 11.165346704952848 9.300747985015665 8.854852828442247
