51
Energy = -50.87118579 eV
Mg 18.514916284318918 11.302239694426111 11.589139133923338
Mg 18.73572518306279 14.307983325704182 11.854190363746845
Mg 17.52675419853817 12.934761775519009 14.320983351142512
Mg 17.546918501966733 9.90854962309986 14.285426355767786
Mg 16.483969354164106 8.41525285567883 16.642336591889155
Mg 16.616680027950498 11.453748634907484 17.00568071835185
Mg 17.329735900040824 15.962585945389623 13.857068589130428
Mg 16.897298915914458 10.767015053369429 9.044390687609939
Mg 17.780793512200486 13.477543287838541 9.244560177242395
Mg 15.961468035375335 9.529868719313695 11.78308109741457
Mg 14.032004351105375 10.178203953003111 9.394945293711292
Mg 15.687134150646973 12.504837007774304 11.735134071287996
Mg 16.231671585796498 14.483730510837376 16.714325198994914
Mg 14.428395042217408 8.307713585058563 14.243527759494981
Mg 13.751952160370521 7.706965696321953 11.155508414826722
Mg 14.74031487185854 11.338853294958799 14.57404436906074
Mg 13.967158871218752 9.70516233237519 17.250922875925326
Mg 15.665384189883527 17.298939850111832 15.848969749442816
Mg 14.722960875704077 13.171931861891425 8.793034677854642
Mg 11.691101774835191 11.963892543459307 9.282077334777105
Mg 14.682862958064037 17.286628617607352 12.808915856377075
Mg 13.76679267377652 12.77387639587229 17.36592717588816
Mg 16.033585080856128 15.43289610753515 10.842228225546448
Mg 12.867305772915689 10.945240510422552 12.233241926199808
Mg 14.643217641840684 14.363133640742129 14.011099157554481
Mg 13.118687680929018 14.036753771444591 11.349239594388662
Mg 11.22270473502718 9.039648264940872 10.27330496067187
Mg 11.285028600409479 11.091340668498054 17.77092199611004
Mg 11.572099946577467 7.677584506399008 13.056322546951405
Mg 10.37029567241747 13.067424068992409 12.036116411427592
Mg 12.92923474875479 18.27506292211709 15.16080128851775
Mg 11.77444986691647 9.703099815806672 15.191310616878646
Mg 13.474775439110378 16.870517944145394 10.065332226620566
Mg 12.066904590414941 14.783428498396505 8.407290182088774
Mg 13.220571811560074 15.578278789138157 16.63784475952578
Mg 9.763300806562137 10.074770209341459 12.992410564179881
Mg 11.990326732670203 12.774278187326784 14.68534605073743
Mg 9.212632976855165 13.765268494417148 9.11088885112483
Mg 8.839653843194965 10.919960145851539 10.187405003795334
Mg 11.850039036273508 15.643172748015672 13.63507211212387
Mg 10.702856839583129 13.932248594194338 17.288875920027568
Mg 10.268555336953474 19.471324245261307 14.729824689532736
Mg 11.868882021006694 18.458826327840804 12.23946688249467
Mg 9.20838146134961 11.495002340052048 15.65841140602037
Mg 10.572464353775873 16.039759192743716 10.708661509553792
Mg 7.8893840230778025 14.853839805451038 11.758500699203287
Mg 7.525500161668308 12.101011404796637 13.054103647953383
Mg 10.357650613130927 16.761860740833026 16.181143871308972
Mg 9.107352338355893 14.353323508037414 14.646169249412015
Mg 6.516752663646454 12.667402300365413 10.225422769875
Mg 9.200386464872294 17.118622099443044 13.283377485956674
