5
Energy = -1.54504965 eV
Mg 10.322110205462748 8.09089635471999 9.430612594568478
Mg 10.916855846783585 11.166783697605391 8.970173446698633
Mg 8.058752634840719 9.618185229379856 8.06691443345879
Mg 13.560768908711637 8.484478717867718 8.813098578303395
Mg 8.339852033904112 9.497520034915924 11.507129624531842
