50
Energy = -50.27188001 eV
Mg 10.060761884371157 10.203192958031119 6.8121328990109005
Mg 11.510892760360004 12.820976756679597 6.275579410023033
Mg 13.052937643001044 10.245573532227933 6.698723451811443
Mg 9.329592348088044 14.398969796849148 7.704656330463752
Mg 7.806947700304643 11.854355143067686 7.995179029149811
Mg 14.782650643176156 14.916183606600615 10.17541292838364
Mg 12.20563244173723 15.05593006617104 8.299170129412103
Mg 11.908486904891106 8.789515110627528 9.023726240369347
Mg 9.032975616515857 9.639936091160909 9.746190148591223
Mg 13.878586636453692 12.53823843829742 8.490367983883868
Mg 10.907532684669167 11.957496187071891 9.178739945793216
Mg 14.966837775572868 9.638712600387203 9.098960145721824
Mg 16.193945449553816 12.24002321989338 10.386609069713904
Mg 8.475127241515718 13.510095225153645 10.538664605621118
Mg 6.573808765339587 11.213670211671248 10.757737793139675
Mg 16.83277085467051 14.894402717803223 12.376066309093073
Mg 9.992396838273828 16.086505694769397 10.295114878109818
Mg 12.08204380095961 13.824360906007401 11.256173185882483
Mg 15.254960828513644 17.61578561955346 12.049718322300837
Mg 13.065061228414601 10.897770073946552 11.085116782581167
Mg 10.89591324464463 8.498554623613817 11.866576790177842
Mg 12.79645234060352 17.09375503168666 10.46889793465958
Mg 13.837688798442445 7.782441572595051 11.419104578797434
Mg 15.915926075041813 9.776019014731322 12.10600286086056
Mg 10.250974160268674 11.53631939940837 12.157456252665128
Mg 7.946154153559064 9.356140275276946 12.660382668570673
Mg 14.602874658327377 12.535050100629022 13.037389304128649
Mg 11.139196061693973 17.39571238656366 12.859942963538789
Mg 17.865304387075078 12.062854632674862 13.018697691397891
Mg 12.348141089969847 6.487018838650011 13.708421228796679
Mg 13.627209539228748 15.351422805877032 13.287594035065574
Mg 7.606228453331766 12.381796249581146 13.491289022908724
Mg 12.728478234643553 10.10743042961701 14.036135583776312
Mg 9.562905862091203 7.459448368940777 14.40545032375487
Mg 14.896753253935696 7.869831377474508 14.372207177118813
Mg 13.500479083887425 18.083304733236368 14.705469666249858
Mg 11.829932438748969 13.034827975465234 14.327450951950354
Mg 9.572861808230558 14.747234527762693 13.116875885880615
Mg 9.601993073215404 10.425297620885242 14.962630452398944
Mg 16.219776579129682 16.846742169789945 14.70474318064839
Mg 16.195712104759707 10.591976469529119 15.032061416837518
Mg 16.48453685068948 13.840052528191913 15.170330432745132
Mg 11.141065989174363 15.998180335891268 15.515792584407626
Mg 11.786100813461148 7.986940156678879 16.296834988562523
Mg 14.087680631519412 12.387801939631938 16.263623033778767
Mg 9.244001668034896 13.32778111102394 15.90362030355408
Mg 14.054603532588645 15.43914309540404 16.32020246639519
Mg 14.23089670885492 9.43013131903518 16.990772848334917
Mg 11.533375641928844 10.986998304483281 17.099245240906267
Mg 11.699716628578662 13.95498256174164 17.56764245411768
