52
Energy = -50.44122263 eV
Mg 12.82896194668699 19.072218871393982 9.240599991309042
Mg 16.212185155329053 15.24675775589335 9.464672388315776
Mg 18.793675498685243 14.328721660460802 10.838529179354467
Mg 13.546025480610727 16.12529511260634 8.33817811479176
Mg 14.623153963404135 17.42473584585356 10.965678166254364
Mg 15.031829879246228 18.349338421139276 13.975846174180907
Mg 17.36368457676461 12.410043276876747 8.861727032363104
Mg 16.838155815450136 16.0854897941288 12.329036350888751
Mg 11.122649573337126 16.79691126985272 10.015639695325865
Mg 14.398682568837753 13.033523240230027 8.323264965557506
Mg 18.93405428008298 11.416007519125147 11.258208627139513
Mg 11.416121432199361 14.021386865909376 8.528605344884074
Mg 12.210938495134 18.502773292573476 12.30923563465354
Mg 16.07766281612761 13.044791141875825 11.618757291603591
Mg 18.09257493924415 13.66902938312692 13.892618284587176
Mg 13.893208791593246 15.75431519761814 13.556524478570738
Mg 16.644745808485617 16.037043820395027 15.24838042483498
Mg 13.26633416852507 14.323343301573413 11.05673469076681
Mg 15.439144325336475 10.429780479106201 10.102850950820683
Mg 8.940757971927987 15.015489899352307 10.591843871725585
Mg 12.32402630293031 11.400142143081156 9.736209166680027
Mg 15.025542878559023 13.214092181598469 14.596869286620715
Mg 9.306032992560102 12.26755374403538 9.756321081195193
Mg 10.86845130652246 15.705245233394383 12.959045966467606
Mg 17.109572141733935 10.757660063655853 13.51360656539537
Mg 12.254510712637348 14.700215423120248 15.742177047312053
Mg 11.866358106137323 17.781222196936902 15.127528731827036
Mg 15.96620868072179 14.290613508066345 17.50602020681795
Mg 7.944924454635962 14.600385427654187 13.34280848856509
Mg 11.028934699155371 12.756697913447317 12.253515873387137
Mg 15.418502344653634 8.565842591171792 12.557061254978004
Mg 16.994387301864954 11.70446257255086 16.425632317418902
Mg 13.828944789345286 11.250166759960756 12.531683548035614
Mg 14.172462748543149 16.904004066682628 16.759197227191937
Mg 12.87229257561941 8.757412509267525 10.924030326059457
Mg 14.136362715393455 11.733687321976182 17.61819481139756
Mg 9.295730373162701 16.075062566505494 15.652776691785416
Mg 14.885106271497268 9.820120112739087 15.293832183273317
Mg 9.904226080097324 9.63153448496343 10.65197488365689
Mg 12.383423510534447 11.883261681642018 14.968593973730087
Mg 13.233400642855957 14.63143759403314 18.567076842703276
Mg 10.301190819004109 14.702024542544024 18.115794476131434
Mg 8.3778039631813 11.568701340437116 12.89001258743919
Mg 11.11205090248981 9.789905463186907 13.388382133554334
Mg 13.045498024567408 7.5464438308999435 13.935381564369344
Mg 10.569736413257548 7.0502090491443035 12.005993137912517
Mg 12.179088620500274 9.297845272386036 16.44676408862023
Mg 11.060866574317886 11.811144283715889 17.765772630622003
Mg 9.675232077190875 13.11956053735958 15.276749653179468
Mg 8.25889502266159 8.60829126823001 13.238748419357607
Mg 9.27183263562279 10.195314995241102 15.752528460412105
Mg 10.253070765978174 7.218287419234754 15.16679912092445
