52
Energy = -52.25269332 eV
Mg 11.042197944170033 12.642647603108097 12.582963509194126
Mg 8.053430965489598 9.368155588049168 13.520002208222072
Mg 15.53928716486391 10.070439453705925 14.917529887506772
Mg 14.522480714188333 11.182962527767408 17.574658194264256
Mg 9.379151466334719 7.997642655264347 9.059666770177984
Mg 12.986623622020863 8.938385818376998 16.45687040695737
Mg 16.550088434445996 12.09092697212687 12.867707686835825
Mg 13.895794368240121 15.286817689031048 14.706371948049783
Mg 11.216887160554945 9.753493065889934 13.927111048390975
Mg 16.647813854023838 15.073964522122084 13.504530267936241
Mg 10.102722797621 10.192586661331331 11.056238758737802
Mg 11.366270756432687 11.451641648487506 17.0443970236628
Mg 9.089514369748796 11.874420040805811 14.996066976129182
Mg 7.195996323409763 15.25651358323966 8.450269968231293
Mg 10.050578922143707 15.573016107525623 7.752960552880727
Mg 11.074004887704604 14.157105201983134 15.406121902421757
Mg 16.491849341117053 14.547902112839141 10.557589950972082
Mg 12.952773785536628 16.100658967458152 7.056702483110763
Mg 6.587705186650188 14.758481743244422 11.249165104247952
Mg 11.585962108289877 6.6396429445363685 15.213058204314212
Mg 6.956956614058306 9.589471645316873 10.572158526270478
Mg 13.444703618815202 10.285081972110921 11.983454617751748
Mg 8.758658597989406 14.672490515122831 13.410674306930643
Mg 13.920873117356477 13.530477855029682 11.990997139191892
Mg 11.575519892797253 15.782319675272884 12.847605383921948
Mg 8.871084227897631 6.66522255957318 14.370702628548571
Mg 8.10655610360625 7.053699891164499 11.603654852674843
Mg 7.749282520848695 10.189884024042927 7.787410323468384
Mg 9.314658871537205 16.068587739510306 10.718527551525005
Mg 12.416115112871843 8.733339494028327 9.409337915511378
Mg 15.633806164472142 11.535652535989735 10.013432840854628
Mg 9.734960863904654 8.85629964459564 16.35108691160849
Mg 13.83790433677576 10.775350606671182 7.531732931967096
Mg 14.163477294285336 6.927209577499589 11.039859340406988
Mg 8.74000136928081 12.917133907717432 6.958938629959947
Mg 12.24068945131185 15.22299720209198 9.916666322382408
Mg 15.441531112841792 8.719928637200015 9.109836162881455
Mg 14.497147368489463 16.5991580567077 11.97659439462574
Mg 13.253868109597555 12.025686690521427 14.588290455687925
Mg 11.201252336173097 7.28080362399253 12.02304625022746
Mg 14.974520464771715 16.7211387870531 9.075586878184811
Mg 14.634203179192303 13.791419576835532 8.250224320976551
Mg 11.82111224084508 13.269903088769972 7.0141790481541095
Mg 12.405480871916286 12.021230610042112 9.815694278739464
Mg 15.937716338119836 13.10955276199431 15.680897560477943
Mg 13.915483113140182 7.789719228929588 13.833894123201175
Mg 9.579276072957029 13.099596745178957 9.84755574549673
Mg 6.532296630748623 12.42543698227554 9.315360679251219
Mg 13.396709263158693 13.818178779573676 17.331360961475824
Mg 7.752950774926727 12.074491477618663 12.21113459443134
Mg 16.269262571787795 9.066855370155166 11.984698384213564
Mg 10.664830478356922 10.498299088338422 7.609446344574338
