50
Energy = -49.88522314 eV
Mg 16.373646994275138 9.376009708550558 10.680372536199288
Mg 16.80914342929698 9.524315997778123 13.56827748862727
Mg 15.609563988496797 11.976695386590121 9.505565987734595
Mg 17.110524788342033 12.16297591349665 12.005368641072842
Mg 13.658890056786074 9.343890524374869 9.39592200276513
Mg 16.537377448782035 14.883114360261557 10.544121768112966
Mg 14.196518184610422 14.304380964674694 8.464887401608271
Mg 13.793005822969219 11.313970141884251 7.1611245506597045
Mg 17.88734134483361 14.820870717843531 13.328615308561492
Mg 13.864512542412003 16.610752517400744 10.464189158620359
Mg 11.620053836568697 13.110129665934227 6.948339701791629
Mg 18.28098693022149 12.06241305093801 14.846026064235103
Mg 11.54484623471955 15.724622894167002 8.544735256670283
Mg 14.582695026160001 8.073393228580745 15.000145070496796
Mg 15.784412239930345 10.62006204134824 16.11182650683162
Mg 14.080972767832765 7.83665238010809 12.04744160358566
Mg 14.065623477161482 10.889277027962644 12.596491459830746
Mg 11.077896809103756 18.06302790873968 10.377552427572484
Mg 15.44745881619796 13.298674906369163 14.492201129441845
Mg 15.235126730267412 16.366613914128653 13.209711677984897
Mg 11.24734712851634 9.17140533270319 11.159392026462406
Mg 12.337603474382624 12.216392429766469 10.13303017602111
Mg 14.08516558797608 13.791321021348605 11.84903850382655
Mg 10.833730587207423 10.425871869223116 8.341397181368329
Mg 16.388767517215914 15.88665207633206 15.966243525199788
Mg 19.137357555101715 14.6438409331042 16.115996667509307
Mg 12.915610673911527 11.831351662808752 15.316996222329458
Mg 12.74388886034108 9.388586873855544 17.10242207635099
Mg 12.429034219702078 17.533909800301334 12.98620516238758
Mg 8.77206143218214 16.3072605977972 9.754066380837429
Mg 11.907082823243181 8.86347157614 14.06681461131637
Mg 14.351613728872046 11.585290332298856 18.542787757763723
Mg 11.199008985436153 14.890287818136436 11.515166468400363
Mg 12.549302507137922 14.635990479305656 14.288824338405126
Mg 13.514863668375419 17.022999288995646 15.838936576667425
Mg 16.841557435541098 13.172898753279693 17.40984287917911
Mg 9.647027951088607 13.361137224871957 9.192888596734212
Mg 8.880539879580983 11.08623681774923 10.919062770519027
Mg 9.072956712971305 9.236694098252837 13.231159924154237
Mg 11.071035609831997 12.076410876394847 12.95003724516824
Mg 10.078688057350568 10.518549467136468 15.753685210050557
Mg 10.521544990414165 17.373234342228898 15.30447611712014
Mg 9.206533633453844 17.14520206212171 12.590817600382936
Mg 11.463003997262984 12.227156199730139 18.042909366115833
Mg 13.963140422937226 14.242687903379032 17.151619232954747
Mg 8.125251638242956 14.048270619972795 11.722711911561019
Mg 9.442814162746195 14.650624147014259 14.352680856287003
Mg 8.005945171808078 11.954039237753 13.931120287083132
Mg 8.908025646919329 13.040013266506177 16.739372855996812
Mg 11.046629058471048 15.162451599443559 17.182451416972693
