54
Energy = -54.07678633 eV
Mg 19.889203447718238 14.00493912062724 14.430946003320102
Mg 17.9346562971747 16.457504969613876 14.437624705904721
Mg 15.806127518999459 18.765883195342177 14.408230586152392
Mg 19.413615283477153 15.52983056185479 11.975952312398665
Mg 17.820499876853173 14.166536210630547 16.67541384283935
Mg 15.447565179878012 14.221385889129499 18.668808858817165
Mg 15.502216086460766 16.13159122215703 16.259012633379406
Mg 18.858521324590445 12.507531470273959 11.99346902049109
Mg 18.382358473814183 11.425554979435482 14.984162063484975
Mg 17.19332885450409 17.61388545518726 11.700579159208077
Mg 16.57332611518909 13.727298516470102 13.853188071267976
Mg 15.827514984701047 11.902943430736299 16.773198038059004
Mg 14.821557689076121 16.220631913273905 13.212865975765773
Mg 13.951029556707526 18.714429114488603 16.89383173101915
Mg 12.90088722562535 15.740880697933976 18.039541562037826
Mg 17.515155489606258 9.844817816653194 12.58298157545424
Mg 14.616543029821013 19.170918975766124 11.634894169605294
Mg 16.84435795689141 14.65598026385399 10.85372475616853
Mg 13.879718989476752 13.778831546747574 15.296365787409641
Mg 16.304859559766392 9.13363807920249 15.410175864057196
Mg 12.573745427965818 16.620137427254715 15.146420419232246
Mg 13.011970439901614 12.624699101940514 18.183972931858786
Mg 16.075859817823297 11.670581959073532 10.728875382039005
Mg 14.637881168500932 11.149089079552219 13.675632642973797
Mg 14.55436578591553 16.537179050130682 10.112310837997532
Mg 16.18688661241191 7.2719716610058995 13.077545888544075
Mg 12.812226790790767 19.49929687301044 13.998063834522657
Mg 14.40675679475634 9.180908228160911 11.396093004052588
Mg 11.088521412517535 19.427236459761147 16.476731200819113
Mg 14.140282454782055 13.646311341722377 12.013758086652649
Mg 10.005620786759287 17.957315052018878 13.974737142883969
Mg 9.986949835374768 16.773273227344294 16.974117731540897
Mg 10.967809230309891 13.991181089697816 16.34258604449431
Mg 11.675648205494387 9.085341773058506 12.818533415522994
Mg 11.630053144042016 14.559285125479462 13.233887158027272
Mg 13.694436327513758 7.67741758733832 14.543956078058121
Mg 14.478753436989825 13.660795269903028 8.930797785174708
Mg 11.674994729150137 11.756809873651415 14.283230018269922
Mg 12.139592355251109 17.364163171325995 11.851214251683222
Mg 13.378871016809311 10.144204170115465 16.376878057238514
Mg 12.105825694620377 11.71563939399127 11.208166585813807
Mg 8.332154583918653 12.630943050228147 15.715834460766498
Mg 10.454378961296824 10.922674308227293 17.046630182881042
Mg 8.666679400824988 15.36257477154214 14.573739076289929
Mg 11.052878517310216 8.2880941836766 15.73494205444396
Mg 13.768846974814421 10.73098961957271 8.797635954694394
Mg 9.414773250010978 15.844913371379482 11.65815339225667
Mg 11.911323192128055 14.807282403908513 10.090654712470922
Mg 9.078616723614152 12.866647634075955 12.770350367367431
Mg 11.816902874791612 12.79933520132006 7.690988239287053
Mg 9.288383198468578 10.229325019885088 11.262486822500223
Mg 9.08002314047054 10.07118267780481 14.331011057967476
Mg 9.560004483406018 12.911724584260078 9.722013912387947
Mg 10.767624890857505 10.233799318157779 8.69752328463563
