5
Energy = -1.08052908 eV
Mg 10.781269045000853 11.179280439254656 11.506255053782144
Mg 9.049622735739241 11.42822969039264 8.61958158495554
Mg 12.213798675007935 10.240316527908666 8.871597496966958
Mg 13.967139031123155 10.0529978665176 11.755368198732919
Mg 9.147814653391313 12.143566477066026 14.242996034956857
