50
Energy = -49.67710679 eV
Mg 13.986274417003973 15.816550144938876 6.456211968325867
Mg 11.358237398688017 14.71199531323778 7.077541647859988
Mg 13.783942263506594 12.906589812881746 7.4551772909699725
Mg 16.233520115587623 11.795406751649612 8.892409766787948
Mg 10.977756802224478 12.125570465320216 8.611333773847976
Mg 14.820533333881016 17.539660982504202 8.604911893372956
Mg 16.16535682364398 14.817057753893282 8.345803071775318
Mg 13.381963255501232 10.898120362546347 9.881535977573142
Mg 9.805668307167654 14.814513449694163 9.59936942494562
Mg 11.767289944247942 17.127370886779502 8.912505185157759
Mg 13.448534031612482 14.807148741388612 9.880081932238706
Mg 17.926433759029415 10.669792672175506 11.066611117440042
Mg 15.6883206007796 9.007971981150897 10.153370913463778
Mg 8.697298745960678 12.088009007461801 10.610760945852967
Mg 10.761087344168194 10.007459517412967 11.063578740649353
Mg 16.125654549359073 16.32225124125662 11.101209145305022
Mg 15.001971418163137 12.679010009565188 11.776827903533393
Mg 11.598914201159605 13.131302096520093 11.526427887390026
Mg 13.532345977224914 17.88914552074482 11.328024010373014
Mg 17.715567323107997 13.731393467575005 10.925379929473477
Mg 13.25652496384642 8.41230555465443 11.91971972684824
Mg 11.065119875789321 16.295885624857434 11.986756999409163
Mg 15.733323820564665 9.735123562999137 13.121722317492313
Mg 13.719013147560961 15.157528308550395 12.94333523738003
Mg 8.78974752960449 14.333773629723739 12.583147731626202
Mg 9.569843233556812 11.523717920491197 13.488851994922618
Mg 17.527535480757123 12.064048689841872 13.671308536216136
Mg 16.817779725779882 14.967856590981912 13.695508296136959
Mg 10.833816723572255 8.843288184559874 14.037650806049918
Mg 9.295805058984676 16.549345661305967 14.451542051353545
Mg 15.24621874922163 17.650118482123215 13.822361544174832
Mg 12.785777429623835 11.088891562213933 13.248245117549574
Mg 14.491460120751961 12.97780675419633 14.870191398640973
Mg 11.385905909163975 13.892200693830697 14.486685579891867
Mg 8.486593017903125 13.572014331478659 15.556749285443994
Mg 13.676816043487491 8.70087860041443 15.16860533566757
Mg 9.224187802900838 10.476283830280442 16.292341464777948
Mg 15.980059508963597 10.493757895910882 16.10178818769374
Mg 11.257410828659015 8.182816431469776 16.919373599438078
Mg 12.298534850376344 16.82032745910151 15.145357403832888
Mg 17.18384641348312 13.438828095451479 16.304737964139424
Mg 12.132638416860935 11.421330471860292 16.233394380800462
Mg 15.052091674131786 15.745858938379449 16.109899241584312
Mg 10.007980616088755 15.767708918415767 17.13053931614616
Mg 13.644528133280394 9.66910845832706 18.1748134990823
Mg 14.912621480924365 12.593324148492187 17.98467134875205
Mg 9.926130650744701 12.899819159963105 18.12261793563209
Mg 12.631181158057577 14.43120038540988 17.32079933381525
Mg 10.636709729099568 10.01889753973583 19.06710901136437
Mg 12.446547570572841 12.182054212611948 19.5635231041315
