52
Energy = -51.45631246 eV
Mg 10.195727750716875 15.780260341401249 8.66567065083918
Mg 13.108199693670342 14.9441765715528 8.134430939115559
Mg 15.59828333644849 13.75495064047785 6.890271090276887
Mg 10.718275695557537 13.04545476375553 7.8911636797016556
Mg 9.190135032885804 13.42568087617039 10.595949649743607
Mg 13.430871895892292 11.754425180104215 7.433530860347801
Mg 15.871645345616793 15.663848098193142 9.310666595860846
Mg 8.076167596276797 15.200791600123472 12.866349537203455
Mg 10.109666667623367 16.655208378448393 11.374757257269856
Mg 18.007200268535133 13.343869432522878 8.580492369556355
Mg 11.84302196596516 11.182448330847473 9.939595865319548
Mg 12.147369467867186 14.060637046594277 10.941535672891135
Mg 13.208079215578467 16.846681153281345 10.684742175586086
Mg 14.900181783296969 12.925482587268066 10.031053259988267
Mg 16.396437133010412 11.019241182667782 7.654157575277028
Mg 10.670015875356343 12.831612438113 13.459523712465606
Mg 9.471390961217427 17.089832217841852 14.853140117200063
Mg 9.819309048794109 10.362424546779659 11.975717910633465
Mg 7.519832000890147 12.309043078622205 13.08782706585213
Mg 17.732892191363575 14.182323060004798 11.364370181850147
Mg 14.575455907251595 9.827888508727932 9.734318944927253
Mg 11.282961319192053 18.71348846254544 13.134261013552628
Mg 16.57642348316831 16.99849550787127 11.89578035753833
Mg 7.3650270555101995 9.280616201255675 13.295784110976003
Mg 12.505448361620402 8.847173376334336 11.873217547322135
Mg 14.714378093415956 14.65925987332736 12.651831474877582
Mg 8.97302644039142 10.869783981109018 15.264394170179882
Mg 17.3830117260243 11.094675934593143 10.582440258391708
Mg 13.563453095891655 11.747040235007205 12.470376819554698
Mg 11.942651104715017 15.541349472267086 13.70123981643433
Mg 10.156983484952983 8.060302935386188 14.012734897270898
Mg 8.779833435056455 14.128029443508494 15.537211930229343
Mg 16.690222358841798 17.83570372451229 14.901882627961747
Mg 15.680117510364482 9.349159383108642 12.489339313259585
Mg 12.081783630152666 10.29020873671194 14.703224349054922
Mg 12.256763037110636 18.00302915628277 15.856283628994703
Mg 17.37346232177148 15.06342814951335 14.229392818235377
Mg 10.738910364963976 12.50558690361166 16.987767438204045
Mg 13.913922598603122 7.678960698584832 14.271727654643387
Mg 16.592727830850023 12.181018235150733 13.355822275838333
Mg 14.127039850474878 17.752832926346837 13.439273653225802
Mg 13.284539754383461 13.068942998066317 15.20996735057493
Mg 10.684821948095324 9.118561895135631 17.067700980228178
Mg 15.12489162132326 10.42817227366357 15.352586357314651
Mg 11.806589247514461 6.535554517647047 16.013986238946693
Mg 11.460463439370093 15.373794824886536 16.867596990170387
Mg 12.977626288254148 10.957049056785268 17.778584105850527
Mg 14.489008745510318 15.853977764213568 15.924600928484965
Mg 13.922324694266624 8.269250949406636 17.245166459614815
Mg 16.178695399026115 13.252369450346615 16.299194822313133
Mg 13.785409781798036 13.80851742987826 18.214367603563822
Mg 15.776035913294592 11.150736197228495 18.385669512356706
