5
Energy = -1.78141132 eV
Mg 9.297732994873465 8.44781117572212 8.241174075510575
Mg 11.764182133231127 13.009647120705091 10.532748969575474
Mg 10.019787123805628 10.49523499412877 10.66092824830221
Mg 12.824432537498112 10.46650740073598 11.876123906048072
Mg 10.623333014485851 12.11026711260245 13.21849260445785
