52
Energy = -50.18561893 eV
Mg 20.80571716715836 12.063130840421318 17.345753110091785
Mg 19.530452715017287 13.95687074759199 15.389728899802465
Mg 19.608242217839255 10.97304633531322 14.824972363872527
Mg 18.618388606073598 13.830580738661036 18.315232087170344
Mg 18.42660840626163 15.823910152075863 13.43869549190024
Mg 18.090712034047236 12.454546972876424 12.558609583241015
Mg 17.98409193449214 10.811831615264191 17.62255271856089
Mg 17.629347999923898 14.739353161392081 10.732003483169711
Mg 17.32125129915301 9.241983123527218 15.033738597027595
Mg 16.96533595746712 15.31660232875766 16.228247173845915
Mg 17.274641065337622 17.874786625337094 11.62138091630819
Mg 17.022150306155098 16.935796263300396 8.640856657215323
Mg 15.33950267412893 10.836839475438977 13.20555946096354
Mg 16.834795030713625 12.383082477769955 15.307390750355488
Mg 16.5410284416877 15.666306906684557 19.28207185108745
Mg 14.974411938910855 10.18250568950808 16.799769912744704
Mg 15.308010317720644 12.564925999542753 10.738462966657107
Mg 15.696440515885921 14.358302585946094 13.325071989395818
Mg 15.95350474896952 17.386911895317937 14.389632238046405
Mg 13.754312753398416 14.606440225373207 19.6125730767729
Mg 15.565312821038422 14.294943563400581 8.392256583342569
Mg 15.086994883490744 19.03350208500657 9.700905503680927
Mg 15.705374971141076 12.918343831059026 18.023203431402315
Mg 14.918075032092839 16.052262507621517 10.908746124887339
Mg 15.495169818312197 17.791792770419793 17.430531844945587
Mg 14.79882022685734 7.973276224260278 14.625870334364649
Mg 13.15956437593163 15.96666012478024 13.471143527710298
Mg 13.916963356265384 16.775283521116137 7.98334704597935
Mg 13.93446093331749 15.392368643904971 16.420359079124495
Mg 12.663228953536882 17.195762460668995 18.496107533567034
Mg 13.744855694377252 12.660362587817374 15.447125628508758
Mg 13.019276589999953 11.776875203147927 18.52652062659693
Mg 13.297751482184722 18.40711480857467 15.43279576147434
Mg 12.68286049126664 14.379068113154823 9.489234237428228
Mg 12.815326978858966 10.474173573741236 11.232624774138534
Mg 14.136712855734098 18.811190286165687 12.475475802265635
Mg 12.901643168206446 13.182015867288786 12.450517205120581
Mg 10.968270450024495 13.953426949183765 14.646397500325435
Mg 11.417803730151237 14.197062832636187 17.734889693705036
Mg 12.712826066201401 9.953773488771912 14.323224151043247
Mg 11.080886300813793 18.198632857896293 13.182997374808473
Mg 10.589216828639843 12.521908484105452 10.345334276674901
Mg 12.29739477789345 17.479455982676633 10.48857730293433
Mg 10.87606913922502 16.724622993126307 16.118815762209373
Mg 10.991392115436824 11.390493427191542 16.37009636977171
Mg 8.819105939087232 16.202826468386807 14.026804962652932
Mg 10.40015190502795 11.192251997813239 13.079060282166536
Mg 10.730762976872418 15.324945015009645 11.771252292642055
Mg 8.385189130046552 12.025826704382224 15.139211864833586
Mg 8.679877046418992 14.65559624349891 16.69235427361221
Mg 8.477414516551406 13.440165539523615 12.425372622762996
Mg 6.50541172044375 14.31227142786766 14.588353507522418
