55
Energy = -55.72537854 eV
Mg 17.40308232569007 17.17912745198239 11.975532233808154
Mg 18.417905284812566 14.522119384183686 11.973427236990121
Mg 5.823398568888304 15.182411679140664 11.986272836296912
Mg 16.223836376015306 15.442865763821548 9.808297297261714
Mg 7.364447857602163 15.461958119962596 9.580224269899475
Mg 16.927919036569303 12.528465558323864 10.40807174198221
Mg 6.765984540456333 12.649636127363323 10.465796354967294
Mg 16.932333881672587 12.526323241558188 13.541633903246112
Mg 6.769074765833665 12.649241608392886 13.502753711261136
Mg 16.228287701383994 15.441532869427935 14.144680921589615
Mg 7.368690601530522 15.460504444099595 14.389590884251112
Mg 14.46730849084792 16.86464893315669 11.978489736754096
Mg 14.617928013495385 13.308415591432203 8.443507728248965
Mg 9.116741757816609 13.263867828358245 8.49969936652865
Mg 15.29724849701619 10.454883545947405 9.150703503891116
Mg 8.390782573615168 10.47088960303966 9.175296939084836
Mg 16.44363671613571 9.884400246507282 11.974514965628257
Mg 7.386168665489912 10.051828530239339 11.982813613783382
Mg 15.302827997347352 10.452818862276034 14.8002863604497
Mg 8.396585052926538 10.467845375291553 14.788915822331196
Mg 14.624982534768717 13.305841090934068 15.510561830795014
Mg 9.123855853019116 13.261280348664028 15.465067529916642
Mg 13.26491050084692 15.909198213917056 9.247572685598492
Mg 10.318997140456855 15.89786784646624 9.266716058241784
Mg 13.271031253852671 15.907083163365078 14.711414285166148
Mg 10.323722185381778 15.896500539048727 14.697930962416933
Mg 11.709286218258955 15.892941029332574 11.980750761817879
Mg 8.762342634089952 16.62902998224106 11.98393234420605
Mg 13.399840941620202 11.124933139960063 6.763200318411682
Mg 10.383946088235685 11.127938861046479 6.80217804606033
Mg 14.21536870899437 8.274985798568553 7.427635945907412
Mg 9.625192778464646 8.3216308537746 7.482933057573439
Mg 14.570106178428611 7.873591229822252 10.466760625320108
Mg 9.333782763977494 7.950700012374805 10.493917693914957
Mg 14.572964625890291 7.872062083666857 13.484327989529802
Mg 9.336574647172213 7.950084528398578 13.466983180805144
Mg 14.223837583295715 8.271270519222796 16.5235416678595
Mg 9.632849983330988 8.31823101329802 16.475415088085544
Mg 13.409110926669511 11.120187768787849 17.190612384009924
Mg 10.39298478180214 11.1242054135824 17.15853517192057
Mg 11.853893470518765 13.76142208040753 7.373249458114493
Mg 11.862268727069567 13.757974390462126 16.586147600475122
Mg 11.903637960929473 8.637254701106837 5.7669300390820135
Mg 11.92759948340351 7.155967084050664 8.963911629921988
Mg 11.945586932382524 7.889979405528974 11.977926190093713
Mg 11.93395080130082 7.153944500023361 14.99102774195302
Mg 11.91543041339745 8.63225685850826 18.188486581862207
Mg 9.346346250903062 13.591264225867109 11.981934420569681
Mg 11.935075846302613 10.223443857495841 9.39249551883865
Mg 11.939486670615958 10.220597868837135 14.564884093348773
Mg 14.462763645958583 13.750969036763575 11.97741180185451
Mg 13.493686442226386 10.825989206866915 11.976801659173798
Mg 11.907350961057329 13.074964603930562 10.401930330862166
Mg 11.910592965862055 13.073775100924985 13.557582755475567
Mg 10.397244477095981 10.767747677890277 11.980149286869523
