5
Energy = -0.70500754 eV
Mg 12.472034875402201 12.098220197026867 17.832569366624448
Mg 14.897210863959053 11.819009481573808 7.345630458861836
Mg 12.73975870345503 14.903409437835203 16.2080564725628
Mg 12.150515702345414 12.428237567452832 5.275359343840129
Mg 11.095010979814257 12.418978275097196 14.903601678586709
