50
Energy = -47.07160037 eV
Mg 16.312342138498753 10.946312337024178 17.613351208245263
Mg 17.08723108248966 9.020669177404333 15.480057580326154
Mg 13.614543447695208 10.491726071675966 18.83169616738638
Mg 14.961132989940085 13.144803597023975 19.64948594238849
Mg 14.033842845382633 9.351073268475265 15.768251918361083
Mg 16.541642632915128 13.948543474254802 17.040793214134748
Mg 16.103771448526803 9.81173027687072 12.655585247660925
Mg 13.416738610689507 8.402709425346528 12.412344413831507
Mg 13.799548339171967 12.384671860860081 16.361334747522662
Mg 15.927232865246879 16.82326192210089 15.86409112851518
Mg 10.615356137151256 12.088340047233467 14.376814918982106
Mg 17.44239348078657 11.591797656741125 7.1659833777093835
Mg 11.970911820919692 13.11649981550608 18.68338854310815
Mg 16.388573454510524 11.87062422560338 14.766277801462346
Mg 11.406747281887336 10.311898549707204 16.88630822959366
Mg 16.435532061938154 12.917682384636324 11.972265602966592
Mg 13.898415690811687 15.32090350924607 17.585561497521212
Mg 17.54091283188813 14.60388847228191 14.31445460752981
Mg 17.99166825511494 13.525100347704797 9.315278634072058
Mg 18.445944099634083 15.365134803129823 11.575891152628069
Mg 9.735864789137981 17.37817444854909 14.690229563675253
Mg 9.405577295516814 12.529292741524449 17.123684598586433
Mg 11.248574792768995 9.12413299160784 14.159800484404887
Mg 15.37240019616167 7.0267449809689495 14.20732155473826
Mg 12.894147752842777 16.848254228970365 14.997204610191762
Mg 11.747577037834615 19.639070086747818 14.883806876042868
Mg 7.447295696728926 11.995571473440883 14.822656315519158
Mg 11.303266928711288 18.086154501980886 12.286457954203348
Mg 14.461718885322817 14.359533938357204 14.167405295910152
Mg 16.249224012346037 16.935168690296702 12.825098259941543
Mg 8.731506995680466 10.211034961316459 12.838513899858174
Mg 13.529033933797885 11.393361704669385 13.429937952962398
Mg 11.411065244751331 14.513257749669343 16.051341281957164
Mg 13.732971211268987 18.264799065676186 9.875537030212508
Mg 13.427268828407453 16.11143214712243 11.827064593201076
Mg 11.236074843705076 14.713315362010146 13.08574211091594
Mg 8.505968140632579 14.762211191362308 14.698230048581287
Mg 14.10574135068174 18.961647144342706 13.060883337326649
Mg 16.898602282105347 10.692998431334297 9.909251707024618
Mg 15.769650460863984 15.52690416980314 10.143699586959707
Mg 8.653337989008987 13.147301502500682 12.142207754775992
Mg 13.501918350014568 13.271195508881457 11.12554723055623
Mg 8.810864305392634 16.224029509006424 11.766196911721126
Mg 11.150681740986453 11.19036852816125 11.361498871484196
Mg 13.909592531213237 10.311531971015656 10.216900456181197
Mg 10.928765155490554 17.011755960448937 9.606023658921794
Mg 10.622400516770128 14.066946894309766 10.107945762397003
Mg 15.051686689716904 12.837196351143733 8.429376445182534
Mg 13.157675961842223 15.221309625731841 8.718791338725454
Mg 12.114542602544518 12.100551696058407 8.461743041046478
