55
Energy = -55.51304844 eV
Mg 13.472067037730802 13.832644738937379 13.345108215161448
Mg 8.392860512597183 9.04041229574974 12.210423831837012
Mg 13.175957040458716 9.056399879803092 16.084229300164818
Mg 8.22967106280739 13.844500520995766 14.845263950070876
Mg 13.58309068649873 12.248262272973184 10.600022430743168
Mg 13.374299258463948 12.286976147906572 15.988312388450563
Mg 13.4193436903806 17.001530603914205 13.28206306014127
Mg 13.639362460413448 15.521252354439577 10.605085086173895
Mg 15.724594623754259 16.843354528471977 15.138491474344782
Mg 13.493901543416865 10.70538692989716 13.369060021986847
Mg 13.691647681872498 8.98050733994812 10.647889375240313
Mg 10.671339391272243 13.863488942719865 16.799602523283113
Mg 8.248481580705668 10.63104544963978 14.864110908527122
Mg 16.215163932473878 13.841444315025973 9.908019423432583
Mg 8.176486548579794 12.259170590136332 17.338675699072834
Mg 13.486866620516027 7.540769003904917 13.34731722404911
Mg 16.241842858618533 10.681973335131667 9.928650967222351
Mg 16.080112807897045 10.773632683860741 15.231661617078753
Mg 10.883498424101688 12.253703337558122 14.129539650433692
Mg 8.399356855179075 13.71786077290597 9.547856993738703
Mg 15.780604852956694 7.755192150993205 15.21352475067547
Mg 10.763876429445018 15.495822633187087 14.11976902943034
Mg 8.428116289045319 10.674024059263683 9.563063198982794
Mg 13.14090438975999 15.518522471662903 16.034694790951765
Mg 10.807331778394962 9.011478822472354 14.160077386312956
Mg 11.135464848833095 12.216173203394662 8.696913339171948
Mg 16.057008306179846 13.82598536839691 15.205901013318552
Mg 16.232439608383206 12.281509349941846 12.565399825937673
Mg 16.184474650951344 12.248322273677816 7.381106283152793
Mg 8.677876114726558 12.179059400022936 6.726298092263677
Mg 16.066971535548845 15.425069174080669 12.553323088994514
Mg 11.215897865853837 15.429687913029063 8.69660664601157
Mg 8.743609104761278 15.204859015285392 6.885718395309687
Mg 16.111985158666286 9.138010317081042 12.602491644131545
Mg 8.606331087117354 16.745145840347714 9.552225368104123
Mg 8.806503776751173 9.15553738650701 6.919206624312505
Mg 10.984258325022894 13.791661557666053 11.385347749570188
Mg 11.27201502838501 9.005457393334495 8.736636772237432
Mg 11.259340972522375 13.78037430347693 5.93959355154568
Mg 10.934768586303148 16.960369148661496 11.406989871892096
Mg 8.686011877815838 7.650447635715971 9.60567899527207
Mg 11.290651992657413 10.624030415033955 5.955892831577998
Mg 11.00687526960808 10.677276746871279 11.405301955591755
Mg 13.77690783360629 13.97769187360628 7.9536884465531585
Mg 13.780206074796821 12.223587314650468 5.480245427171433
Mg 11.009545343055242 7.510038702542351 11.468437666336538
Mg 13.80498709319089 10.495215785799218 7.975788113967468
Mg 15.790307645179338 12.319355274447194 18.021621344887556
Mg 8.26066870909208 12.215088692281821 12.217144304155278
Mg 10.683908977258985 10.674741349508274 16.819165180046525
Mg 15.620338054609348 15.336246182117081 17.831901851710025
Mg 8.347118802063292 15.389162265938124 12.174364398403494
Mg 13.138901940765024 13.85728810196874 18.70931743353979
Mg 15.641284616077414 9.30154461101572 17.884130671543918
Mg 13.143118728395915 10.772263507617469 18.731606101300997
