54
Energy = -54.20626334 eV
Mg 7.706880104653397 13.692751130333773 10.310377233456304
Mg 8.034945596198796 10.898488440056823 11.410755745583048
Mg 8.963931894913749 15.760348609467501 12.02307914814494
Mg 10.141720615555336 14.968119046985697 8.966161255116205
Mg 9.548819875883446 12.074033526742927 8.607344012079961
Mg 8.058746425518038 13.297088199637056 13.493233582253996
Mg 9.168605506599718 8.327824692481771 12.538135136288927
Mg 7.573549881244412 10.476534830585678 14.402973682402278
Mg 11.851844586493746 10.608552854759802 7.512112018635384
Mg 10.792086828253773 9.969034386990486 10.406814495833567
Mg 10.790576232714134 17.74667786399513 13.30563012130998
Mg 10.38730467731777 12.851572193726048 11.610920791755003
Mg 7.822580535269629 7.5533116912037235 15.096517192183198
Mg 10.19631115560923 17.81765764742512 10.130264963037733
Mg 12.369291464643727 13.790501177916878 7.02523060731859
Mg 12.774535490769944 16.446348062607836 8.607830674565912
Mg 9.544193585197783 15.51289128249175 15.069577360864532
Mg 10.626714417789575 10.737681850251278 13.914323303653822
Mg 12.217480278113596 8.133018929861146 12.305179573767553
Mg 12.681087544012467 12.741416984661802 9.79450843990912
Mg 9.308948595610438 12.568550833599588 16.102965789377734
Mg 11.956206846736508 15.458289928380237 11.407705801774766
Mg 13.713531992760169 9.561901502657225 9.688737730373504
Mg 14.582601960187132 11.672068151438967 7.558119156038118
Mg 10.767588011545188 7.900576487585171 15.18676183871704
Mg 8.926328987544279 9.616560808745914 16.935626210202464
Mg 12.78816957356113 18.6049269966872 11.043983833994876
Mg 11.860917680729113 13.74921308583758 14.048729599910567
Mg 15.192688493256343 8.980640618556574 12.339340809428501
Mg 14.408759822195753 14.005268209993586 12.09775002347535
Mg 11.728398255148123 10.671520244539527 16.936800270405776
Mg 15.091152197553084 16.66465688497458 10.650252148036564
Mg 15.894638533517869 11.635998807697309 10.329310813885694
Mg 13.151693649879578 11.22332190166069 12.330529025013773
Mg 13.546145174417171 8.719243436610464 14.961460222372537
Mg 15.112984994301517 14.356546581030985 8.722973792548384
Mg 13.730280308197633 16.94349475912056 13.386437368011505
Mg 12.207933299242912 16.683966246227946 15.946031808854972
Mg 11.831787989168207 13.896472519888809 17.151907594160274
Mg 16.156327503185736 11.922760646978535 13.285261302493732
Mg 17.223623019270008 14.430513984575724 11.091070352622241
Mg 14.45943213736848 12.737979774755939 17.9734658490822
Mg 18.110132093191584 9.290807091188336 12.324329069094496
Mg 16.49190246124683 9.456007434756525 15.112291080659869
Mg 14.678634753131838 14.446865811951607 15.127035662931602
Mg 16.58733790584958 16.31511132300732 13.452406204035354
Mg 13.931010762421186 11.60327511263892 15.241636121385941
Mg 18.881779795856207 12.032622818054517 11.674344150510283
Mg 15.246000706283551 17.57779701946993 15.986824711167987
Mg 14.21560209925088 15.727662756936972 18.03678722307649
Mg 16.905642199314226 12.253623233247353 16.304009246940637
Mg 19.05624321600845 10.99285820027015 14.557101210459324
Mg 18.221776070948593 13.963501380757506 14.154739484558952
Mg 17.03906392089188 15.289734162108722 16.783562853567837
