6
Energy = -2.44186662 eV
Mg 10.02383360991069 11.751841176589098 8.428946422528755
Mg 9.730276396791536 8.596024787498243 8.004065076091006
Mg 8.129033318979817 6.5959914446561125 9.961809863273865
Mg 6.578296678038785 8.93637582243515 8.47363055623112
Mg 8.870128917425797 9.679104100559249 10.573151225742642
Mg 12.033229477631659 9.805461067040827 9.923195254911157
