6
Energy = -2.21608208 eV
Mg 13.331453815627759 15.554163136038365 12.209016676479429
Mg 11.94838368156191 12.676674702633841 12.011763990865111
Mg 12.439017180256249 9.937849967165235 10.890781609279744
Mg 9.656684978290519 10.74548517585514 11.729560376594709
Mg 11.850399622490263 10.154048713884402 14.111571092822157
Mg 10.891149257684551 12.16443432725415 8.976423569024591
