6
Energy = -2.28174906 eV
Mg 8.059933176111088 9.01093898373265 10.795064171414063
Mg 10.94746942494677 9.689534042341302 9.984628979836492
Mg 8.558037192304099 11.011296571829137 8.550152005604215
Mg 12.452656759289711 12.124114122115797 11.799773238136051
Mg 9.146062156227226 11.816354915359346 11.414103355450738
Mg 14.040303946249917 9.563931889240541 10.676213550428015
