6
Energy = -1.13695621 eV
Mg 13.279214875429963 8.791268205053484 16.577215626086787
Mg 13.399539557953373 10.763902224931627 14.191336946448201
Mg 14.406391034963763 12.46780910305016 11.993413555376799
Mg 11.862202526328941 13.214222640104678 13.46540227359205
Mg 13.097572677231627 15.069777800848454 11.48474153052623
Mg 12.265849637832739 17.96783519685787 10.784361442780693
