6
Energy = -2.39680699 eV
Mg 9.635176750102296 6.895648097366616 7.655955481807664
Mg 9.66050241425237 9.995755536249087 8.259601146029178
Mg 10.535072568618487 12.829833814457642 9.373743869757856
Mg 7.614420209561184 8.120955446040819 9.754704542833913
Mg 8.86833966293455 10.867362508711908 11.26105644180115
Mg 10.489045545804396 8.093001748446813 10.497495669043255
