6
Energy = -2.05607389 eV
Mg 13.915726838928595 16.96208734646428 13.09522431278344
Mg 12.631537728789974 14.105414701289591 12.316357683306038
Mg 13.16955825174603 11.803937523837796 10.37811565837502
Mg 12.985272401213562 8.647799338874979 14.910353393526343
Mg 12.092857824497491 11.215949352495858 13.166165892359693
Mg 10.304108868983283 12.560201996649836 11.081694712391934
