6
Energy = -1.50189912 eV
Mg 13.478960076299995 8.79014245878548 10.11384904615073
Mg 11.552949503826724 11.107757219446261 10.48188154302731
Mg 11.099867883270909 13.628166588623385 8.849024664056202
Mg 9.75845260293304 13.512411153098412 11.574835355275916
Mg 9.814550831652758 10.90055040144579 12.958218843693707
Mg 11.363063800209545 8.474047270974818 12.272854342421263
