6
Energy = -1.47879032 eV
Mg 13.962578060562972 8.475248678473084 12.284071254517754
Mg 12.801148447034782 11.19157802455491 12.828479117143655
Mg 12.3758364071163 14.152266558895112 12.20083473068036
Mg 11.592232222148217 9.3147045426202 10.578462982142991
Mg 9.604161157774643 14.85186329462202 11.165738584032754
Mg 10.251668793107394 11.930464793891495 11.424118265908303
