6
Energy = -2.14012931 eV
Mg 11.130924404088919 7.4152569116046605 9.592790418038472
Mg 10.798631910906243 10.281717112957288 10.85073089485651
Mg 9.690163498383493 9.729637563619457 7.873679798285368
Mg 7.948066999385911 11.342979864352444 10.051367921752398
Mg 8.52008808969292 6.721547608452405 7.980601019320781
Mg 6.548093134441509 9.14482897591299 8.286797984645714
