6
Energy = -2.39901942 eV
Mg 11.188850607767796 8.125911504546002 10.608495009131298
Mg 8.401619214975135 9.111335509867981 10.887364356198958
Mg 9.82808843712467 12.447475319380814 7.419617643350484
Mg 10.577874375151758 11.183816180856356 10.232282024826706
Mg 9.627228319263022 9.277557868769575 7.818185576199327
Mg 10.528011013766866 9.935733103538436 13.120461811766656
