6
Energy = -2.39763443 eV
Mg 11.130743841665998 8.26752027106033 8.318492505274037
Mg 10.96170146796015 10.513549552343948 10.255173175484352
Mg 11.04508165973094 7.527640539608202 11.385572689373973
Mg 8.491367757466374 8.740151841390796 9.97844196412937
Mg 9.040280449902458 10.815686018265726 7.579264391699166
Mg 6.215256887005741 10.740501418949346 9.069217020571598
