6
Energy = -2.23445524 eV
Mg 7.829843934181744 11.182900225422866 7.750013447904928
Mg 10.436163537399528 9.742028465057768 8.284616631166037
Mg 8.160077752536438 9.87266770645238 10.485920682040605
Mg 9.687877852672596 7.3164843682492515 11.759704070027352
Mg 9.763686486271325 12.324905996593726 9.785827132516697
Mg 11.260571631658827 6.741079607499821 9.0869676706933
