7
Energy = -3.15339113 eV
Mg 9.875736088656446 9.616910115392693 5.995506495240633
Mg 9.04197339195142 10.99913517445676 8.714306689149826
Mg 8.032377375355864 8.008717267330983 7.828884188865779
Mg 11.007903955221575 8.90434419003694 8.848669875960466
Mg 6.550381877284331 6.775847401459138 10.207187862903492
Mg 8.64304937514319 8.817411885803363 11.143034378347386
Mg 10.8749123163792 10.903968345511892 11.288744889524187
