7
Energy = -1.69281773 eV
Mg 13.317422133551348 12.538559215105131 10.176092333867846
Mg 14.44237133904939 11.850118438249522 12.962847463363993
Mg 13.036762083870013 9.807533123089831 11.07078656550017
Mg 11.863056400635436 13.583340561494834 12.940285321630707
Mg 11.61717743844877 10.845553973499653 13.806093093716122
Mg 10.469005339219537 11.547915344080701 11.018901610111458
Mg 7.621766326511436 12.24839571436563 10.137634407459236
