7
Energy = -2.96650984 eV
Mg 12.52614383547776 13.306622237214286 11.3423975327321
Mg 10.507629941694214 10.877374512922982 10.96182027978397
Mg 8.024333525702854 10.87996848130499 12.732283985856089
Mg 13.35068411683705 10.719943607546094 12.3890433912026
Mg 13.051943476134102 10.987073169106639 9.23976191419622
Mg 10.276958187172568 9.693324225414743 8.162318849593673
Mg 10.845261447913733 12.11864829742207 13.755328577566676
