7
Energy = -2.55344921 eV
Mg 13.293806370980562 11.548861801214462 10.903939871420327
Mg 11.760298457469375 8.913133851275058 11.883417125909737
Mg 12.365988908548836 12.509056883132427 8.155237293973222
Mg 10.371685557396946 11.079920429237669 9.976509550726783
Mg 10.799383277536528 9.359960566389585 14.688520175035931
Mg 11.37301133929851 14.041696108919949 10.506938125879527
Mg 10.983974702127302 11.712355324971023 12.91354262758037
