8
Energy = -3.97513494 eV
Mg 13.817105135240856 14.06432713751719 10.836305046785913
Mg 12.920072853856524 11.19616287217047 10.337310740531285
Mg 12.47135884910198 12.663360243261861 13.311018783834198
Mg 12.511926298926122 8.500153474042655 11.731347176121774
Mg 10.62301573651995 9.400467740991829 9.403000710788678
Mg 9.385144566153242 12.893638557010032 13.892260766641092
Mg 10.23307169936224 10.479261944499195 12.237291305360925
Mg 10.725421563146714 13.595041097663259 11.143769939140988
