8
Energy = -3.89311882 eV
Mg 7.075171387548981 8.971958832443509 6.784863425207019
Mg 9.903094225738728 11.020204794290136 6.868071338552871
Mg 9.774150261320662 8.177388357564576 7.742255410818149
Mg 8.057363344930183 10.490819467435692 9.13861112954613
Mg 7.301434417338654 7.3696781085533445 9.703088537552619
Mg 11.234493289532207 10.241969737589462 9.813984210664158
Mg 10.46082650842444 7.152023630693407 10.673828629014842
Mg 8.872888040583458 9.255378546847057 11.9547187940614
