8
Energy = -3.64665839 eV
Mg 12.863708578314863 11.249665700017246 9.714714853473591
Mg 11.793335326135699 8.728186160635296 8.498616891177447
Mg 11.19737594410472 10.778539371309058 12.145165818979185
Mg 9.607213669392255 8.465462795241669 10.780766421038647
Mg 8.974789988197324 8.435919904650754 7.701314967474295
Mg 9.859744243861291 11.151211621280963 9.207480416005195
Mg 7.08115098622917 9.824264774122762 9.56939520902808
Mg 8.263312019356269 10.988033195997962 12.064192753559595
