8
Energy = -3.71183998 eV
Mg 10.294762828735763 9.072728869811773 6.9002035544621485
Mg 6.122581631264235 7.3446155901882255 6.9002035544621485
Mg 9.072728869811773 6.122581631264235 6.9002035544621485
Mg 7.3446155901882255 10.294762828735763 6.9002035544621485
Mg 10.294762828735763 7.3446155901882255 9.51714090553785
Mg 6.122581631264235 9.072728869811773 9.51714090553785
Mg 7.3446155901882255 6.122581631264235 9.51714090553785
Mg 9.072728869811773 10.294762828735763 9.51714090553785
