8
Energy = -3.86386815 eV
Mg 11.673234672511526 8.765706147004778 8.750624277459224
Mg 13.12853915508761 11.409210414264766 7.99519619057258
Mg 6.7133751751221435 7.936142914281912 11.781168448695595
Mg 10.586615281565718 11.259926441061635 10.060419259624604
Mg 8.384376496253527 9.18250246984821 9.243604134749823
Mg 9.760572685873926 8.556486895488485 11.858114511213826
Mg 7.726260261085853 10.792058110527307 11.807836240814009
Mg 10.323493143630238 10.83241523450333 7.0020018442637415
