8
Energy = -3.43976711 eV
Mg 12.909091794641215 10.262183387422164 8.988575283259477
Mg 13.840828500091263 13.078508922747531 10.01768495967074
Mg 10.82938957151207 12.044734210944439 10.37728733200011
Mg 13.097809324194767 10.676119603077678 11.92806460852621
Mg 10.746343999721333 8.875637833424632 10.798346210981837
Mg 12.148692788006576 13.557759355856247 12.676620001628358
Mg 10.243111301257711 10.945133496083875 13.163486075039359
Mg 9.921416529561169 13.502290460775244 14.65977198242352
