8
Energy = -3.74295926 eV
Mg 8.555144046721656 7.389985675528436 5.4795162794794665
Mg 8.633294351793406 6.923357623563041 8.551380902522848
Mg 7.2811159354426165 7.31851639750888 11.260400164182407
Mg 10.370288585523074 6.879343646537822 11.062616480387817
Mg 9.006804203269347 9.992899335317752 7.119747913816446
Mg 7.8451504422113425 12.05902779155097 9.045297401946906
Mg 9.1270317564583 9.598393989638321 10.359171415980546
Mg 10.931670378818641 11.588975690235909 8.872369441683691
