9
Energy = -3.97800067 eV
Mg 15.179459260724153 15.140552062277958 9.857638099548565
Mg 13.269743861046088 12.756454634660853 9.70892134780365
Mg 11.270445835430017 10.451673327460249 10.356325663046613
Mg 10.83557424806335 11.202265460039428 14.256606238910615
Mg 13.402984897946565 11.420342676037189 12.488269150636086
Mg 13.840981516366712 14.406329577041397 12.459967387782461
Mg 11.128321778711083 13.214766899259915 11.892287660107348
Mg 8.799239879132863 10.384594576125991 12.193500199424578
Mg 11.093151946350748 8.580601373580077 12.794152089637798
