9
Energy = -3.85168983 eV
Mg 18.53275534506367 13.122752090891524 15.265002613953687
Mg 15.633600175580968 13.276275696379807 14.325009079663054
Mg 15.073054256191915 13.209436140957383 11.199933832885922
Mg 13.169998039375413 14.73719704798288 13.235581892234048
Mg 11.899856595552647 13.138397574085202 10.952631752396494
Mg 13.316779672282662 11.701811238167899 13.340618278170293
Mg 12.975769741121114 13.26633905841054 16.0517949364162
Mg 10.620985496925163 13.184129951394137 13.905795936912824
Mg 8.992515809425749 13.740232350031466 11.439432822554599
