9
Energy = -4.23596634 eV
Mg 12.498527659591211 7.912698647204535 13.3608242894759
Mg 10.757737321989413 10.732322488758319 9.877910231549755
Mg 10.588357979454058 10.252848464605902 12.963825619773356
Mg 9.230198610084862 12.873420238451134 12.030008623821441
Mg 10.96553292506673 12.93237401869229 14.61339618696787
Mg 12.365156023610428 12.773053283078989 11.976413970542968
Mg 13.442401164909478 12.134018479099915 9.177900797223234
Mg 13.30043547294921 9.83109067462548 11.200650379776386
Mg 10.842314470998762 13.738076763905331 9.490635045444844
