9
Energy = -4.38823748 eV
Mg 9.703320215399122 9.91086158744157 10.574671721551299
Mg 12.341080899424588 13.738909942823607 12.643452181067108
Mg 9.17126747190817 12.492349642309154 9.0088442265848
Mg 9.533501038160063 12.854182916270926 11.954791489994614
Mg 11.556255318215849 10.63001775220728 12.941940347521015
Mg 14.38004365957207 11.345168249265022 11.85900270855555
Mg 11.940991297069832 12.026514262312466 10.04393381540402
Mg 13.526269162897755 11.982959650095845 14.748613932722332
Mg 12.726900899495496 9.02110199842981 10.524028439761377
