9
Energy = -5.28941663 eV
Mg 10.106466389786176 9.542672344783925 12.802929094402607
Mg 8.41477251581107 11.369280372032618 11.02719746339427
Mg 8.230151360524479 8.192885455627533 10.793445759195905
Mg 11.502366626553188 11.230636782468942 10.663048748795314
Mg 11.131835987127369 9.853990810383495 7.814193360080844
Mg 9.751646147529138 12.510766657975442 8.51436890242379
Mg 9.458932272673731 7.29494462979801 8.130013221415524
Mg 11.316738278924996 8.049599118467727 10.424445284256679
Mg 8.045917469747339 9.998940417403325 8.161965701392155
