9
Energy = -4.04657284 eV
Mg 9.395892790244396 12.097663723507734 13.564829382213544
Mg 9.856652054034832 11.94478862840727 10.53427902268021
Mg 9.187213593349165 9.44729191594194 12.180780342970888
Mg 12.136908163413064 13.8515041604987 9.784670017687104
Mg 12.040524490221388 9.69667642908621 11.076047687973215
Mg 14.197541013913325 11.736927166182523 10.29884613355015
Mg 11.451326784604378 9.975591895361484 14.071794857338332
Mg 12.256861813334638 12.511814809125562 12.543443288516889
Mg 11.937623116102607 11.19828509110661 8.405853086287582
