9
Energy = -4.84061005 eV
Mg 8.77387750699402 12.358923105555697 11.43754416828071
Mg 8.968744727605438 9.500947672951112 12.241115549803219
Mg 9.870307399252123 9.852530090327878 7.418481805122534
Mg 9.451446489895437 7.776992507757508 9.687744573797145
Mg 11.347201470926564 11.179306013851905 10.366346601112166
Mg 7.608546174461124 10.188344213595395 9.543608233921512
Mg 11.703173449660262 8.469402344949694 11.6839068344684
Mg 9.353293188261294 12.54746178105206 8.551646381267467
Mg 12.269757775708278 8.767743284732438 8.798129481081759
