9
Energy = -4.02886546 eV
Mg 11.415190876693934 11.92986207832269 12.966255056131295
Mg 15.365904329772576 11.706333585632704 13.190701674890343
Mg 13.261531441398436 9.918736929827027 14.352776170163509
Mg 13.455795719776884 13.011320168547787 15.203513583069675
Mg 13.369619387118284 10.318529541739498 11.349985723053381
Mg 13.42252292599921 13.54817225196452 11.342484914778058
Mg 15.088719338488017 14.884065484079732 13.532639516587016
Mg 12.040591498409684 15.087656434754905 13.49217839119689
Mg 10.792572715524056 17.89367050530033 14.189404478658245
