9
Energy = -4.36128615 eV
Mg 12.016151413045833 6.985064477616951 9.00827682117863
Mg 6.746446239320448 8.492659259945485 8.539682290879487
Mg 12.852998254070604 13.054897201445034 10.095512224342299
Mg 9.6042408289969 8.735664348560231 9.821943135564519
Mg 7.621795615450125 10.851434594794764 10.37836767854959
Mg 10.243215042348332 11.817459532564138 8.73699398056918
Mg 10.605784363398708 11.362137651180891 11.60929117756368
Mg 7.0615461148283 8.015536647354114 11.534424925456754
Mg 12.612445691131201 10.049769849128843 9.640131328486312
