9
Energy = -3.59412855 eV
Mg 16.606665925157888 10.279315904011451 14.80328840129613
Mg 13.774916512187268 10.829697695049006 14.103850672427397
Mg 10.892513229907237 11.70891810731971 13.079748461943414
Mg 13.465035895709264 11.87390630816885 11.248911769722978
Mg 16.149217449670388 12.580536905066872 12.91650656529222
Mg 11.221347101460358 14.030142385749759 11.200996397571126
Mg 13.216763128668767 13.789628589368133 13.57400995271964
Mg 8.194435397975624 12.779159053582871 11.826335243478844
Mg 8.757747228035504 15.170884660972128 9.968350619138274
