52
Energy = -114.19550311 eV
Ag 15.716247165858373 10.715838854189565 9.118969917040568
Ag 15.26512995236919 13.588129118658902 10.10069176742141
Ag 17.108073723377153 11.911741713764874 11.41563994184595
Ag 14.05049781119003 12.586688109714553 7.737735722378572
Ag 14.408062358023043 16.049437700824836 11.283485313447603
Ag 13.23047674349507 9.877528016059472 7.864470359212486
Ag 12.69523870582319 14.690536551281461 9.350727861398632
Ag 16.241643670903297 14.383056590187255 12.660591517281212
Ag 15.496919883436888 9.632509743206864 11.730897185481146
Ag 11.956116632526047 11.525842130420674 5.976706257505204
Ag 12.10656958236123 14.244564204482172 6.594630159694407
Ag 14.788754801738314 12.056053799781067 13.03025621484297
Ag 17.04335412902569 11.341493136932357 14.3311920607937
Ag 13.700630648979336 8.313450770476488 10.172092235711611
Ag 12.89599205561421 13.84793350071603 12.057484535656283
Ag 15.994331304076852 13.754609436725666 15.386710061529813
Ag 11.276570106863385 12.283600864486273 8.570821754482893
Ag 11.758884705384496 7.514607522939999 8.360127896976588
Ag 14.101493963708153 15.374622607353588 14.249585550607025
Ag 12.107970347882373 16.519243638544808 12.740296822663945
Ag 13.389160652678104 11.52999617146629 10.369686361709046
Ag 9.997222398121473 14.834554201884508 8.250196772367312
Ag 10.28680884999389 9.777835857982248 7.3753183213579785
Ag 8.899202791381859 12.330107766036171 7.237588391410132
Ag 14.95545849956497 9.39475055790118 14.417524205713846
Ag 14.774720720283756 11.459619162769185 16.240107211908644
Ag 9.131332258945184 7.945787137529417 9.263202224612971
Ag 13.495591596459004 7.52699707040552 12.878098406845016
Ag 10.329252537093938 15.17710804069171 10.99492391547868
Ag 12.696975707965365 10.149674438827747 12.668404866054502
Ag 11.214512363128323 7.140627072787759 11.189214189172606
Ag 13.474696877008824 14.112625170125 16.73903780696981
Ag 9.455883383898096 16.700436383481108 13.327567403514623
Ag 12.575646455900761 12.48802487577152 14.657673705122285
Ag 11.197556255198188 9.727057389691208 10.117235262969526
Ag 10.46057652771495 13.987299201991599 13.620266533377116
Ag 8.32219837850012 13.422415649153788 9.949668143822851
Ag 12.423293966650345 9.699056305046764 15.528418344502189
Ag 11.546500509721172 15.849917535448183 15.447370809668616
Ag 8.58941749613492 10.702983373751966 9.52632302489743
Ag 10.69235931104189 12.239797617935091 11.315486775544171
Ag 12.340343250116046 11.606286662587342 17.564495914203942
Ag 10.806338249908936 8.206415592978317 13.764266585460353
Ag 10.33570225177342 11.012565865303793 13.781899423921207
Ag 8.973843009004224 8.9752205780236 11.837043570806642
Ag 7.9367535470920005 14.397652048293608 12.578161245729442
Ag 10.55183628670667 13.433754714553032 16.557202888101607
Ag 8.67883696450149 15.17884382581145 15.48175061372334
Ag 9.874605204588143 10.65020103403608 16.528132072866033
Ag 7.9898337306351666 11.593349627715131 12.201456584440553
Ag 8.27219800165841 12.48859929366735 14.94288675010335
Ag 8.103055682584717 9.606951695958731 14.444632190644178
