32
Energy = -66.05743839 eV
Ag 14.281283117062346 9.423781410485592 7.938611207591825
Ag 15.204983235086845 9.780977216280782 10.562552885343052
Ag 12.013606190053292 10.985751899171657 7.344770031289354
Ag 12.448648612462053 9.920150254584112 9.965216469815648
Ag 14.131848032048149 12.005002581217692 9.022030511571476
Ag 9.649195629187375 12.572246126969617 7.085889963068831
Ag 16.17006506688694 10.17892698362852 13.2117914105832
Ag 9.966603939546367 10.973769812771378 9.300729973506453
Ag 13.424789347804833 10.350256461633316 12.778053116314995
Ag 11.802759560387264 13.501259000236258 8.58284338219945
Ag 10.699125624486726 10.569657112942485 11.989142937248145
Ag 15.292572760827957 12.321736610706035 11.649551813593813
Ag 11.355557575883802 9.65305630571717 14.569469870841909
Ag 14.019960999494712 14.582910581512653 10.12475652402249
Ag 8.122591254311104 11.461696430766114 11.323677438482145
Ag 8.668827229374687 8.887594728133 15.31802667214749
Ag 9.84160414359896 13.39221112243301 12.355789573808542
Ag 9.115380937999507 13.628155815053598 9.611501056827334
Ag 10.087350265700778 10.645531707961272 16.80170538978327
Ag 14.79812922173841 12.221794392088428 14.522417646082113
Ag 14.717261071394857 14.643152091324916 12.86328123754176
Ag 9.029956331060845 11.30482367387983 14.076087154445018
Ag 11.199280711633893 15.264940587130662 10.662748551054868
Ag 11.807768272304749 12.39057613280068 14.130968318135318
Ag 11.684523732942887 10.84009029532521 18.918543775098215
Ag 12.813738203759499 11.553538598627053 16.540890266192783
Ag 13.337425211696008 16.798064732167678 11.764538962419534
Ag 12.447130700215368 12.725375588027068 11.346832243367533
Ag 16.01772855613022 14.765506679884554 15.236629235785975
Ag 13.28101790357272 14.209426034960702 15.70061912218917
Ag 13.997445914381988 16.664097334259466 14.58766416021431
Ag 11.867173915085685 15.079274965439845 13.408002367553635
