37
Energy = -78.74203127 eV
Ag 10.53725930722919 9.274977874651048 15.569206757407338
Ag 10.571829425777327 7.459736673333696 13.219687331726105
Ag 12.726558879257249 9.25244832339544 13.816900065393177
Ag 8.23356448385655 8.382999731409415 14.370431583853483
Ag 13.110296437741088 6.82496845480103 12.463434903071336
Ag 11.531436820246713 11.690259913896622 14.702699413924044
Ag 10.75868711332947 6.780175874715899 10.428618383491928
Ag 8.47211281968264 11.253049553915718 14.831395137746242
Ag 8.361358078631545 7.886263888511178 11.538046612525942
Ag 9.76064711033019 10.124739256264046 12.680167853305065
Ag 13.5328366130834 6.868630337929324 9.787937092654614
Ag 14.141478028649646 11.523710113857126 13.148397473245076
Ag 11.971551409866779 9.22658532074845 11.026884101343214
Ag 14.738166109768683 8.984094758464854 11.692772721938484
Ag 11.649955969453421 12.05796869779524 11.99002878815095
Ag 6.419570467552542 9.772143131504668 12.926107349973387
Ag 9.703427602571367 13.465555411629374 13.464861432787988
Ag 11.787727836962695 8.418094265950204 8.235077757089345
Ag 13.985586996589939 11.301795887370613 10.354090260266462
Ag 14.519352222421293 9.167225730550285 8.742583235387544
Ag 7.096840082682213 9.987165610752461 10.283109029410989
Ag 9.029359777828741 8.436511564421956 8.8402610382811
Ag 13.86633168798308 13.838793612668391 11.44222080135947
Ag 9.941745554474466 10.925254586676278 9.906899636607505
Ag 7.589727297588337 12.11665293013767 12.213870710145772
Ag 9.183414665013135 13.746846265703107 10.686712839333488
Ag 12.750989650701406 11.090301685917998 7.789798647852856
Ag 11.75601171830128 13.146118989675875 9.517846121938328
Ag 14.327143832680335 13.369811251535825 8.487813463448482
Ag 7.656878019455279 10.700895062307243 7.690951564435346
Ag 11.355078176996972 15.047713431736597 11.691359817905512
Ag 6.964192144738978 12.691265334503093 9.504152342253954
Ag 10.26045734003254 10.346218125615062 6.947931505483139
Ag 13.047828712371427 15.711323313960667 9.443920460833638
Ag 9.359056887827025 12.920712934580342 7.878122242118483
Ag 10.354270855564605 15.443057703608325 8.761461591625338
Ag 11.926783525179623 13.736250785264469 6.890264124029248
