25
Energy = -49.78562884 eV
Ag 13.161479460224768 12.990531597474979 6.59282257995373
Ag 10.910468001152 8.907287685683242 11.759099710526844
Ag 13.012503203219635 5.779697917627203 9.663569643682804
Ag 13.011101434151806 13.364593774984726 9.307200270736418
Ag 13.206564444187967 10.675251771670197 8.047227440671131
Ag 12.971263232713902 8.546633897648809 9.88478268363246
Ag 11.96519662272885 11.101395355495786 10.514917588069764
Ag 12.7306436291929 13.2855090240101 12.088583010604935
Ag 11.383108336605503 11.192166062579107 13.406033528601283
Ag 13.017046096429233 12.881488061217915 14.733054828437295
Ag 12.156485188071969 7.257015110212992 7.507136092352088
Ag 10.699238785517268 9.44610142028239 8.294813593897972
Ag 10.488134740414452 6.96871945657262 9.760765818309928
Ag 9.233082577125867 9.453096104986138 13.880061113949695
Ag 10.775356075537777 12.222314996285727 7.8485027754617445
Ag 10.426238025909973 13.514791130160045 10.468699879464223
Ag 8.744400778033928 7.183753748118123 11.958468453437591
Ag 8.32198730125008 10.713352735160681 7.590686868003264
Ag 8.416994320473137 8.886260297214461 9.753533367571823
Ag 9.155858933236386 11.2824671799876 11.69529806165053
Ag 8.29381253331921 13.237753377498423 8.63092297092834
Ag 7.201227312027636 7.6351572800021925 14.185568107361046
Ag 6.913096179947969 11.24212870048241 9.97545693779702
Ag 7.724977316253746 13.672732587858722 11.254864674128687
Ag 6.987488562207792 9.465380083531764 12.11103563186441
