46
Energy = -99.67824867 eV
Ag 16.177810523924517 9.625905166748186 13.694665171895533
Ag 16.606692718263833 12.373702915931378 13.310066335130463
Ag 15.161046903043836 10.818198561100573 11.415987807054174
Ag 14.758899352874987 11.534584563449574 15.244458248979287
Ag 13.945943241857748 8.821905352519499 15.058521290870281
Ag 17.17130510358361 15.030377009277405 12.94515933524291
Ag 14.301699070167553 8.06545517290135 12.235378087744397
Ag 16.09884319798882 13.472349027252216 10.81167584011155
Ag 15.273110973618754 14.329513164565155 14.921808353360808
Ag 13.433429427987608 10.44501273420506 17.38767000575438
Ag 14.54651229146113 11.74340453540126 8.896808261832067
Ag 12.71955972026816 10.28699193499236 12.922839882134893
Ag 13.24256151960434 9.408536606878053 9.866427704525819
Ag 11.84334626903579 7.599222537553588 13.57985340071007
Ag 13.277845666144984 13.392687277997545 16.68265773221608
Ag 11.945817578067459 7.198577773348764 10.839541967423896
Ag 14.492801810316738 15.535662561293991 12.358854875103011
Ag 13.73648977679227 12.897892325565733 12.876657616835015
Ag 11.416668581870459 8.75664504670838 16.126844108811184
Ag 13.723217963715266 14.452871298948056 9.805659930531476
Ag 12.221719981068796 12.016683922648514 10.551644398899873
Ag 11.676758695992843 11.460622889408873 15.467346219055045
Ag 15.789968739576226 14.019040049031588 8.04677763232664
Ag 13.057500990704066 13.441701498471303 7.159702612643763
Ag 12.495331336010054 14.954046972588676 14.451879557263448
Ag 11.98212007061196 10.932092799599072 7.798981990967654
Ag 10.528906485211115 13.934467736383558 16.228001222013585
Ag 10.830134850339103 8.519379937834975 8.631408610992802
Ag 11.787615828485395 14.802621811169812 11.73958065763828
Ag 9.971274548302581 9.649971286050938 13.95901148541684
Ag 10.773178790956678 12.329079769098371 12.914042265292178
Ag 11.067217948116411 14.173801415264608 8.993863701258263
Ag 8.854306609347947 11.996932182922812 14.944005313005064
Ag 10.501968495803448 9.59981789255299 11.161967649995914
Ag 9.754907913561103 14.871859060363034 13.69192858369258
Ag 10.293546300368709 12.852527918239959 6.619389313808622
Ag 7.803998226686173 14.486683942305275 15.598908697103997
Ag 9.623931418325576 11.720141297424869 9.292083606225521
Ag 9.370324370486685 10.12820004700292 6.932274662921965
Ag 9.200174456027964 13.930086075152815 11.07256434837582
Ag 8.299916914660804 10.948447764710014 12.178382529792593
Ag 7.278226737049155 13.414423825334902 13.027851931685237
Ag 8.28594107190419 14.025262225375238 8.32779937630266
Ag 7.960337857103423 9.622634178811037 9.621713157009205
Ag 7.165124879205763 11.54464648707054 7.683504870709854
Ag 6.927570958179716 12.418721157344743 10.323098329886026
