48
Energy = -104.01652202 eV
Ag 15.720929588266594 9.599411466274285 11.739155857859926
Ag 16.66040825421419 12.028287081099027 10.460160821862896
Ag 15.692502598839052 12.054144504961222 13.143731288103034
Ag 14.217868289198703 7.909760919906317 10.086606778062837
Ag 13.719187867223226 7.706771377929885 12.835492815374138
Ag 14.343103361787824 9.94559624262896 14.329775749949782
Ag 16.472587642564438 14.514232580864453 11.96512661137679
Ag 12.642312686998169 8.11973804137732 15.523831392118515
Ag 14.778247357875664 10.507009794524864 9.101971413632036
Ag 13.041187078309092 10.269737125144093 11.470050619272781
Ag 14.225248783055985 13.219407384962764 11.044594362398056
Ag 11.36828882382275 6.565883983755178 13.606637416025077
Ag 11.386049301389145 7.911832604040189 11.094341795725098
Ag 14.245055230514215 14.490762670263166 13.709401522708605
Ag 13.20487778923764 11.230331616795299 6.735262646198042
Ag 12.395046806337035 12.134895974068927 9.365519826719014
Ag 12.214994806512902 9.302103742785516 8.66711918166126
Ag 14.542847460937203 13.276266820954858 8.143400424363879
Ag 10.976954367541962 9.692046177397346 13.394613724814576
Ag 14.016679617762184 16.182002454576626 11.462482027146061
Ag 10.4495269056198 6.567163015360164 16.253452656138705
Ag 12.634304671936134 12.143578787405989 13.491833939227869
Ag 12.352484504139628 10.86132985055968 16.089727645046718
Ag 14.555974800027588 12.42499229955413 15.721894280954485
Ag 9.979022521001738 9.34523966827971 16.092672397387712
Ag 12.181461624497441 16.386442623192792 13.71962219368352
Ag 10.36773770745956 10.526649108750915 10.477254018664915
Ag 12.761458610890452 15.186797712683981 9.159093687655428
Ag 8.885058621139981 7.653035779314576 14.190092707035442
Ag 12.202421129076944 14.027953021700569 15.569899642629329
Ag 9.392331393946568 8.602272344110046 8.839496381895728
Ag 11.663777340810988 13.726872735755535 7.094007310296947
Ag 11.798830037123901 14.368446168423207 11.731030632121973
Ag 9.909669813472599 13.181165987098275 9.692255542631695
Ag 9.991799687241894 12.067858026554903 15.22559055664006
Ag 10.456059343481284 11.146201322487896 7.438755022127794
Ag 10.01355628019709 12.399757996497382 12.447264548919543
Ag 8.64151767630345 8.722407846265178 11.642672642597116
Ag 11.389501713887826 16.99789998766287 10.768273680227749
Ag 8.163087021036926 10.361355346029072 13.957081051272382
Ag 8.03379821530151 11.176155967545787 8.709884793121628
Ag 9.997827108119822 15.734601675241446 8.628923773624658
Ag 9.978825430877363 14.719958974194874 14.026054129339638
Ag 8.854313559433674 13.531988668838862 7.1497183346806334
Ag 9.08994196591504 15.208730287654836 11.402125068667168
Ag 7.674081775343671 13.147928103035813 13.749221178819525
Ag 7.617192775019665 11.486580619163533 11.404547864407773
Ag 7.253889959657645 13.776693995343956 9.599066688629952
