43
Energy = -92.12451225 eV
Ag 16.34107213038891 10.776243451209437 7.771099761883821
Ag 12.25690968373625 14.616054138407053 7.641111431279171
Ag 13.678575562053918 9.974398185602203 7.51922444311983
Ag 8.221049471432758 8.552933587449889 7.233273086611215
Ag 14.348248777755563 12.734402641997537 7.6480993173106375
Ag 11.009138447724094 9.210676194814607 7.312350929438741
Ag 11.69152729431139 11.881116038350676 7.778470561394984
Ag 11.235243787955314 15.503214631693242 10.18300885023609
Ag 9.84656388434096 13.66738913935767 8.695668783038402
Ag 15.017764788800637 9.68226006477558 9.943128994291593
Ag 8.994741018097894 11.135745350243765 7.849145540432187
Ag 13.733429036881027 14.334594312137522 9.927648707545114
Ag 9.562640056843776 8.58692488722837 9.62120952291489
Ag 12.107842953341311 9.97701526863081 9.986034920730498
Ag 15.769947602192502 12.383253141750343 10.012135217113466
Ag 8.418623876028505 15.756145859397746 9.867587979345393
Ag 7.342979302003481 12.952029283195026 9.500927563251897
Ag 15.404261459617564 10.98476111122891 12.395671658034006
Ag 13.650278314279221 8.822352563863118 12.143607336021404
Ag 9.836438910864366 16.402680150948747 12.368969313963325
Ag 9.650031183267592 11.443881396116218 10.637947569917175
Ag 14.88986789552531 13.694436362911405 12.29591766681733
Ag 12.671006993886097 15.498712179370953 12.5684953820461
Ag 7.170512538570574 9.955323072067669 9.613066166919596
Ag 6.988313284566894 11.545067326552708 11.865987683798501
Ag 11.09767468727034 7.761926518786661 11.713248684429852
Ag 11.910930371228023 12.912980650331274 11.592235900727342
Ag 8.606824689020835 13.905751102179105 11.859854114203078
Ag 14.960575798468158 15.39495806748616 14.452081372623057
Ag 13.627699557942558 10.455760433793186 14.50503712880433
Ag 11.385959975245598 10.463976881357969 12.758704070174659
Ag 15.60746068845748 12.54974206662644 14.797781194183912
Ag 8.68930767194505 9.228287663066807 12.273339674286015
Ag 12.105441807911323 8.022855661459403 14.335456278457883
Ag 9.044834449405256 11.804242158078802 13.631625949165064
Ag 9.513258670722374 6.903676716670304 13.842212335573524
Ag 10.475837098306828 14.190082717745378 13.926237556474096
Ag 13.056270453283206 13.400885549987423 14.449187474929918
Ag 13.633203288157425 11.917068694407664 16.830775131387863
Ag 9.702494103250904 9.437475864237626 14.980753981348911
Ag 11.11430184408941 11.815837850694033 15.465065697921473
Ag 12.071867604079435 9.519987902061908 16.73088311047358
Ag 10.52135681068562 7.219922659726483 16.475598214240033
