36
Energy = -75.75280739 eV
Ag 11.77278249414775 13.608729374892215 8.888678762425723
Ag 8.939534316682417 10.489821229163084 6.8581308149578435
Ag 7.17662856544391 11.83279254453207 11.330147796283086
Ag 12.038039397331207 14.41012232593148 11.485423920920265
Ag 11.596328054741065 9.287612402645651 13.345201387488753
Ag 9.870340603764026 12.452468568746944 10.990258978261867
Ag 12.050572893086983 15.20936513638266 14.191905594885236
Ag 11.094884664945187 10.969139817088383 8.495727212943045
Ag 9.163256990857821 10.098697960670101 12.38235546340051
Ag 14.789299076702322 15.067996051415278 15.16029285264542
Ag 13.646061447575136 11.782798440603322 7.936682117687411
Ag 8.661403979727785 10.174231482098627 9.62281821800608
Ag 16.098213902647537 9.47743900300673 13.937844873390556
Ag 13.061150850454805 12.956091289711162 15.8234538437178
Ag 10.775307213538538 16.807681042229607 12.142078469145261
Ag 8.326669074728095 12.271137246399016 13.866386058684485
Ag 9.006404917697648 12.892255893745826 8.39033020576035
Ag 10.447769287941307 8.345630405062547 8.05786399300759
Ag 9.51203337828663 14.57058902287197 12.997493278943994
Ag 14.098374826620402 13.535259332578315 13.003408255154774
Ag 12.57584837230623 11.354206603337541 11.04654397887973
Ag 11.039740613411894 8.909043731115903 10.717804086119067
Ag 16.762543743645512 8.902934493542539 11.322158999764003
Ag 15.849611287577542 12.382907680304141 14.853155056902937
Ag 15.751459314066178 11.510374792544082 12.118991331717911
Ag 11.219817938645201 10.841895278595675 15.693570297585456
Ag 14.01813179862899 9.030817269431624 11.837710489670238
Ag 13.143907245881891 9.041747576644177 8.993272699516943
Ag 11.307320609352015 12.279224493916159 13.394889133435516
Ag 11.876685650337468 15.128314577309048 17.044699100440262
Ag 15.401627220758842 10.541736665539648 9.60425687644199
Ag 10.109875118850038 13.549539355139542 15.628253402533607
Ag 14.428590744555516 14.509813185687083 17.797762858168863
Ag 14.400108141207761 13.271523237543922 10.22867076395655
Ag 9.703769935822542 15.125047034569238 10.074718951242476
Ag 13.691221294263633 10.78633042123719 14.142374842146545
