7
Energy = -11.14471704 eV
Ag 9.995740706504815 8.231780078399241 11.283661888498472
Ag 7.498442581703567 9.28783856575316 11.192808722947966
Ag 11.027452094789824 7.05281821556647 8.977289170153407
Ag 11.088276535654423 9.462536411430627 7.587359867430523
Ag 8.825238678059426 8.724256531429761 8.885501087170955
Ag 8.782728181072793 10.81357699740132 7.137465229610341
Ag 6.541436252249428 10.18442222257882 8.7045420146474
