18
Energy = -35.23158589 eV
Ag 11.211887669687538 7.325316839534419 10.30158399189091
Ag 12.09089400297167 10.404655502207346 13.793040570564
Ag 12.285283038029995 9.617326687505178 11.133449915916191
Ag 9.700739133752268 9.53682521088924 12.766541338576117
Ag 8.53188845911952 7.038280651226133 10.705575079302765
Ag 13.784349465718698 11.75105999480505 11.923959343389212
Ag 11.819306550377872 9.491680174976059 8.27624983706264
Ag 9.720176563254723 7.6337553066341295 7.9270707212760465
Ag 7.259187016012758 8.598971964885228 8.725078132172419
Ag 12.554832691504489 11.945449751656216 9.464886844665475
Ag 9.531224826617054 9.634645027714946 10.022012980710269
Ag 7.269532196995608 11.35652207708582 9.115716986191185
Ag 11.03121727726073 12.1616783498209 11.84925955180043
Ag 7.110277649585926 9.370463336361816 11.475704436222353
Ag 9.212340642041179 10.365996542241549 7.322734848813911
Ag 11.364918319926163 12.04058146830087 6.994268705006851
Ag 9.79571015200127 12.557226983354346 9.249654430130041
Ag 8.39092267597111 11.816407531669697 11.635409270700539
