27
Energy = -55.21887085 eV
Ag 12.145004351046031 14.303624218309222 11.717541097564315
Ag 12.501443640421195 14.129401191556887 8.832128477467055
Ag 12.753306416862339 11.899093125288285 12.98481629122072
Ag 14.399839782074382 12.415640033896281 10.74189896122094
Ag 9.808350162609027 14.118690697909505 10.00269984029983
Ag 7.815816172039273 11.889140654214321 7.35857054124217
Ag 10.507477245608685 12.206072706784745 7.700922469621164
Ag 9.951055553585963 12.545840661657337 12.574510433488788
Ag 11.683366026887493 12.018977199057618 10.258803622481013
Ag 13.241081825040343 11.38254850681971 8.098317249506549
Ag 7.177758087907324 13.594379189931095 9.437613824620449
Ag 7.154704520723915 12.380962733507273 11.904426869738073
Ag 15.121354285992508 10.396221913000307 12.633098989925681
Ag 8.933196533634211 11.28809367333233 10.017499479686467
Ag 13.673596487449993 10.598029907457175 15.182488607243682
Ag 13.542830708183399 9.746865365034266 10.367548889620354
Ag 14.741564624846532 7.656900643564299 11.632788176812996
Ag 10.849087403184322 9.940031702893451 11.697609265357364
Ag 6.29636098898511 10.825697515143782 9.610715300279919
Ag 8.300096245227845 9.303088334417398 8.145684632488644
Ag 8.39836383935849 10.14801582454031 12.934662891223494
Ag 10.832802013013513 10.427528925534922 14.482028820218533
Ag 11.090788581956042 9.51229552022689 8.846390878332363
Ag 11.926814216501677 7.4524797339932904 10.888684427263406
Ag 12.878445266667715 8.79434119416691 13.273705148301513
Ag 9.149044486449043 8.141421732685238 10.485033951868703
Ag 10.079913150118568 7.83197501772194 13.182205980349456
