14
Energy = -26.04753324 eV
Ag 14.157145095033938 10.51792938522924 10.320193822027505
Ag 11.672032763280452 11.746612339911925 10.251745398298489
Ag 10.404605268706073 12.397626965924085 7.737813821747271
Ag 9.994722557688878 9.749195569210144 8.303956041442625
Ag 12.640869238112476 10.63273624755488 7.960225200785839
Ag 12.569573230851367 10.293937440397213 12.587614997722216
Ag 10.225857563042947 13.115505455778715 12.093584015671702
Ag 11.84533349823053 8.882335172215441 10.212437147063588
Ag 9.701602713611386 10.494935688790443 12.57149984109883
Ag 7.264547811941297 9.852395628172845 8.860142284424315
Ag 8.866475683775654 11.676436316733083 10.083157988061764
Ag 10.906085851279423 8.093724124496124 12.858372403660743
Ag 9.120458216608586 8.589237017308145 10.631755773407463
Ag 7.092257139107874 10.170034375192012 11.72376956993833
