33
Energy = -69.66967339 eV
Ag 12.76052026903304 14.942448759518724 12.916841164764001
Ag 15.153686046005678 13.883387353062417 11.720604944443338
Ag 10.586549316122927 15.697850915039469 11.366999404227832
Ag 12.993782449428975 14.701469910245626 10.0734951838607
Ag 10.818642282569279 15.53736320380845 8.517198992848348
Ag 16.23864967804866 11.342233962728269 11.228479360815495
Ag 14.283239851875985 12.247830002118462 9.466247830565358
Ag 8.190704646160112 14.20389060857625 11.47353388939337
Ag 14.983622996621802 14.481834351844633 14.471840424374754
Ag 12.161606462009535 13.143475127101464 7.848269360515225
Ag 9.647161017162263 11.73231990147393 7.805625750171543
Ag 15.240828677891628 11.86227097106145 13.773724711826418
Ag 12.665227848990256 12.204195924976773 11.798486196213682
Ag 10.385165533448584 13.42224362657006 13.131673458175142
Ag 10.506294721870544 13.15030836887733 10.165920027601206
Ag 8.374821994300309 14.169548525601556 8.598842391302673
Ag 13.950290742734309 9.74501843217984 10.805244162193631
Ag 12.683778324314526 12.732937537737984 14.682467683330765
Ag 10.29842274150994 10.582823848191689 11.71854785527127
Ag 15.661183101530655 9.23612195956578 12.976756859228471
Ag 10.484996912512571 10.965282726992637 14.512342307023177
Ag 11.836498040485463 10.726218901591876 9.279131794686226
Ag 8.082932306328036 11.812037544873018 12.958597634834282
Ag 13.059239182234155 10.06456433642092 13.756211959436978
Ag 7.955029168567078 11.78737785302423 10.048342289719589
Ag 9.247688963868237 9.368392082853298 9.332623612457656
Ag 11.57926622155467 8.23635958783526 10.520212563667481
Ag 13.48210604967958 7.536990743113207 12.483285583428348
Ag 8.401696807941958 9.173796225970321 13.83371968172441
Ag 9.026183713086596 7.581382730506738 11.588410176541396
Ag 7.118672819171063 9.558102744845467 11.39527607174699
Ag 10.959808016448974 8.248710345387794 13.550932527551035
Ag 11.208672051299262 5.9220387353586545 12.015180262419559
