46
Energy = -99.76987715 eV
Ag 15.486384731331151 14.284106928222498 13.159164916412369
Ag 16.572773061362213 11.652437047690784 13.423246458706402
Ag 13.166105773978718 14.719801879808443 14.715830943017917
Ag 15.089613386084705 12.722609853236435 15.528075457523759
Ag 15.862308482110782 12.570952054219308 10.848730360909904
Ag 15.376752519645205 15.275872253395871 10.56668629963967
Ag 14.912486171581588 13.548277875096293 8.292763370167343
Ag 13.207690215270535 13.714812890185732 17.404281547858414
Ag 12.933516196229265 15.489801495454712 9.276433189984537
Ag 13.807435748113177 10.890348422275366 17.35476960647956
Ag 10.655882761394254 15.661278355236458 13.693298522621006
Ag 12.891197249232667 14.828815274057787 11.95365829065214
Ag 14.243049059801159 9.929818605875546 14.551518246611412
Ag 13.694194792739104 12.106439386942657 12.760471021050998
Ag 14.956966396307436 10.695167936696308 9.004420401793015
Ag 12.139567322347883 13.681230250049706 7.332118517264845
Ag 10.678735654208074 16.391064039569766 10.940204887533902
Ag 15.250536941724844 9.888419568894259 11.749163708097756
Ag 10.689547511123996 14.175478820966402 16.110757823266933
Ag 12.98187821773432 12.500170510222414 10.001827850073138
Ag 12.39144852397779 12.06293795868565 15.281119133947335
Ag 13.699509598522068 11.494316213329855 6.598188145550882
Ag 11.082865685231486 11.837109222738883 17.732260993970733
Ag 11.606519690483873 10.169963093522629 13.295257770626577
Ag 10.94038463572269 12.97038411991281 12.975864868329843
Ag 12.780308359471992 9.746309707505864 10.530651474733729
Ag 12.977268904587904 9.004362872435316 7.774777280628684
Ag 11.632522244708694 9.511383016589233 16.17133563496116
Ag 8.379125583073249 13.940952675056678 14.561012337295194
Ag 9.301506968770285 13.193960032724826 7.442320658880665
Ag 9.6305926662551 11.456204642691933 15.247000845435194
Ag 13.324517999282662 7.97003765159782 12.623842288603624
Ag 10.641787564554372 13.879630810595476 9.83478690539636
Ag 8.776038750570821 14.516156309527503 11.88869730287613
Ag 10.455411766007966 11.198603167950674 10.76628132622116
Ag 11.192769440394978 11.144977674854227 7.778596446096901
Ag 11.155658006384286 7.480634988629023 14.389039390597251
Ag 12.657774882643414 7.070474561067463 9.901989557586433
Ag 8.364809281045112 15.317929459562594 9.239118811374771
Ag 8.370122745878847 11.734606176837222 12.712328774335493
Ag 9.008496675365805 9.168005767793998 13.64406627191809
Ag 8.535022138020835 10.54597689653431 8.204098413311936
Ag 10.616859060505535 7.996553255863874 11.669500716495785
Ag 8.048403316812333 12.550125807003564 10.030166139665456
Ag 10.45707770747887 8.73932101056542 9.044723811530806
Ag 8.262868046350189 9.547939962333013 10.869553861939318
