16
Energy = -30.79078376 eV
Ag 13.519160506325434 7.275972597302985 10.301338876395013
Ag 11.692189905303142 8.122571932907492 8.38505324889234
Ag 13.14247095621194 12.343681633331244 12.432002139719565
Ag 13.192267473109442 9.866542494604095 11.131268128525258
Ag 9.826231540470719 9.847302030339867 7.0578164993272585
Ag 10.978869290529579 8.098488279314987 11.114144233717166
Ag 10.673817604582034 10.407257610832284 9.601043707882223
Ag 10.916817347760254 10.719329579788878 12.450447284842596
Ag 7.630511089560043 10.545178311470773 8.919739316695244
Ag 11.426828829422147 13.034637928332304 10.317268210744531
Ag 8.952739487155938 8.088196245086289 9.128481390375837
Ag 8.799031532438008 12.355180405737999 10.928208848594883
Ag 10.579531835599756 13.478342690424837 12.891504947867196
Ag 9.57350554538153 12.468131646296374 8.242602453712632
Ag 8.599184036644697 11.58850127635613 13.611362884395612
Ag 8.552936343459159 9.57233999589506 11.455982166513085
