12
Energy = -94.48654589 eV
Nb 8.364338189744485 11.29403536374556 6.050554501340669
Nb 8.459119544868454 8.822016537350853 6.494567750331449
Nb 10.528504052758677 10.593876941053145 7.064786594109875
Nb 8.093578479238607 10.898353297122163 8.550251157748292
Nb 7.2235205407739 8.383203264686232 8.777858515680203
Nb 10.125423939258434 8.405709360500728 8.434881233681374
Nb 11.362322545620648 8.508951926350845 10.752041298095891
Nb 8.9846841550009 6.891771717768542 10.30357526080402
Nb 10.498630531491044 10.917133698949389 9.768235251328905
Nb 8.373780468247688 9.469590697390796 10.839668283210179
Nb 9.752902417451685 7.676621984922567 12.578310432191316
Nb 10.276196684119336 10.18173675873273 12.428271270051996
