11
Energy = -83.96604056 eV
Nb 8.894862544300679 14.801696263773486 13.237639621694187
Nb 12.697814244667706 13.762691455879965 10.500855155128951
Nb 12.030563767210767 11.757295548396687 14.427540132247335
Nb 12.280621419883564 14.279824987770164 13.375756028652646
Nb 15.118916994029899 11.370112294057941 11.802155393447572
Nb 14.27766207506825 10.30175631514152 13.771493222783194
Nb 12.463806934818939 11.719358819114255 11.97207638657353
Nb 14.595448140294698 12.75684980492661 14.214923962225125
Nb 10.550260619741456 14.424565064022872 11.450337942881474
Nb 14.679754742249699 13.958468996731701 12.047606482023234
Nb 9.74803582356129 12.969789695687998 14.130037237837033
