11
Energy = -85.34855738 eV
Nb 7.119268268623452 7.65379094053682 7.589328691552135
Nb 8.246832348204599 10.812550214516897 10.16423067600218
Nb 9.68416917263321 7.438447555351629 6.698944065178155
Nb 8.65323518757399 8.343821639734381 9.538699189569508
Nb 9.2549490894376 9.915598800268654 7.353511860505754
Nb 10.371222287726306 9.336547947304208 11.329971229497074
Nb 9.202065809196672 5.921199369678967 8.533069367526995
Nb 6.7499789725489565 10.296246637587112 7.957159211156341
Nb 11.12420670599255 7.969798594357361 8.92097743088591
Nb 6.0757734439873765 8.959834235795517 9.881107929741837
Nb 10.803354714075429 10.63722015184254 9.31805634838449
