15
Energy = -119.96570541 eV
Nb 10.447281971465243 10.751691602636274 13.482090557530062
Nb 12.909128200178815 12.964206620213949 11.753977481011738
Nb 13.499224304738785 15.821513718812383 11.666235395546666
Nb 10.563426398625248 9.503672923067153 11.296756935688535
Nb 10.318548800478997 12.231832690391125 11.026239617009615
Nb 11.463731927275715 15.742815861693673 13.16527302044438
Nb 12.541050003498835 10.671878055943601 10.200349683788403
Nb 14.50750661388416 10.75717161395175 11.808059085458694
Nb 13.33530706032029 14.262233383393404 14.29253603161165
Nb 15.306092584006796 14.329281378619141 12.408330714746837
Nb 11.12562798972029 14.82840924175887 10.83746269795581
Nb 12.69785092734406 9.250349515895888 12.667924562317285
Nb 15.15272335106472 12.3459071991075 13.856717101967565
Nb 10.625081714557568 13.299453186307963 13.428965230336532
Nb 12.849007229980666 11.351647394749065 14.34461795951742
