15
Energy = -122.05493067 eV
Nb 8.096294958759543 11.497529214169933 8.082391693850553
Nb 9.598282787383422 12.603548195325699 9.782702298197199
Nb 10.642363516573738 11.212317881522525 7.404473136798091
Nb 12.0751886874205 12.007718710556873 9.39291422901351
Nb 9.080137763621897 9.22511302298152 6.87356935134272
Nb 8.03734453004188 10.72156766292679 10.87770825863101
Nb 7.09968777614986 9.2024883304421 8.771713305906527
Nb 10.140886736326836 9.534544696345272 9.504102162292712
Nb 8.971250155030544 7.191824791084263 8.406312122460028
Nb 10.874933351151117 11.155573817812297 11.702527714865182
Nb 7.850262244138194 7.806971737996616 10.82847782520425
Nb 12.814307391912159 9.736153196689987 10.072731108683564
Nb 9.322403003605737 9.038794176309548 12.483381989645219
Nb 11.812931404822038 8.610823188429395 12.043223689575434
Nb 10.377400604752461 7.045004078584926 10.579692273162696
