14
Energy = -111.1614444 eV
Nb 7.199298042653267 8.67211402745681 6.839614828357559
Nb 8.917869559195804 6.817714155205185 7.221484094160283
Nb 10.058542229500787 9.271838551222304 7.594516900780572
Nb 6.37476773116113 6.697037324252592 8.190113850234596
Nb 8.156154404593282 10.837930811532715 8.433237400232981
Nb 10.897836390968719 11.71175043895034 7.949304269338112
Nb 11.38901911647131 7.515680501899759 8.95738081950607
Nb 12.43549709131 10.017861284732476 9.181232431914422
Nb 8.773108238686536 7.435096719007745 9.7393430228498
Nb 10.233624670288938 11.461999578427559 10.2476761339205
Nb 6.00975030509148 9.344153314187642 9.147348425602182
Nb 11.000782019624486 9.011100536689115 11.005862055999186
Nb 6.339060157577386 7.507427713687692 10.664070814853098
Nb 8.237953737806288 9.72155873767734 10.852078647180194
