15
Energy = -124.24762144 eV
Nb 9.215704768059506 9.215744122123338 9.215693444746421
Nb 11.946420115711627 8.933433360978968 9.227055929410959
Nb 6.485118650357027 9.498102060063015 9.204475069221063
Nb 10.394251788294595 11.582119670550332 9.206751492161622
Nb 7.687864009335079 11.854788620222848 9.195683569446642
Nb 10.743768273912874 6.576779577768602 9.235855568166215
Nb 8.03737870997024 6.849481425579136 9.224756716682245
Nb 8.412084232030518 10.55413081235728 11.348653254546425
Nb 11.116848901623559 10.27076125051669 11.353596771476221
Nb 10.004174870457476 7.901238997936265 11.369120198554468
Nb 7.299118733184101 8.18466104174948 11.35160168747139
Nb 8.427390911451239 10.530236732345541 7.062446649341121
Nb 11.132370758834082 10.246861115553056 7.079904025781363
Nb 10.019416196855985 7.877414257690934 7.082964962006912
Nb 7.314661579922108 8.160819454564123 7.078013160986943
