14
Energy = -111.83075993 eV
Nb 8.227948257791205 11.575386151601771 10.347977011805671
Nb 8.04195302455354 9.237893286630719 6.566686473815994
Nb 9.895819547832483 7.567208762265358 7.276686937031603
Nb 8.50839776314283 11.765620194619144 7.761102155976024
Nb 10.747979191741997 10.37565139659238 7.269920415320687
Nb 7.570773325223724 7.211789819055525 8.3758619341022
Nb 7.931585010939862 8.317687810706756 11.180426434980317
Nb 10.000946547920885 6.948001112077784 10.18139114837867
Nb 10.787873062243198 7.577390643749796 12.400056154152082
Nb 6.676300513561632 9.670210941912341 8.845708967477348
Nb 9.259317415539865 9.382528267987329 9.141600208714877
Nb 10.173806269830239 9.827821069448639 11.704328039219053
Nb 11.796099901185304 8.995101265449017 9.744697699209599
Nb 10.662875835130405 11.82938527790346 9.48523225313467
