14
Energy = -111.96079183 eV
Nb 11.852345809138596 9.98854867479748 13.097224293533595
Nb 12.326038697901886 8.620956835927483 10.46646242267492
Nb 9.246082848583685 11.214033662743736 12.831024006234857
Nb 9.946994343358213 9.199896186560954 8.892349866678515
Nb 8.13039409374944 10.713353736624128 10.349296559439958
Nb 13.298958385396602 11.33401406927637 10.915886842405639
Nb 12.147480267297533 10.806102955685608 8.470871189606505
Nb 11.45104015557233 12.827534410052762 12.3505638794837
Nb 9.624338965030335 12.075069370649837 8.370525496707076
Nb 9.202000332901875 13.283366603416487 10.731216712602597
Nb 11.640231198483592 13.349075613656442 9.579939863246302
Nb 9.600354716755412 8.560659682311327 11.733372728868819
Nb 10.731373041722293 10.918781407415896 10.693368431812404
Nb 11.679529182296822 7.59621135289238 12.597085326862922
