14
Energy = -113.28358254 eV
Nb 8.513261021499693 8.953463931847963 8.801666126278034
Nb 7.81513363754423 9.717464804766621 11.167608576316201
Nb 9.908544919438476 9.242086648967499 12.946006724332094
Nb 11.61568561052867 9.09307737559503 8.581056114677281
Nb 10.408128918068472 10.415555987857568 10.37029713645749
Nb 12.203712157423038 8.708914378047906 11.428681117199389
Nb 9.916279132698048 10.705346136970885 7.470552635369818
Nb 8.7240853003261 12.013778281668474 9.362771257259269
Nb 9.105112479235693 11.83592759043517 12.26022212794031
Nb 11.739569627637616 12.207664476422837 8.584657212395596
Nb 11.119637044048366 13.06581960153734 10.938842707579926
Nb 11.737834366984442 11.090880065806136 12.826742302317289
Nb 13.136390671391684 11.036711933820369 10.410383787000876
Nb 9.830533637415556 7.687216786256043 10.624420436997276
