13
Energy = -104.76197091 eV
Nb 11.33754072488155 12.59887248455575 10.810930140565217
Nb 9.27849081229837 11.006771783334585 11.883886168865953
Nb 9.089238299932658 12.762407715626134 9.575222441495912
Nb 11.999403640086092 10.550589604602692 12.232100315493076
Nb 7.463327840101981 10.829603587983549 9.675298141403465
Nb 13.107871696319302 10.88971195459791 9.861951616738647
Nb 12.588880289433186 8.458390915128911 10.40597798059884
Nb 10.544295703645712 10.232833634180684 9.478478328337316
Nb 10.551844607099941 8.418417190635457 12.064534166704666
Nb 9.123552824882816 11.239702376990987 7.518985090380179
Nb 8.360231422334577 8.548422753223646 10.882105919546584
Nb 8.275695111281175 8.928309329810418 8.160879224148296
Nb 10.334674174970907 7.575583836017687 9.393831895217431
