14
Energy = -113.20587876 eV
Nb 11.285679301348237 7.437552997116157 8.10206148707353
Nb 10.573821673161994 7.715706510931244 10.920185628029405
Nb 11.07552022063669 10.30345639193056 7.54968591094915
Nb 9.320119216308425 8.546051333319973 6.741839472188475
Nb 12.380288135544358 9.132601038550627 9.549370593600699
Nb 9.204448854735453 9.372986325918651 9.27640461878823
Nb 10.842532328611949 10.887429278540782 10.761417723156551
Nb 8.032009655463119 11.857763632405046 10.643390589247844
Nb 9.745894365592248 12.358700379326338 8.79938315456768
Nb 9.071773762165737 6.60727663530493 9.001156186256411
Nb 7.8398100350481705 11.00137504648862 7.877329353079721
Nb 8.790248405397366 9.728975410439329 12.105141140705918
Nb 7.71519059376939 7.695045681170268 11.04367868731006
Nb 6.624606452216993 9.857022382044402 10.130898498533803
