11
Energy = -82.04119808 eV
Nb 11.837540303375187 10.370722236146655 9.456111506887764
Nb 11.554417221368892 12.89531478394709 9.204728853492465
Nb 10.018037753294827 11.417177217736178 11.0211936178351
Nb 13.985934208428496 11.577591886081095 10.123021450648789
Nb 13.185647552764125 13.909552341288522 10.967000988795961
Nb 14.08401084267911 12.04534870004278 12.66485884979854
Nb 10.525563902520725 13.964866587545016 11.31891038646706
Nb 12.525135296255872 10.066257465182563 11.968171528567378
Nb 10.371955597730038 10.435973231429012 13.449872266664038
Nb 11.676264931937242 12.694126689152307 13.206641007015715
Nb 8.981027080701764 9.36860355250506 15.3650242348836
