13
Energy = -102.46163671 eV
Nb 12.742657494276475 14.867443624824647 8.863892790910807
Nb 14.541213713349581 13.649199997434083 9.694932487512146
Nb 11.763260075090786 13.070179041427437 10.384487986801323
Nb 13.385154624902599 15.266909140321705 13.90521047480313
Nb 14.29704547593385 13.13371693179197 12.250101031196353
Nb 11.492039013064145 11.599729488458102 14.662969029847595
Nb 13.007461145022818 15.391371219108583 11.434987166208032
Nb 11.210063800771982 11.211995326128935 12.236346279974715
Nb 13.48009073324581 11.014273728101015 10.963179971342338
Nb 14.0412820663629 12.865231570801463 14.9018499488661
Nb 11.08085096958638 13.89757115505379 12.902720349347515
Nb 13.662788207567418 10.695801244051825 13.536451017075501
Nb 11.69489217679346 14.03399682040583 15.357601396812578
