12
Energy = -95.19061236 eV
Nb 9.079621166810167 7.77661272305629 7.365247436086722
Nb 6.448986835322702 7.769657042992967 7.912131474030373
Nb 9.96527988194156 10.229782782527604 7.912114095752805
Nb 11.766290933421548 8.125409587790026 7.240051646979899
Nb 7.369765207865482 10.100129218953692 7.483920939031432
Nb 12.457573409227257 9.530438627613634 8.93531757332007
Nb 7.880254997607366 6.953977028813581 9.854052646121916
Nb 6.23255976866714 9.27853200923978 9.967599118846252
Nb 10.357912831714495 7.856277955271562 9.70407083292011
Nb 7.913625598897866 11.169185992677185 9.733114118065467
Nb 10.307950771017532 10.358083141061305 10.522462506230468
Nb 8.279867617542623 8.91160291003797 11.42960663265051
