12
Energy = -95.76216645 eV
Nb 11.412191471747574 9.891396077639508 11.623808431991138
Nb 10.000015911602471 9.877999415715587 9.011066561144402
Nb 9.42337761419371 11.641456648574037 11.489000287925313
Nb 10.6452131679083 7.319828077937057 10.592460301351112
Nb 11.764642622215666 11.608061867323235 9.763994668794096
Nb 10.642432908447253 7.480309782923241 8.073235857860087
Nb 7.903369524514476 10.83489597711916 7.785491732827996
Nb 8.13295272904453 8.161758036800645 9.13424598786722
Nb 8.767525389404348 8.935185690738937 11.54860183802895
Nb 7.333353154663528 10.798936348173413 10.180509926819914
Nb 9.29837670083246 12.604361609893578 9.142915588419637
Nb 12.520832936486045 8.690094860342127 9.49895255484982
