14
Energy = -111.3412161 eV
Nb 12.552155661103749 10.933446044465125 12.337828552263618
Nb 10.06971463982388 10.078767407025694 12.942349116801555
Nb 11.618742634479634 8.862980483471796 10.932571727302363
Nb 10.493769519558269 12.535027151534468 12.890630971437103
Nb 13.07738666996061 10.92322817583555 9.731828776737625
Nb 12.802455568625167 8.664453892992277 8.586785655504833
Nb 10.422691985606074 7.692604095206349 8.598996863627587
Nb 9.021874919998742 9.110537609091256 10.481636484903657
Nb 8.418300021199604 9.157412914006931 7.692294547104979
Nb 10.756406634033944 10.381176347632124 8.208401297086155
Nb 10.578540757263742 11.784930063517447 10.445038311196486
Nb 8.135400862015972 11.455508557965713 11.56244526425193
Nb 8.269160082906406 11.573038861786213 8.801678647421431
Nb 6.715024979735636 9.833282211530646 9.687158792566011
