15
Energy = -120.48873102 eV
Nb 8.723625903008374 12.970893825898825 9.280444430227028
Nb 9.852095915658413 10.96159234216683 12.70519904197755
Nb 7.181550643757342 8.707691379084386 8.682793361761899
Nb 7.798766504634043 7.771976134425485 10.873995333241384
Nb 10.476379517772083 11.694142250156734 8.045259532761117
Nb 13.204205310676022 11.230993337432624 10.254575718330004
Nb 10.961339921625335 12.34633096860941 10.808571949061376
Nb 11.426515564302559 9.63154129237914 9.458619366722052
Nb 10.186434579404487 8.43591867965648 12.019194212910218
Nb 8.820857729361183 10.371331056737391 10.300327741748765
Nb 9.320523306813502 9.352729856278764 7.289442268965625
Nb 9.739425219316477 7.576168229927348 9.303330308719987
Nb 12.277681332415456 10.38556646011389 12.499147936820725
Nb 7.664776084369279 11.266747736997655 7.82266537274537
Nb 12.569559098204234 8.170448173240043 11.15493330279985
