10
Energy = -78.04144266 eV
Nb 11.478392203899139 8.851866201644928 10.04534598490105
Nb 11.083044867393578 10.551093773748628 8.239547183024445
Nb 10.618539303174247 7.987811255715459 7.674338809355158
Nb 9.51283544806205 10.61911338842363 10.392515909719993
Nb 9.200835615585506 7.775549339752019 10.160558078602671
Nb 7.245116577071139 9.875851285013292 10.18917598714648
Nb 8.66289709362396 10.088140302612182 7.703041159326644
Nb 8.35082763212249 7.244497637840063 7.471205783763718
Nb 6.385151648169578 9.011691819897726 7.818064017599015
Nb 6.780464610898178 7.312489995352057 9.624312086560943
