11
Energy = -87.06136045 eV
Nb 12.324766065981933 11.717434303187945 11.463220319848068
Nb 12.513408645285608 10.081487241402424 9.589189418554884
Nb 10.945375924931591 12.525673386205169 9.547541298367442
Nb 11.643397105566333 9.22486046096103 11.995556656161988
Nb 10.758372549142145 8.063970876729352 9.708739233733006
Nb 10.45859640744098 10.538959671259239 8.001430721569466
Nb 8.83723300662482 8.153433413243217 11.426455103110289
Nb 8.487891291790142 8.81233681950237 8.609370594592061
Nb 9.707527397812608 10.591726149344753 10.854611435885356
Nb 8.08106049981087 11.435937880360793 8.974657385210913
Nb 7.00914238465497 9.547887975062851 10.489569467143617
