15
Energy = -120.29444097 eV
Nb 8.597507672390433 8.540934397595352 6.009486294771225
Nb 8.454713776540867 11.026016807339005 6.241229488829396
Nb 10.575722285787583 10.091558302572356 7.421047468092099
Nb 6.85929993178241 9.804646856626453 7.892768123217046
Nb 10.480901081498315 7.325870282478747 7.05747632288172
Nb 7.835924502777256 7.057136786914131 8.059600922956571
Nb 8.699733708841189 11.918698924522827 8.564197730219291
Nb 11.677151563623804 8.624702652732818 9.172416055151167
Nb 10.094177823977796 6.2155079830622375 9.279073904921143
Nb 8.12886159541676 6.761839731152006 10.867575345855371
Nb 10.156062284379635 10.533864470746979 10.278446230945578
Nb 8.420002015012319 9.226499484627231 11.883581324888672
Nb 6.461780700840082 8.372243644968377 9.946502802246814
Nb 7.347534067072811 10.943651070719325 10.394060269769357
Nb 10.574317439155044 7.92051905303846 11.296228164351138
