14
Energy = -111.13053184 eV
Nb 10.282904050250771 10.464871090035011 14.312324349576317
Nb 14.46772607692528 12.802600985377637 11.921164696387674
Nb 10.591379351820752 9.703883481239092 10.373561468149953
Nb 12.463841933182774 13.284050021495142 9.231111191152792
Nb 14.951631261413805 12.912309018124882 9.44888669071318
Nb 13.82129050462689 14.932064808039005 10.643472163689944
Nb 12.37601334513565 11.771751849652704 13.644769638945185
Nb 12.695415407643747 11.111953425023076 10.80757119772458
Nb 11.70417982970634 13.759289918999706 12.02613406043975
Nb 8.566073605175953 10.88869683690497 11.996847826074008
Nb 9.743013424928739 8.64776939060113 12.54703091819097
Nb 9.683079454714004 12.702898144859589 13.333065757936874
Nb 10.053333434562628 12.346664535997839 10.512283877729192
Nb 12.217795108268813 9.300946056592712 12.569975204823542
