13
Energy = -101.13076428 eV
Nb 11.63449925123531 12.4305344604766 9.303562021998152
Nb 12.267557851013676 9.905058747441057 8.689418492042936
Nb 10.334502816236766 14.362358964358267 10.31234054343953
Nb 9.21901030442009 12.18908918333424 11.00287742305132
Nb 9.730434314679956 10.520936224964931 8.912862455255016
Nb 13.640827230406554 11.190884137270054 10.829117971337414
Nb 11.768626232489948 12.763532644124092 12.121786965531085
Nb 11.347429996156299 9.927686725956454 11.12412937842905
Nb 14.18732213113539 12.345725513281657 13.330000816400789
Nb 8.775770323729613 9.555107072565916 11.158113373269652
Nb 12.947456389573476 10.109065983591847 13.403295355447765
Nb 10.158063193920565 10.848053846363761 13.285705225233555
Nb 12.167143964105678 12.132035547412459 14.75838030407606
