15
Energy = -122.1285234 eV
Nb 12.979934207239983 9.462514768121588 9.953397891773662
Nb 11.646878437856179 9.49896912289698 7.685930810408882
Nb 11.825145821416049 11.855213894756098 8.769671816650083
Nb 11.899084125746674 11.432027797808065 11.501696167994682
Nb 11.71057045679094 8.476250154369554 11.91822667486932
Nb 10.618703867708547 7.55843374193828 9.713652801954606
Nb 10.298420324227727 10.110019202903601 13.245189031707495
Nb 10.08865516251786 10.038044639304793 10.128148634620192
Nb 9.748666218522782 12.856558883073117 9.868796222397034
Nb 8.91731276791967 11.853388678207612 12.128397089952783
Nb 9.415106619371976 8.404808872233655 7.556194751410454
Nb 8.46751370222667 8.932307173049983 11.789729679536858
Nb 9.02127436798621 11.065007349617124 7.910030299146277
Nb 7.3676540848494545 11.2006120245343 10.117727625092646
Nb 7.614314059945238 8.826285957025805 9.292695007317935
