12
Energy = -93.97303866 eV
Nb 9.915371745878117 10.188491129461811 7.774105549732126
Nb 9.560936890826133 7.576175996996709 6.956365424888315
Nb 7.31321877432141 9.092907255720565 7.01398210093033
Nb 7.9110727606729 11.657014835649289 7.011312086215136
Nb 7.097366193415546 6.66387710862611 7.9977563468939
Nb 11.206513322245474 8.058739051595722 8.861552837619465
Nb 5.9271107999768295 8.847605856040966 9.152350922559764
Nb 9.348904926564424 5.8814647955292525 8.977295673454305
Nb 7.598568393500898 10.94279932189074 9.368162854915107
Nb 8.219928171089462 8.190346949446973 10.020184947296476
Nb 10.06886731629304 10.129308201778569 10.325598835652302
Nb 10.327421211234396 7.26655000328205 11.03661292586138
