14
Energy = -109.77622825 eV
Nb 8.751502822418722 11.904085902811753 10.480756383532395
Nb 12.756420423834584 11.452321764650469 13.718261375378889
Nb 10.920692079011195 10.375723839747762 11.664258004935393
Nb 12.87211926062989 14.143940558911623 12.226216740256273
Nb 16.604902369842158 13.641249982098836 14.6898706424497
Nb 9.143235190345724 9.571398610163861 10.000423928941492
Nb 10.925763441217558 10.876038643887227 8.899140854884754
Nb 10.876830698610958 13.138327794056094 10.048467495099528
Nb 10.66917201624712 12.783292820593608 12.727663312643166
Nb 12.980344462863675 11.816010248913388 10.934654814853477
Nb 14.70744906058144 15.14313387131256 14.501595805264454
Nb 12.646696806877742 13.80630311396774 14.907328111962872
Nb 14.941097966255716 12.691770308430382 12.980865862548878
Nb 14.686520352093034 12.5726797894863 15.789584695882636
