11
Energy = -86.35780606 eV
Nb 11.737883122837802 12.495575250328612 16.52046741805552
Nb 11.496376943742334 12.914551340005305 13.500330029231016
Nb 13.688212291639335 12.153949355150429 14.777708138316846
Nb 14.710336510012326 14.086124535750173 10.98328148550519
Nb 15.584338713820749 12.644147089430149 12.967444381965317
Nb 12.262718739448754 13.69745876478019 10.896076607408931
Nb 12.171940185269008 14.750306547750146 15.388524372566469
Nb 15.056456165199622 14.35979726012615 15.272921418682799
Nb 13.523174879165715 14.728231040764772 13.149851593441655
Nb 13.457080644747348 11.759300963021415 11.937412809817683
Nb 13.746946627019646 13.607340752489081 17.289776903446377
