10
Energy = -76.77233092 eV
Nb 11.752493969649018 9.406476011357762 11.168527852852456
Nb 12.9862832932081 11.84634465030617 11.780795813736928
Nb 11.447527454249963 10.277219689960653 13.563279268757766
Nb 9.274403616249538 10.975803186498071 14.007786618066929
Nb 11.264346890623953 13.20719359255174 9.89822292119206
Nb 9.946543624719144 10.873533384217525 9.464300943523437
Nb 9.210699618730793 9.81611649029688 11.656573587747276
Nb 12.385038808125676 10.75058977034088 9.040289223391873
Nb 10.249045719770786 12.310113399243697 11.964912686165459
Nb 13.725007055327788 12.777999875881603 9.69670113522095
