14
Energy = -111.10940737 eV
Nb 11.449112564684729 13.036385405749153 9.31541179673183
Nb 13.188835726053071 11.35943754192048 10.316965506051059
Nb 10.216482220112583 11.326433502080842 10.871283943389377
Nb 13.77706542677455 13.861446502674877 10.761493380706055
Nb 11.68873615736307 15.309368643639708 10.450576963060133
Nb 9.822026739153747 13.843271464544083 11.488451889496385
Nb 11.7963331990036 9.239021626759074 10.99180916339181
Nb 14.080811532740686 10.059377754712102 12.426353600926129
Nb 10.144808600569014 10.037098269866112 13.151037742664395
Nb 12.232644854640068 8.606105920381255 13.46974409227002
Nb 13.696760344198347 12.584099331942006 13.040257671759836
Nb 12.113518835742637 14.676143274834617 12.908318873745133
Nb 10.717111789032899 12.550927668238472 13.590410545041982
Nb 12.4583819975997 10.893513080325546 14.600514818434693
