10
Energy = -78.75926793 eV
Nb 8.097238392559863 10.96398291004537 7.487220432518262
Nb 6.766057552258532 9.554690281424898 9.278399188016255
Nb 8.704450291720407 11.152262810575891 9.977631108623799
Nb 10.613197552524936 10.962099002822391 8.262785447285136
Nb 8.380624995014303 8.519231750827103 11.102590364856363
Nb 10.80601528964591 9.474297826791714 10.56163025688414
Nb 7.593746046753092 7.037253327286512 9.187477973504025
Nb 9.049220663791944 8.569668080597785 7.6878303751295505
Nb 11.563892777229539 8.529703244675632 8.315485848078671
Nb 10.122890988505665 6.970650843736023 9.834809939996916
