13
Energy = -101.56181406 eV
Nb 7.67983995494687 11.661467945001913 8.526671107205843
Nb 6.645721935684622 9.243500527711532 9.022819419815779
Nb 7.328200692125966 6.776093203768903 9.098375784696492
Nb 7.656481457667763 9.984479366428015 6.578107605896855
Nb 9.23298701245193 8.269159356432155 7.840936436430474
Nb 9.373207825084071 6.557862351858205 10.583080696246377
Nb 10.039556237008034 11.919666000009602 9.317498600557242
Nb 8.932471695366312 9.777971049170391 10.390805597208391
Nb 7.309372849380745 8.00958187022972 11.404225197678649
Nb 9.933233236673566 10.96829438168475 6.929518346188148
Nb 11.421383881511424 9.623898859090005 8.692495150625716
Nb 11.16950710811654 8.31112994089093 10.875639169192938
Nb 11.239054527008134 6.8579136042369955 8.70084543174386
