10
Energy = -79.74123599 eV
Nb 6.952928918981844 7.287046795507622 7.21681963696805
Nb 8.905782637164405 6.398440103039575 8.604259895006424
Nb 6.761539477897578 7.9375654090889 9.680238938337734
Nb 9.189877648029915 8.278638418650795 6.48019196795615
Nb 10.800344886074486 7.944947693938626 8.641720667398282
Nb 8.936637008181142 8.000089002031164 10.798036117199324
Nb 7.045294600777623 9.817614506389585 7.556322775479132
Nb 7.8386756455963145 10.428932357511387 9.78823893271226
Nb 9.702616504786526 10.37458907264532 7.63199641968844
Nb 10.342382672510167 10.00821664119715 10.07825464925409
