14
Energy = -112.12489726 eV
Nb 10.535026889484223 8.557961642874035 6.804315285154121
Nb 8.369038206620365 10.125513153509543 7.094047817747125
Nb 5.902842324083425 9.214027421408433 6.405492322147504
Nb 7.988164699231277 7.437433643402449 7.014605882315894
Nb 10.185859537854174 6.363375216836189 8.158723462570116
Nb 5.9166879239550125 11.002650257062044 7.935659032349532
Nb 10.58308978691121 10.631077599963607 8.530313392706775
Nb 6.566153592153249 8.567885966790696 8.99514161488289
Nb 7.991758615786536 6.332521886916873 9.575499375522552
Nb 11.759587237094701 8.350642727516242 9.137122596128853
Nb 10.244617070889237 7.006916268587334 10.79125163862241
Nb 8.056218628708688 10.695588671084115 9.720997136069727
Nb 10.252541936596689 9.71267535636878 10.943353024328582
Nb 8.028238998421344 8.381555635470368 11.273302867244194
