15
Energy = -119.81946542 eV
Nb 11.417773150932858 11.874593104397233 8.6766080437906
Nb 13.146186940567436 13.773720829668372 9.386340981103789
Nb 13.647854348121717 11.111673696275702 9.668640702310297
Nb 10.57233203400478 14.019282183638254 10.013566248694012
Nb 11.326486195485105 10.01781732366682 10.826478400941975
Nb 9.352767077067758 11.607812904217088 10.449484218927438
Nb 14.415751381295626 13.00171188266004 11.44563062977806
Nb 12.274070229847615 14.610735902932685 11.825251899923643
Nb 9.19800491426335 10.105031590035237 12.783328766804294
Nb 13.49987455881783 10.505554572930041 12.236430123869804
Nb 10.283684813367971 12.767343478952112 12.54612888734321
Nb 11.298199716338557 8.860646309779074 13.313880412354324
Nb 12.694285140077776 12.679005309566929 13.593434031121317
Nb 10.423894204880382 11.125906579012723 14.723807638653735
Nb 12.750748276630135 10.241077313966851 14.812901996082148
