11
Energy = -85.95341873 eV
Nb 12.631455328540863 11.835820156897366 8.458273805496418
Nb 10.930370885261473 10.050808230745412 8.918768504894992
Nb 8.598643742885756 11.146290645857544 9.842217682131858
Nb 10.830305397805715 12.727244115264394 9.951484081507706
Nb 9.211124192556921 8.68996873904273 10.345335223458754
Nb 12.924820091923149 10.947328731945676 10.781410340266541
Nb 11.6856835762972 8.52669732665441 11.061946034553799
Nb 9.059816757505457 12.656561317972994 11.880789514882292
Nb 9.717290429036794 10.217207176838912 12.348168982726575
Nb 11.530956859975516 12.463853646216064 12.586390641701657
Nb 12.164513793948979 10.023200968302334 13.11019624411711
