15
Energy = -120.53682262 eV
Nb 10.05298309689998 8.28808702067658 10.058910882453743
Nb 11.237103441264473 11.324156739138552 6.91713556960269
Nb 7.596248835071596 9.690386253026162 9.576013027980132
Nb 10.403995593708782 8.328700915752895 12.831736545556303
Nb 13.14077821686548 11.610957857546508 9.034737838862291
Nb 11.616479932138352 13.413334875354252 8.31261221868729
Nb 10.758312760354427 10.755877143216576 13.5499685137581
Nb 8.36289061456825 9.497516375060679 13.804190972287513
Nb 7.874889396328835 8.171917953005035 11.572223535843397
Nb 9.398186246950242 9.201042800437115 7.715698868038206
Nb 11.787234826130405 10.151912948372626 11.1428832325183
Nb 8.887371242732428 10.818698199857293 11.647781515203281
Nb 12.076308937947932 9.349392932649856 8.372866791625995
Nb 9.987146161282698 11.287002392270933 9.307672208192594
Nb 11.521486432507688 12.728885272615866 10.932018520435623
