11
Energy = -87.06668658 eV
Nb 7.08745987251809 7.201320562713775 7.956556727451158
Nb 9.253813606119522 6.619786368878601 9.234745308299303
Nb 7.05642355663902 7.958268005862658 10.39953000579705
Nb 9.532786919968826 7.846375796182725 6.866201794522906
Nb 11.192017787245417 8.395911568079505 8.837014301207322
Nb 9.47053976608162 8.403613635086794 11.156658123824002
Nb 8.877575437841042 11.84881280398116 8.541035351431006
Nb 7.9179043779103795 10.492185212718462 10.739782671948024
Nb 10.505268739394422 10.327992765139319 7.289402677717274
Nb 7.865476795266551 9.579475198907302 8.163115312465964
Nb 10.520985641014837 10.606510412845159 10.096210281871079
