11
Energy = -85.74751138 eV
Nb 11.681474499211946 13.378872132741439 14.33384586896194
Nb 13.565240573452304 13.733922865120531 15.927604341774371
Nb 12.420407857504749 11.192319631355964 13.054654634473518
Nb 13.744946448802075 15.24211725153389 13.984760162689273
Nb 12.758866788834839 14.059809208487211 11.905785699907197
Nb 14.393103933034654 11.92829933644701 11.084289869386676
Nb 13.132822140508214 9.749944730298374 11.008473165778026
Nb 12.02293946403067 12.199992748089606 10.055001015767123
Nb 14.506522346454927 12.748496201753287 13.700004038169514
Nb 10.357210738693317 12.662465560869723 12.021069593702892
Nb 10.70780890070802 10.225961684641565 10.978212951526611
