15
Energy = -120.24628701 eV
Nb 10.079266151324791 9.513501182858896 12.176552572334227
Nb 10.494723783070992 11.608532384831218 10.961679117466185
Nb 8.060532207888762 10.935895609092634 10.402312073383536
Nb 7.936464322030495 8.25274357413191 11.234747775673316
Nb 10.681628034537967 7.310431333495616 11.090896271869632
Nb 9.970999670619165 9.258093535505344 9.256663316296615
Nb 10.173017333630748 12.113227488415259 8.576227869317476
Nb 8.861069464190773 6.5546867140170875 7.283893253034415
Nb 9.146133456024119 8.810092275365593 6.187034724563317
Nb 8.053861777637136 10.86966677108305 7.584389666391341
Nb 7.321853960295345 8.401250848627015 8.553251857331185
Nb 8.999012497470586 6.226868391990207 9.780645359144978
Nb 11.112521029809958 7.378384594263921 7.982486300427748
Nb 10.825619132498444 10.360044470499158 6.87749003290823
Nb 5.921475166234842 10.044758813087368 9.689907797121778
