13
Energy = -103.49857142 eV
Nb 8.952134188219945 8.951881776105997 8.952280878217232
Nb 9.050294347429627 10.419227815774711 11.242699277690003
Nb 8.947023475479725 7.581881036649374 11.276934374547752
Nb 8.956823868397477 10.322030308480272 6.626848592884832
Nb 8.853644432905302 7.484992434521536 6.661379032477868
Nb 10.316250886770632 11.31327470971801 8.9413341370634
Nb 10.287663438879067 6.6259463138985994 8.89410768152549
Nb 7.616287967220034 11.27794008808899 9.010166622169493
Nb 7.5881675459740885 6.590665272787239 8.962782544971105
Nb 11.190332747114983 8.9370059643971 10.425981626461542
Nb 11.207503760939158 9.039280061977246 7.576503819576928
Nb 6.6967930523347174 8.864830406138173 10.327698115891328
Nb 6.7135678231518785 8.967531311463123 7.477770831339909
