14
Energy = -112.09866586 eV
Nb 7.934116040108291 9.370472038953649 7.306403449145951
Nb 6.975767777161549 9.89786271250192 9.632240954671925
Nb 7.9259148583225265 7.308892143485407 8.79576662173502
Nb 10.29280755484548 8.595734168148203 7.873994633829092
Nb 13.119345019581978 12.146399620149428 10.18645730705228
Nb 7.752713162951573 8.119788517155571 11.23626615647557
Nb 10.117579388122904 7.0748795027849285 10.03276360318064
Nb 9.290468168979173 11.231629695509039 8.677040096611668
Nb 8.921667286095637 10.753332694760678 11.29753966840212
Nb 10.72179610278092 12.7674682963642 10.574639522757392
Nb 10.154421503186347 8.598751788463304 12.105561980705836
Nb 11.85952494864887 11.649586337894894 8.15025063832815
Nb 11.739209848301321 11.072404473880516 12.182510574950868
Nb 11.324073435605532 9.759515990556404 9.933690189506875
