10
Energy = -73.08555674 eV
Nb 17.20107907742871 13.875809818627301 14.9792506964399
Nb 14.778898872882326 13.299562414403194 15.34107910347314
Nb 15.79278681451272 12.012941876120129 13.288162400963431
Nb 17.456301957445994 15.975199145759078 13.610116738671007
Nb 4.805572019831317 13.732600852145445 14.537815701158769
Nb 18.023445596659485 13.05799358587492 12.744409870739725
Nb 15.074430804533904 15.734286554740875 14.395230442879154
Nb 16.14821204423105 14.563743307335539 11.988670288841819
Nb 13.9422266880235 13.846653873135732 12.969451306846784
Nb 3.8138100318371446 11.862755573562133 14.659490181876203
