10
Energy = -78.25050628 eV
Nb 7.074036311778423 9.744325918183074 6.806379499414005
Nb 6.202673551939654 8.676066677568746 9.200963922164119
Nb 8.46785389206276 8.079996462946623 5.5906814644269875
Nb 8.11218953508069 10.601494893401616 8.901335877110883
Nb 6.420804316211027 7.082549966727192 7.1090397636110385
Nb 10.133054815712107 6.958012336013621 9.255772058185205
Nb 8.705519421118705 8.673445867571612 10.360640686252578
Nb 9.037845103567026 6.220935150763082 7.142671516338515
Nb 9.807275880509103 9.020904691366786 7.6523058676211075
Nb 7.478787268615864 6.382308132053003 9.420249441471048
