10
Energy = -78.383853 eV
Nb 8.839557071035548 10.95795610480151 7.765396834862213
Nb 7.884313633496689 7.0089093306662065 9.224737925342902
Nb 9.51091756436854 8.367697110245235 7.697470616519558
Nb 11.835047625945785 8.39842386856588 8.812193275347946
Nb 11.283253634668982 10.673870501746096 8.077674813519092
Nb 6.866936736076283 9.175994252017189 8.493780324353144
Nb 7.624636503980537 10.979757085446845 10.0960123963538
Nb 10.147436607904627 10.233808368773744 10.316825766812997
Nb 10.210039437685127 7.550497677213903 10.456657792940106
Nb 7.833842867629152 8.689067383315118 11.09523193673965
