14
Energy = -111.50682014 eV
Nb 6.798609546373575 6.725160912536806 11.25669663935174
Nb 7.978359635861203 8.929378246719196 10.538792164748426
Nb 11.14439305735715 10.48617097282707 8.15562712618273
Nb 8.562707984445522 8.89835427612091 7.535321606554786
Nb 9.087764834220208 6.193787360446109 10.334479447226002
Nb 9.48554289317554 6.1654140547358525 7.923737777503268
Nb 8.716412147871239 11.50416141053538 6.982184717672492
Nb 5.255705356698371 8.032308615812353 9.873517056390629
Nb 6.39085721430811 9.855155802622432 8.621922696624454
Nb 8.977914076382126 11.100457014260213 9.43936163939872
Nb 10.497332769111244 8.369884104738238 9.58493395394034
Nb 6.979908066216914 6.800937948112236 8.444362791457776
Nb 11.039618103456547 8.00923783169632 6.93446985379773
Nb 10.423540215322062 10.268257349636858 5.713258429951028
