10
Energy = -79.73972634 eV
Nb 8.553716412720988 9.538326502508799 6.620445996934846
Nb 7.946324642857832 7.069797753661422 6.886599315336261
Nb 10.326338017037997 10.229492358472982 8.154863220542556
Nb 10.333595300492222 7.559279570367946 7.641094592667447
Nb 6.501563763352512 8.577535720561558 8.357320078652172
Nb 8.285058251268811 6.605616258853546 9.378733877662627
Nb 7.609493210336465 10.690611842149996 8.890294252014304
Nb 10.46904123125526 8.085269379521112 10.025825573019539
Nb 9.510778863842157 10.390299738084211 10.570580690047953
Nb 7.7567225500808155 8.54640311906402 10.766874646367615
