11
Energy = -87.45635018 eV
Nb 11.968980497767511 9.393862416110283 9.689017962748844
Nb 10.171104474930052 10.486261536144186 7.764155776497068
Nb 11.236371766365101 11.742443649084892 9.829818914810378
Nb 10.66817419517937 7.741703526349706 8.357747762605172
Nb 10.204233066094844 7.823736065749808 11.067456936104037
Nb 10.257637293798117 10.239277015577636 11.829217707137365
Nb 7.9198594899905075 9.48762310509168 11.214285450548486
Nb 8.62870795085101 8.428129134637079 7.160810594994189
Nb 8.129828021614342 7.507657269552021 9.646625602767308
Nb 7.470713587428429 10.079239747619333 8.573654642093162
Nb 8.769915848893127 11.73820808227171 9.899798539212325
