12
Energy = -96.43382992 eV
Nb 9.53185340354656 9.428378917434461 6.359177359633604
Nb 7.359739250766228 7.903875377929097 6.385886797202296
Nb 9.697103591913123 6.8407474396546455 7.0548080524947565
Nb 7.138996941718513 10.260411113836042 7.3874274763272005
Nb 11.142868282578856 8.671475679317421 8.342046821241375
Nb 9.652640367707836 10.786723472314982 8.624201211242552
Nb 5.965834975036463 8.431114506855387 8.766661006991447
Nb 7.458292244350955 6.317949636142077 8.490703576835816
Nb 9.967165260087988 6.845644589444201 9.718007670118121
Nb 7.411874572136485 10.273025608081529 10.045508873817957
Nb 9.748724397380274 9.2036139040458 10.724125809420688
Nb 7.575214871762933 7.68734791393029 10.75175350366041
