15
Energy = -120.4319264 eV
Nb 12.465763206995817 12.379974551218886 11.680752590198193
Nb 10.840221058035292 10.593102050503227 12.745703455486119
Nb 8.993203564188473 12.517121254869968 11.109818836525578
Nb 8.033378881432856 11.125339187015301 12.949287141422097
Nb 13.396962533601085 9.978699306548442 11.687599578803034
Nb 11.019126014666291 10.88294915526795 10.078138617277324
Nb 13.72017736599288 11.279374411025067 9.418660441146843
Nb 8.785267372652386 9.334469874740604 11.248411102888355
Nb 11.487168407529632 8.241928663591846 11.156659447578766
Nb 6.665847062889727 11.175636847641455 10.69649086612734
Nb 12.939290722143085 8.816572950134592 9.055296125759845
Nb 8.574117388865472 11.393888759519728 8.79204210956403
Nb 11.65755613701378 10.481657808666197 7.573334820641584
Nb 10.099936371753943 8.692209298161051 8.758788890439742
Nb 7.359958025073117 9.213807275069732 9.087905411481172
