10
Energy = -76.99051944 eV
Nb 11.081871522971065 10.57495577088436 15.02770578084913
Nb 10.18658862523162 12.561694967476289 14.48151165748958
Nb 11.296769806384992 13.39558643869697 12.2379327984809
Nb 10.812247940127737 10.802246490142197 12.296784735358298
Nb 12.981544473263252 12.257180079404034 13.92732354205934
Nb 13.309310833546197 10.778718502429602 11.90862593476281
Nb 14.207781153263966 13.513731387855382 11.98628085462181
Nb 11.432435399162516 11.647280359896426 9.898352227282691
Nb 12.443672453803998 14.073949474674865 10.094829649782428
Nb 13.992424874600436 12.135517452789427 9.785662204295775
