13
Energy = -103.24326378 eV
Nb 11.968117980377531 14.4656393448961 8.716629477626697
Nb 12.010410462484206 14.960966535488671 11.087213121602698
Nb 13.491915368841957 12.87058403933975 10.169793522150789
Nb 11.321865115178214 13.302374071819509 14.801125202734417
Nb 10.738445279088705 12.543840148004069 9.624581022183047
Nb 13.613056847849462 13.801012718301457 12.98484727479869
Nb 11.325791288387293 12.616879557746724 12.28171437020515
Nb 9.921509695566998 10.445027745341884 11.720184248862456
Nb 12.142027136828748 10.37859772217773 10.474421279555578
Nb 14.131757204186215 11.32717355806614 12.179485626675051
Nb 10.353697608883566 10.934552894886178 14.349878684627212
Nb 13.13424852061789 11.644241087118933 14.641433498348261
Nb 12.178624486688703 9.661886229205734 13.086749674748233
