55
Energy = -467.99943179 eV
Nb 8.837930096145943 12.513712731772861 13.412466807665862
Nb 13.902202256026959 18.824831760108843 15.457109109162849
Nb 17.208260084945007 16.143942019151346 12.581820541857509
Nb 11.448481198222979 15.442176321194836 17.631981718586257
Nb 12.968701984686474 18.074865348846473 12.452270396555168
Nb 9.557386003167963 17.14428114950929 15.886434036658654
Nb 18.0692778091905 12.10673656686192 8.757053825978593
Nb 15.334589628494864 12.793685531931438 16.396346472732787
Nb 12.437913368584837 13.381012265150359 16.24862964891777
Nb 20.61654303484138 11.946909296551825 10.14734641375883
Nb 12.680910575173991 10.968998642989503 12.020833680952501
Nb 10.561257519311264 12.76006469053547 18.56244350832739
Nb 9.889141837742054 14.480647761725747 11.698485294245424
Nb 21.05564045887752 10.627625698418727 12.367765206736564
Nb 14.173348268074026 10.784370784277234 17.55254718651885
Nb 11.773466933399021 12.969585769344105 13.412196044311193
Nb 16.4627665085364 14.733101420713002 18.008695744431616
Nb 10.176146733833507 14.67441846318014 14.58322987852304
Nb 10.773452114734317 10.266241815802019 13.530947400731412
Nb 10.163310113093642 11.814297884049008 15.678631159464182
Nb 16.926924141002548 10.644866230520751 16.240906788246072
Nb 18.660849710004516 13.867093893285562 10.484572778728603
Nb 11.696259307218886 10.695935041658272 17.520406223735396
Nb 10.808215571835554 18.836830410630423 11.452388967354144
Nb 11.354666705014088 16.538579304116876 10.4727001609937
Nb 14.238212593268758 15.596836223937931 16.822661586321406
Nb 14.413528412891718 13.911399526045884 13.979960432754128
Nb 19.721520537643876 9.141040888879699 11.005777298852061
Nb 18.708872126870116 10.770479598305478 13.975458984147819
Nb 13.224272850569772 13.011974930486938 18.709394733908137
Nb 16.08516104788442 11.288734176937805 13.965481327109417
Nb 13.190689415113612 11.028604147467007 15.038574279914902
Nb 9.189434329868208 14.22843011187257 16.9989471605008
Nb 18.336156379473316 12.907530304158858 15.761928829923928
Nb 17.47919121895592 13.436628778819996 12.931189813002952
Nb 20.17887570013242 12.99421674177506 12.914311666808391
Nb 19.729071160996664 15.509348761548468 12.17960285581944
Nb 14.955029132555044 16.888099366850863 14.08852750493927
Nb 12.79237392339836 15.378805897699728 12.209837485169887
Nb 16.176174412137605 17.417638644612353 16.827488345509153
Nb 17.67058883588938 17.63006038892544 14.671240098439483
Nb 16.547702057358045 14.941073080094021 15.147498912058946
Nb 11.936311655927303 13.17006063326249 10.577827997950076
Nb 18.144897233315312 11.142893643453894 11.402304672748167
Nb 10.004854830947949 11.640849475227357 11.288403489760796
Nb 18.413502681072348 15.92812828498765 17.023057764888488
Nb 12.130956754141225 18.104012021852263 17.30993446212274
Nb 9.724051234689746 17.436429870934507 18.347161183841447
Nb 9.770840757675533 19.657504246639043 16.581383320375718
Nb 12.130550372534065 20.562958490894424 16.659114279528364
Nb 19.217994943360218 10.136482845451123 8.691401497749352
Nb 12.308536597800776 16.439387466502847 14.954960040137872
Nb 10.14573154493726 16.95561249947011 13.015751349288806
Nb 19.296362359278934 15.337029042972295 14.63302613048587
Nb 11.301444536975398 19.073470707430875 14.430115100588013
