5
Energy = -33.24090895 eV
Nb 10.969292569249937 10.231532551672283 10.272191160219876
Nb 9.695086401238795 11.621775518282504 11.80610768277833
Nb 10.852099704871238 13.173329748526164 13.161082669933725
Nb 12.410461001074022 11.909422476599829 11.860436326174495
Nb 13.32603354501711 10.401756573862855 10.240341113984837
