5
Energy = -34.30019696 eV
Nb 9.465836792772128 9.800889371594291 10.142392503598359
Nb 9.973515577044772 11.187555744654448 12.034575030997686
Nb 11.759476652479192 13.008570206408157 11.25109376905173
Nb 12.620659608760828 11.16486595663262 12.365687385613986
Nb 11.684401736819517 10.70214330241194 9.916836912160951
