5
Energy = -33.46142825 eV
Nb 10.605163891955632 9.181067893276017 10.140630593972073
Nb 10.161943444324583 10.322062659600258 8.257219438795572
Nb 11.203611427235977 12.670782928263275 12.260404625515433
Nb 10.200650028691975 11.913045960509297 10.178026536466803
Nb 11.396679017225525 10.433227661712044 12.200650897575528
