5
Energy = -35.46890418 eV
Nb 8.75937052306201 8.6798488108475 10.170944475837329
Nb 9.700991278659133 7.774438778056097 7.841749534723003
Nb 9.71421831962003 10.2159845352085 8.321293777213485
Nb 7.496050365718476 6.981690126089104 8.675051192993516
Nb 7.373080607194473 9.39131546915389 8.0344400692745
