5
Energy = -35.37539472 eV
Nb 9.488545753082528 8.969953640749104 8.601256693580666
Nb 6.480409220404363 7.00416028430937 7.368211793215127
Nb 7.755483346297981 9.063915700693581 6.82677321877703
Nb 8.92398662034459 6.7142046472215595 7.721701265195421
Nb 7.278230059870653 8.174420727026387 9.408712029231646
