5
Energy = -30.86630126 eV
Nb 11.751678203648765 9.214003157263537 10.929256469011708
Nb 8.18173459191279 10.974228522836768 7.727777728887163
Nb 6.947473275628648 10.218754491698226 9.407482609896508
Nb 9.51067013177963 9.503767524261754 9.515080659841201
Nb 11.080953158843483 7.392260333033052 9.864229868410124
