5
Energy = -34.29911072 eV
Nb 8.949956198559331 8.712706900810849 10.854140784352412
Nb 9.517954389105608 7.686917386565899 8.464493187804347
Nb 7.135757846228453 8.335668684736888 9.452731707832722
Nb 8.754309104022276 10.332911183432005 8.752268379361617
Nb 10.230454884610042 9.497379924681486 7.046239096801805
