55
Energy = -478.84037034 eV
Nb 12.567624648396524 17.13841739079739 16.380670742185263
Nb 13.933914933281644 17.646373377817188 14.415975283318765
Nb 15.021242403482809 16.17437858064026 16.963110187436122
Nb 14.813044726377038 13.666806125132306 17.831003731551643
Nb 12.305474898342219 14.686207234668645 17.452041851565788
Nb 16.522491227009862 16.230508540118645 14.520655883741268
Nb 16.75149029151123 14.12330297682126 15.986517773786428
Nb 10.479273004968345 15.68011710638992 15.674454377841748
Nb 11.19772391178667 18.05306049824243 13.501516401131148
Nb 12.837793334764878 17.91876411183296 11.335873376442738
Nb 12.481842906499006 15.748478933574411 12.984396874405604
Nb 15.303585604303832 17.133100899225383 12.360771919213017
Nb 12.854780506892439 12.117017556872248 16.78210919692302
Nb 18.492985098074723 14.464035399199055 13.643134144984991
Nb 13.703473141543872 14.49572392924561 15.201570431914885
Nb 9.338793465630927 15.681104190520617 13.371607712638657
Nb 8.274536863400122 14.082570733975896 15.498843468804237
Nb 15.408217466987864 11.946781171714127 15.501378959677606
Nb 9.904389568183614 12.93456603352692 17.004886915841286
Nb 17.312606695584595 15.42962417550244 11.530892597291269
Nb 15.544465162901334 13.972251851387323 13.178852148573803
Nb 10.11463011225818 17.130189664928054 11.25513087541041
Nb 17.643787070848887 11.99641946162173 14.11975682331273
Nb 14.19454429353148 15.3521699268714 10.696542136355657
Nb 11.073683567411052 13.374939185335462 14.43325127955757
Nb 10.918996912999543 13.99841383932222 11.379892559067045
Nb 11.728548554822567 16.038314425430165 9.684123838984208
Nb 8.571987997247325 14.907009162428272 10.676719118554246
Nb 10.765589831745851 10.663520707137998 15.85482792827658
Nb 8.64299446837011 11.535873597195712 14.764164753373624
Nb 8.376380086020808 13.200094900631543 12.739217914604446
Nb 13.124881890016868 11.154626163424775 14.209174082815284
Nb 13.272390953416187 12.821581263287436 11.979271221234448
Nb 10.526909899352319 11.198102580720183 12.714127936256533
Nb 17.9856287262947 12.803237815017058 11.585443568278095
Nb 15.86937088283084 13.362207825093577 10.229216156994779
Nb 15.691997538123287 11.268974264159787 12.220520555620332
Nb 10.835916749432316 8.728391549524193 13.838941002800349
Nb 15.60232513293465 9.344243997106057 13.977793521678281
Nb 13.239489825968622 8.529047433535013 14.85809111257547
Nb 8.762662761054681 12.209897422395807 10.080411977014645
Nb 13.162364798709614 13.426918238866518 8.980630245148383
Nb 10.566131684880444 13.252764978944423 8.508444317303248
Nb 11.621358924949048 11.321603054866538 10.29244992138905
Nb 8.869103183472895 9.926038009577795 11.097845745881255
Nb 13.149583027321057 9.557013350114975 12.034632740547147
Nb 14.444837998358414 11.101132644831239 9.605402059113088
Nb 14.819460436459462 7.117447180189596 12.880782750093625
Nb 12.252120769102257 6.732516600937296 12.89450005077733
Nb 15.431643003797022 8.700612697878089 10.8631284724145
Nb 12.371461829296694 11.240632289067221 7.528784672536923
Nb 10.048683435693372 10.133028248320443 8.519742234608621
Nb 10.955488599967422 8.413719213206313 10.83629041494596
Nb 12.87247218688878 9.059741550175495 8.94941450864153
Nb 13.360026156721693 6.993589090874214 10.508272674785516
