5
Energy = -31.26177999 eV
Nb 11.899003101926997 10.092084737324827 10.943872554623821
Nb 10.931544794553098 12.338955776585193 10.5652728851828
Nb 10.704756768590425 11.037056534415937 12.863013798136686
Nb 13.452690763770686 8.469566454209987 9.865996507602746
Nb 9.800371332325085 13.1499366350174 12.453698053162848
