5
Energy = -35.38344681 eV
Nb 7.788526659567209 8.89268042521873 6.622658225944413
Nb 9.083855082325424 8.939246234544006 8.777811203433165
Nb 6.785827921289136 7.95424348469289 9.048016503106156
Nb 6.614017684105676 6.683481558111521 6.88472310103691
Nb 8.883097652712436 6.6856732974328485 7.822115966479355
