5
Energy = -28.55901256 eV
Nb 9.919423728114618 12.117604581475767 13.716900418357929
Nb 12.959400624521406 11.848946026326534 10.498776128432008
Nb 11.56943047353963 11.372024526338166 12.444930771609446
Nb 10.914006951748304 10.817129427632214 9.787207908084508
Nb 9.616926848364884 9.142889387082128 8.864992240673308
