6
Energy = -43.69258782 eV
Nb 7.846806989869049 7.555338528660658 10.084477567287957
Nb 6.975018925582108 7.08799550628433 6.082001128997708
Nb 9.055750152029397 7.667707516932337 7.978384122814585
Nb 8.032238295147982 5.385999830561487 7.7893753855934005
Nb 7.081607577854503 9.181177730526414 7.610293490734723
Nb 6.063075298045275 6.9173035249924695 8.454004363869583
