6
Energy = -41.04736794 eV
Nb 7.639216701184971 9.194720615611633 9.072927902114513
Nb 7.483031741469326 8.05140500980012 10.97442214114407
Nb 9.735266498482607 10.515453085697343 8.656741136104095
Nb 9.740470593091304 8.964456668224168 10.816761749031315
Nb 11.924753444441317 11.57168097640927 8.605159841418278
Nb 11.910864688999663 10.084944312004252 10.261424453952324
