6
Energy = -43.03346356 eV
Nb 7.951141177922287 8.19888999969015 9.989335806232285
Nb 6.863710623415149 9.46419708862533 7.7454716230097524
Nb 6.684765400267192 7.046870204697074 7.780402324972743
Nb 9.144478827421803 6.556028727494046 8.492918015260145
Nb 9.36889616830403 9.61011732195396 8.454036284794002
Nb 8.943353802669655 8.080242780897784 6.494181945730729
