7
Energy = -51.68051683 eV
Nb 10.740152586106067 12.25906368639744 10.466201815616753
Nb 9.73411808493335 9.52941433057222 11.145212818091112
Nb 8.70395001693958 11.609995878981463 12.075688555598651
Nb 12.240343303834466 9.82177851025666 11.307354328522331
Nb 12.934728542510342 11.211772085743439 9.344109070804157
Nb 10.734612194446303 10.231388573112337 8.86378914403531
Nb 11.015767295620403 11.440258959326638 12.901316291721589
