7
Energy = -52.23566062 eV
Nb 9.746093626889433 10.329734361432449 7.8179030471094
Nb 7.307608286655825 10.313999506939908 7.913444236924525
Nb 10.426144832747555 9.336367023133715 10.21489313456851
Nb 7.8230683194439115 9.84479818837106 10.263322480216384
Nb 10.767414499278546 7.95536046859597 8.117794464325154
Nb 8.256479715837338 7.928124722246631 8.184741867018344
Nb 8.786984323032408 7.442411505046605 10.597249370106216
