7
Energy = -53.15868471 eV
Nb 11.572857560199163 12.783987778729841 10.069251117996723
Nb 12.454438782876949 11.89468757000894 12.34533371254727
Nb 9.708142100353546 11.617389284597078 11.72356869745674
Nb 9.729727254488052 11.169944265658629 9.25038702915331
Nb 11.030549285058822 9.809767036052586 12.817689351745477
Nb 10.117282370878117 9.05210079723617 10.56148351530376
Nb 12.286036106531483 10.32521544287145 10.298343496254923
