7
Energy = -51.70690869 eV
Nb 11.099992697642264 9.663960308914918 9.070051795602046
Nb 9.29961566690921 10.976458828077027 10.025805869415612
Nb 12.95066521397007 9.399993538161343 10.517499177418777
Nb 11.852570489828896 11.76200433327779 10.808064456566035
Nb 10.926417770589767 9.392052794322744 11.951156262237365
Nb 9.644077006915893 13.12143901170456 11.220846538305874
Nb 9.906621401567135 11.405003848777154 12.828109981724603
