7
Energy = -51.74033805 eV
Nb 8.784435311416448 8.177471281305406 6.849360146975657
Nb 6.745263306302935 6.298318848038784 7.05606932856619
Nb 7.703369907882738 10.234590667303426 7.9111803376004595
Nb 6.512797544903953 8.12289778672672 8.754641377587237
Nb 10.065152895216121 9.922450169809627 8.397161366556405
Nb 8.604881053321764 6.141410277696336 8.459690993639223
Nb 8.833142345857961 8.351903334022015 9.820938813976882
