7
Energy = -52.08539293 eV
Nb 12.084871213644666 12.138663838172615 9.879832272262583
Nb 13.282937869411208 11.869075544809181 12.24936916554339
Nb 12.568908309676498 9.776958962369394 10.851979766757378
Nb 10.788834052427513 12.724525456512433 12.413551147281385
Nb 11.38629249554945 10.293289043891116 13.126952203220757
Nb 10.00224748222881 10.352394228970354 10.884385010530938
Nb 9.709563602830906 12.715986730797681 10.19398406234827
