7
Energy = -53.14683687 eV
Nb 8.228435363176601 10.01306315100985 7.431882102976384
Nb 8.571507267103252 11.191840273063834 9.58029891760179
Nb 10.5610778036035 9.30417346543392 8.393092680980464
Nb 8.697060475874293 7.570104868807681 7.8768554662461865
Nb 10.392025297049187 10.139871547344963 10.885032644847302
Nb 8.00110045891484 8.740706811988856 10.030008671522454
Nb 10.291218773876905 7.671567296874576 10.401194099465389
