7
Energy = -52.23207497 eV
Nb 8.851684473597293 8.695433757743919 5.839125767068395
Nb 8.213538888885019 6.499118226051021 6.695295491779974
Nb 6.863190374582505 9.302202222125935 7.136233006345284
Nb 9.317735623622665 8.519555950383674 8.373504333853734
Nb 8.64019042614586 6.265383124494048 9.249965243798574
Nb 6.361690774092236 7.0997047469571575 8.52797652565014
Nb 7.279312743336164 9.145945276505739 9.70524293576552
