8
Energy = -62.23730799 eV
Nb 7.774338258702852 7.804435719356229 6.890675340777895
Nb 9.992910115992853 8.990907645199467 6.719166848555955
Nb 9.193076582978009 9.888051864343877 8.935198867412947
Nb 7.643839442588377 6.386684210089878 8.959021746150025
Nb 10.100105584271928 7.192118800617405 8.477292404897204
Nb 7.231731258051916 10.216374924211864 7.385029652127978
Nb 8.768112555331689 8.038269666616925 10.580344662437385
Nb 6.571290202082255 8.75856116956435 9.328674477640249
