8
Energy = -59.28623164 eV
Nb 8.618654214039744 8.45410156574629 5.77044246392433
Nb 8.638967757075248 6.822238660667978 7.584655057946112
Nb 7.337084232445566 9.565716134312973 7.6090560065606905
Nb 10.123832934607519 9.462750858410988 7.410601337972444
Nb 8.933647871888278 10.528522523743575 9.283025243394858
Nb 6.2790206997882825 7.518854828080623 8.981187341615806
Nb 7.470935056060109 5.807272959189553 9.848026811323031
Nb 8.9118217838028 8.154507019555155 9.826970286969999
