8
Energy = -60.75262935 eV
Nb 11.34163712501799 13.361607485071504 11.984153824653083
Nb 14.221957032320386 13.342625735121237 11.552422950924347
Nb 12.740851110757099 15.319223409364776 11.44845065936473
Nb 13.174438503207243 10.69501101193988 14.528456498816485
Nb 13.103977976796667 14.753446242771677 13.832790061956104
Nb 11.69218826110566 12.673872192565534 14.422664013044498
Nb 12.852225519663568 11.265740961533206 12.152897739470525
Nb 14.573600798823009 12.67815939143714 14.025794141448799
