8
Energy = -60.95644224 eV
Nb 11.070208331489347 10.559262215997869 10.500433619228366
Nb 11.242269631656441 8.424867297397409 9.01193121398194
Nb 8.934352703137362 8.734096941058237 10.614774974275173
Nb 8.769710308245587 11.341576923280382 10.813079955009322
Nb 9.611187621119214 6.673264185722916 9.130836247932763
Nb 9.867924202879394 10.61081478333463 8.204986667761068
Nb 8.44594495331569 8.336160708043627 7.858825957714346
Nb 7.403473894203299 10.441242790351074 8.989600115295854
