8
Energy = -57.0670309 eV
Nb 12.86237347213178 9.906246595169444 10.069192258332865
Nb 9.450087263190614 8.474352699638615 12.191540337850693
Nb 10.139875723260928 10.074317856453241 10.087013079095644
Nb 9.627474952580263 11.844796628320609 8.069731251504798
Nb 11.913817718042765 11.343355187508482 8.438545496903705
Nb 7.758467160942982 11.20404077938709 9.378026130861054
Nb 7.692378470758535 9.750347967106675 11.248874479311633
Nb 11.759709278158152 8.53892535456912 11.655947342053667
