8
Energy = -62.23587315 eV
Nb 12.185135907844646 9.957594728057096 11.883564888048216
Nb 12.296902063134533 11.740548184299236 9.621098566763992
Nb 13.793419009866723 11.89249690809115 11.774658942753499
Nb 10.425847802129429 10.116419407263328 10.087009803747668
Nb 10.084181041476576 10.573537803463028 13.128252585251504
Nb 11.86374311474694 12.321360161230631 13.499209588113374
Nb 12.065887947296204 13.745577877658478 11.302035686819194
Nb 10.012802486593 12.29318199340623 11.288374925642104
