8
Energy = -62.24387962 eV
Nb 12.416415244491665 11.589266025372297 14.303670768027157
Nb 13.909455430667215 11.653208091102373 11.836605236848312
Nb 14.242872493977371 13.240354406821613 13.766587828643909
Nb 12.027965691438105 14.075189975260189 12.89883855525074
Nb 13.484246033349413 13.931143184664268 10.850793023618191
Nb 11.445604977497808 12.468326339918566 10.581352520005039
Nb 11.778550265761474 10.33975957860452 12.084176445069865
Nb 10.285998184363498 12.258353522956103 12.928288072410302
