8
Energy = -61.4476509 eV
Nb 6.398458099118414 8.932261402110989 6.500262505179066
Nb 8.396369980344632 10.134553439713567 7.0291050542646305
Nb 8.738788897335258 7.2545314256491915 6.89443688061546
Nb 6.180696346773244 6.666594640741419 7.254285944252686
Nb 10.100732875276098 9.035036186525668 8.307357471442891
Nb 7.451622585222372 5.999252718415931 9.173947601497504
Nb 7.257753429199502 8.73282534382247 9.089561497603325
Nb 9.440564355203156 7.209931411493317 9.716029613616989
