8
Energy = -60.83470543 eV
Nb 12.676716642357325 11.116064695393552 10.04769071979761
Nb 10.830712552118868 8.599795319416279 10.156123970611858
Nb 10.700757651724269 10.720040791765046 11.674805862016411
Nb 10.795295452370057 12.804297093927504 10.145325042634065
Nb 8.62386490078912 8.324583305164875 11.470138761437148
Nb 8.514150182111166 10.595448260516665 10.234072661792508
Nb 10.561256034473574 10.733024084512449 8.619863594510932
Nb 8.567802802409354 8.351656988309696 8.940058773160247
