9
Energy = -68.91633667 eV
Nb 8.981783806071773 10.40040293426589 7.773470458901347
Nb 11.210270880814198 9.260851739659069 8.415233448456588
Nb 8.551662957099518 8.159113453790214 8.770766274682305
Nb 10.736596991145623 7.30610914388007 9.893508610957554
Nb 8.650033386655892 12.496468362078296 9.201720691992275
Nb 8.714391826859176 8.161387166054743 11.401882608505874
Nb 8.358590169024597 10.42707261044994 10.562669752294799
Nb 10.910200256878785 11.441324959954889 9.770381844719344
Nb 10.995976177739804 9.477669464387311 11.299571461930663
