9
Energy = -68.90884615 eV
Nb 11.42663715610699 12.594017037746232 15.25856354258485
Nb 13.520872819288256 14.002401361392131 10.599240299113923
Nb 13.778837569711497 12.949438393654603 14.853313782745719
Nb 10.195223972797791 12.670283195878104 13.181853886149476
Nb 11.685432853683748 12.13181869605201 11.088648309891862
Nb 14.049822639971982 11.815247589185567 9.795087310411876
Nb 12.371657709207295 14.118716817825277 12.98223309106005
Nb 14.502541332731452 12.339036470590793 12.422028138300249
Nb 12.469115996810693 11.00187346369627 13.264573269040147
