9
Energy = -70.21040335 eV
Nb 11.889236388284035 9.946688332286438 11.215085979743753
Nb 10.364501476555168 8.012278992016718 10.822745391287109
Nb 10.906063668808994 11.729257886419004 9.602428622970749
Nb 11.53501816598222 9.518444269486992 8.592903337153295
Nb 9.3812139762405 7.890855367206633 8.527669852092762
Nb 9.493984123717134 10.563981546601786 11.884752485135333
Nb 7.955784594042117 9.123275214644165 10.467314971591929
Nb 9.003723952808059 10.284537139109961 7.983641733828945
Nb 8.33400866950623 11.723568908255547 9.893793414999523
