9
Energy = -69.75775505 eV
Nb 11.189655292330427 7.824951035426689 8.375676981578218
Nb 9.98423773664463 9.979284285523011 8.832641050524012
Nb 8.93491494219732 7.00601567023779 7.717207107687339
Nb 7.800593179857013 11.206480173982634 8.665605674960762
Nb 9.088585743764241 9.282223517576139 6.513491125700371
Nb 7.2607666112182585 7.178181321361565 9.66070570968212
Nb 6.92346121529563 9.01153479220073 7.8895654996238305
Nb 7.831788926048533 9.531939109439264 10.602582018085632
Nb 9.687162352643941 7.680556094252173 10.443690712241713
