9
Energy = -69.86632089 eV
Nb 11.72799155930999 9.563719252139425 13.05918523312374
Nb 13.785403577808328 10.127477589584421 11.83025053285398
Nb 11.204732467704948 11.318876957033911 11.370670232848674
Nb 13.856519097361412 12.257414269637406 10.695668095563164
Nb 13.359668811829426 12.074495110523372 13.567257061079369
Nb 10.848532560197775 11.548699937878267 14.216692117195441
Nb 13.37671178140766 14.283956361299616 12.269421122202711
Nb 10.963550563342565 13.662625243570075 13.054946398832314
Nb 11.62320565572172 13.664881775949711 10.500221160666282
