9
Energy = -69.29963429 eV
Nb 14.810387118912233 11.784426668199966 13.18042355133911
Nb 12.865364405853292 10.256637970434289 12.829097288791354
Nb 10.65534068220144 11.375777205824976 13.497972353052411
Nb 11.514987327926358 11.016297755491031 10.745539610821927
Nb 13.754294600423401 12.686587894215906 11.304603813985795
Nb 11.346876922994639 13.891114160364625 12.220331507294883
Nb 12.711086270141612 12.755957349895118 14.124966566747858
Nb 9.481518982625843 12.349220111055692 11.474997795077238
Nb 11.637377649161992 13.330955014923001 9.78818804956593
