9
Energy = -69.8612569 eV
Nb 10.80329554959718 7.526266240594742 9.99545223954057
Nb 10.105747502651418 9.345740325989437 7.871360309834756
Nb 10.557613064393859 9.826834754276007 10.687465252959909
Nb 9.790620855580153 6.879897793478588 7.841335910965269
Nb 9.580633870530665 11.57768346143899 8.947981660069104
Nb 7.597268308901085 7.961626403611027 7.570342424248486
Nb 8.239570878757249 8.146814004893821 10.132054596337731
Nb 7.387992523955309 10.254329597352525 8.30073904226981
Nb 8.077512713838358 10.620939191865267 10.793397359340284
