9
Energy = -69.47208965 eV
Nb 8.010161203665653 6.330671273998234 6.430302187286611
Nb 6.220975315225493 8.11529200733004 6.19413382650991
Nb 8.389439403918338 9.17670861774266 6.933432472965452
Nb 10.148950215480115 7.295858893261137 7.298345918623205
Nb 6.0059307015519465 8.663799653808198 8.656775851846945
Nb 6.259148028929877 6.172932571322348 8.256677936105874
Nb 10.221227372122469 9.214212343965686 9.09403061787593
Nb 8.42976319480268 7.017922599160127 9.231035123162613
Nb 8.070295959485973 9.768493434594488 9.661157460806391
