9
Energy = -69.30859532 eV
Nb 15.965513678193739 14.307371703064138 13.939869607654856
Nb 13.774808394110764 15.078391017005853 13.72329780112532
Nb 12.074907979495608 12.960271672505199 14.569213905354138
Nb 12.650737068122071 13.729615701726823 11.480891245474918
Nb 11.049677686117514 12.017973457257572 12.453145801898774
Nb 11.164682777789194 14.841357497175727 13.171336415387264
Nb 14.599240066381803 12.34451710867624 14.665805504761796
Nb 13.43454777050704 11.21102264571428 12.692616949985926
Nb 15.096971292479662 13.026433652973626 11.976299221851304
