9
Energy = -68.25470892 eV
Nb 14.08860237120846 14.155092349916291 10.288893949128347
Nb 12.818996398302692 12.356025861634686 9.437591319778567
Nb 10.869585773417517 10.18526520506881 10.321417929477839
Nb 10.978426590178264 11.271443068119053 13.184269481394663
Nb 13.02493494810599 10.851857115356385 11.63142808471488
Nb 12.939141621131245 13.437452793141283 12.241085081052912
Nb 10.691831618482002 12.689002552899376 11.021361974985258
Nb 8.882463259317074 10.277058017496108 11.999853639234846
Nb 10.799172176749833 8.762720965702512 12.500522133372982
