9
Energy = -68.53320989 eV
Nb 8.82812525746855 10.214270986531663 8.096355211662361
Nb 11.09605684146251 9.153953211321564 7.436183091611202
Nb 7.706986640581533 7.904588879115988 7.5930732207113
Nb 11.240884004135353 11.203940019338383 8.75253756443849
Nb 9.822691473943761 7.412547400212939 8.97314482893248
Nb 7.09160133185288 6.916697639986332 9.903884170647997
Nb 5.880034101235006 9.00054491005739 8.993175899878565
Nb 7.968052505856984 9.272818606081387 10.38084455631885
Nb 10.743009503700378 9.29808000759174 10.24824311603555
