9
Energy = -68.84024891 eV
Nb 11.416665895213718 8.28101779738502 11.50138834200475
Nb 10.434440492907479 10.193302331167795 10.098860498663303
Nb 10.755719714405519 10.165622309457028 13.014185044839541
Nb 9.213941405949408 12.072996093341363 11.47631271019516
Nb 10.342763193728752 12.559302108190332 13.546477094990019
Nb 12.111957770182899 12.412324963364242 11.68838146662237
Nb 12.55247444434208 11.362909892984112 9.12728247435472
Nb 13.091118905405626 10.003937512744434 11.326371569040429
Nb 10.759576253527763 12.916094271898016 9.514191133658475
