9
Energy = -69.7644122 eV
Nb 10.024919528227846 11.910428806015517 9.619362510067116
Nb 10.931910206780106 10.766822338877745 7.615512056440228
Nb 10.619917816501099 7.893327242186182 11.450494943358375
Nb 12.030833107874972 10.578474883914158 10.569463553453405
Nb 10.963755774930528 8.744022027987315 9.110034192541622
Nb 9.850692202805197 10.217052485598678 11.896643434263671
Nb 8.407189272332063 8.311354539954479 10.244971398678615
Nb 8.578943387977414 9.871244198626982 8.131287535640105
Nb 7.831363192599776 10.835131947644232 10.423391507867139
