50
Energy = -108.56876801 eV
Ag 16.54618791676274 11.780101027403699 9.290182205007408
Ag 16.885014012528966 11.81547735000278 13.925059273019366
Ag 15.949779800280405 13.089938074054096 11.629242460681281
Ag 17.90491941355216 10.642061567117635 16.248855102878625
Ag 15.140859621410803 14.439926224493263 9.208098104306528
Ag 16.32559469702805 10.176949269681192 11.60925831955166
Ag 14.939133504675565 13.911718038336705 14.11050983156084
Ag 17.256480897181486 8.976181238816729 14.023824822778481
Ag 14.240138024726834 12.152303002097698 7.753114282529276
Ag 14.030784890148848 15.218187759257782 11.698728801914596
Ag 14.414469572353175 9.96980781553432 9.57849304313881
Ag 15.950606381102707 12.71465659552405 16.465964065060373
Ag 13.502101554422302 7.490317988765208 10.929527919038918
Ag 13.237587002520199 16.64036212762007 9.3676100748574
Ag 13.32714796991343 12.623177889907994 10.501826783378522
Ag 14.06997910588187 11.26790723641406 12.96894654354805
Ag 13.87389734963928 14.652601985877052 16.603845260237236
Ag 15.2872545864266 10.13748117005065 15.562981867209873
Ag 13.226125244257698 12.107284149587455 15.66029975182608
Ag 12.442476483672905 14.198925488445246 8.17144818015788
Ag 12.876471690080235 15.92211022622109 14.262979469051638
Ag 12.2298360399156 13.456233305000302 13.029076633354633
Ag 12.188596469235945 9.903942611360021 11.217093575402163
Ag 11.23008113675864 18.64869993336217 9.685769313840847
Ag 14.570389202009412 8.51355499407953 13.283359971143964
Ag 12.734613303313354 9.285408918778716 15.457318175028425
Ag 10.54692966289001 16.298891877269174 8.336412747814519
Ag 11.28499295482525 14.901244907361228 10.7331626748814
Ag 11.987093437812428 8.633598909254834 8.74435261886511
Ag 12.017787239617185 17.339292181660504 11.961551056942602
Ag 11.633352245955106 11.409748985782066 8.619247894327648
Ag 11.193324082396812 14.156352019661744 15.730747732435335
Ag 10.491754499374405 12.185973889591054 11.13054530715295
Ag 10.530944637987535 11.39733660186698 16.27172557918617
Ag 11.835997754995299 7.7366059969989065 13.275661300268714
Ag 11.237490054859228 10.784605060131353 13.648005385971112
Ag 10.147764137181948 15.695625037641868 13.281298942690807
Ag 10.609258369323172 7.296484573933824 10.806795686278413
Ag 9.555446517125555 13.017627166223404 13.733726444377867
Ag 9.726636123590504 13.699114682236189 8.745132647376733
Ag 9.293085642097187 16.90201085105118 10.8489095605677
Ag 9.55170806982343 9.827290673348996 9.945001100752176
Ag 10.06236089687164 8.676418008064429 15.28906847669648
Ag 7.703820375519581 12.019169514035834 9.464034155865312
Ag 8.39974235966134 13.245022649637363 16.192722626610973
Ag 9.272677374490668 8.937742081261177 12.636566175292792
Ag 8.406212613649952 14.216220209849563 11.389312157513716
Ag 8.22563485842942 10.762408256335299 14.740606379551357
Ag 7.938950846408193 11.320549916620301 12.036901548397573
Ag 6.863365545820562 13.298670050033591 13.732981938915266
