43
Energy = -92.73999979 eV
Ag 12.37674720635359 16.225541445539765 15.806766711626524
Ag 16.40037404019983 15.56895918696658 14.088082104238124
Ag 13.785657255032376 16.438762113061966 13.380992570954
Ag 10.79009501082579 16.28356565189755 13.299758189278421
Ag 9.847730085329617 15.265313322744369 15.876110731292798
Ag 14.48491528213139 14.433884628090187 15.777269003385747
Ag 15.037895520481607 14.380623678475065 11.991708453217464
Ag 11.935750050266401 13.457587842522114 16.65832265449037
Ag 12.32595092150225 14.053697605287363 13.898131505755476
Ag 12.47608085686561 15.269275145233914 11.155304933641913
Ag 9.575220374639116 15.101230597068312 10.992649117279687
Ag 15.96421841239123 12.788684025709845 14.091228950941842
Ag 9.152726579617413 13.929969081509972 13.563299320214933
Ag 9.28847231909484 12.613369149590214 16.238989564983946
Ag 13.799115921106203 11.65708457805482 15.585416249694743
Ag 13.737343697222995 12.936926660240653 10.06628551241796
Ag 8.56622178092906 13.791110843864697 8.614960617048494
Ag 13.480291873307092 11.732016713387763 12.719845981268735
Ag 15.935844192574992 11.752749750756243 11.385204323362675
Ag 11.329551880181663 13.85614954978368 8.944899870451938
Ag 11.344076855465294 10.555696765625296 16.642542033759607
Ag 15.581285410353287 10.057904376308606 13.813253091013484
Ag 11.057050900728356 12.812016321159032 11.592083307858276
Ag 10.999932126223836 11.606776599440229 14.132247232409986
Ag 16.869745284762146 9.20523320404684 11.302749613658548
Ag 8.540558061976895 10.020651783336424 16.508964448644143
Ag 8.06693276914957 11.3296072349503 13.985197120510218
Ag 8.102801885075337 12.66574729942075 11.31140975280468
Ag 12.900632323761844 11.800567005470763 7.69479536082252
Ag 10.287510156436873 12.436798497268413 6.720437432844597
Ag 14.879485043229536 10.296662543867969 9.220166884270096
Ag 12.856984192180478 9.335601256737597 14.356522201198109
Ag 9.71017130072139 11.400410905715026 9.26334638607192
Ag 12.166083275241911 10.553112623021761 10.352984267796904
Ag 9.986813237254058 9.018908373829666 14.377058554158705
Ag 14.165760961447319 9.007592168454675 11.677689522278033
Ag 9.576023429490858 10.302565181333247 11.87252425553248
Ag 12.12853091344216 10.965821013700808 5.141623352088714
Ag 11.101736075025041 9.671777002605443 7.3560758179612735
Ag 13.815983535618782 9.300845139758781 6.73055527553025
Ag 11.534812561169423 8.319727634960776 12.097027357399748
Ag 10.132283762570253 8.607086408544077 9.699843165150549
Ag 12.919242240090067 8.186524882370973 9.131356681903306
