45
Energy = -97.23476290 eV
Ag 16.133922048916208 12.127315802132156 10.46684315682244
Ag 17.46011286066561 9.801278680948727 11.490117193025592
Ag 15.846038902420132 8.735819908316707 13.564228285146106
Ag 14.711435666703174 14.572352775056814 9.93574428166661
Ag 16.56482903462721 11.578871966601874 13.443827858131721
Ag 14.827001406736882 13.613488645484608 12.598703141790342
Ag 14.610314923436666 7.581340573739117 11.0997930666174
Ag 14.10151264213125 16.365951216982427 12.066663763114
Ag 15.888751191780102 9.459360458425618 9.283606696300543
Ag 15.257624846235597 13.263798752704755 15.342881449023265
Ag 13.175682089925221 15.033280036870405 14.404797193262528
Ag 14.251357330818712 11.541052931825547 8.260006377667972
Ag 12.54041481823561 16.36545422269299 9.634725329587333
Ag 14.13806338656891 10.819924095539823 14.652187435205832
Ag 13.150793491310413 12.409202785630269 10.590794134610638
Ag 14.519424925763955 10.30874546637824 11.761640666694397
Ag 12.961765594766137 8.545798727192691 13.355890805951276
Ag 12.457802081254433 12.799784150923168 16.003285013815884
Ag 12.204244846970445 12.375653879816335 13.230614315324377
Ag 12.50555971902808 13.856800065368303 8.276807371455362
Ag 11.710358972527741 15.004991208777035 11.990041944467551
Ag 13.139757696195351 9.093034603985142 9.240285530989183
Ag 11.392780972175988 11.240424571068552 8.620636773350265
Ag 11.012555191020219 15.906798495748287 7.210780138753034
Ag 10.006448699592186 15.145427343341979 9.678600493872862
Ag 11.590886356003052 10.195572789856307 11.454673144379074
Ag 11.699970899050456 7.412085971320981 11.049137243980082
Ag 11.409187102167799 10.293054028706868 15.053188178113277
Ag 10.42135731277545 12.694341282353442 10.986373578918357
Ag 10.461905426068226 14.303233938295733 14.466779335456248
Ag 10.108510855702479 8.59091560312731 13.22401485684153
Ag 10.379533007130856 8.675241140473737 8.909542214492365
Ag 8.74675198653522 10.776982627707744 7.826411852447379
Ag 9.8360272779615 13.3530989527736 7.48570679021159
Ag 9.381457511729481 11.584761876196165 13.403291706430867
Ag 8.788090169955371 14.533491228598175 12.174957918801047
Ag 9.646156148544316 12.301672390829541 16.21055540108089
Ag 8.74279796879565 10.438723692096552 10.591892380734219
Ag 8.651136688317129 9.74020685826357 15.407269190282529
Ag 8.756810951634494 7.682646802769083 11.01536389453905
Ag 8.01779800051532 13.036193908218195 9.650528939101111
Ag 7.735853692858532 13.747666925565596 14.669420579415114
Ag 7.414950725071618 9.467761741115815 12.829283169006436
Ag 6.979118032659863 12.297635455970712 12.18084283572157
Ag 6.4444525651998905 11.325432454316067 14.733383314411482
