41
Energy = -88.43505309 eV
Ag 8.387230438814901 9.09168187434522 9.952072681843164
Ag 9.624258887285661 8.3704192435022 12.490389472428152
Ag 7.718186883630724 12.131102689370456 14.492788271227775
Ag 9.67258234758568 12.138709375613383 16.425992585572004
Ag 7.766293821623836 10.437878525255826 12.306231631181058
Ag 9.84888306725239 6.743267376474098 10.22736044130357
Ag 9.768862021309468 8.15113527643748 7.735655292816921
Ag 6.965137937437858 11.622833828424302 9.876630199022353
Ag 8.787661247806968 10.92404287594057 7.744857697324126
Ag 9.249594465353589 9.709103541115976 14.97962218920555
Ag 11.639441008043924 9.79773652243521 11.122928954560983
Ag 9.794082897680644 14.091068614245376 14.293240810535256
Ag 11.715006519412754 10.218846780927747 16.5143301337854
Ag 8.428607338684735 13.938082852943978 9.188558636388972
Ag 12.239871712889377 7.211729911811678 11.900807965232158
Ag 12.127039517213094 12.738923489040094 15.3506336170149
Ag 11.885815520466656 9.2904238886853 13.91209675406435
Ag 10.197332006872426 11.543502898227548 13.089306117175395
Ag 8.228700135013467 13.411520582709489 11.973280560788709
Ag 11.475363868011641 10.321967559223273 8.185591468931818
Ag 9.728385934695694 11.603292487913926 10.258820386012752
Ag 9.780693423856352 16.016757238635936 12.169345246855169
Ag 12.709206551669253 12.087669176759507 10.019318062232077
Ag 11.047529556176448 13.820814562627994 11.314922357212776
Ag 14.132449915383063 10.684018215159478 14.89432881893029
Ag 12.213983692677722 7.746271476505805 9.104461565487005
Ag 14.218174710683728 9.374587389133062 12.278181690708049
Ag 12.364299203558849 14.90229527375917 13.51691428343568
Ag 10.88695352852242 13.135697630051864 8.086365416011954
Ag 14.732670539443463 7.405783758155803 10.40882322634075
Ag 10.546855287242645 15.757510173724311 9.211664167046424
Ag 12.901088319584273 11.96183169273608 12.741006155488853
Ag 14.113257144899102 9.829764514132899 9.167141357631232
Ag 12.508168397649971 16.331706118903746 11.107235488072593
Ag 15.718004791252454 11.766978592455638 12.380354765037879
Ag 13.591828525089477 12.190089103709898 7.462281981785239
Ag 14.68892426133603 13.4846063867632 14.318908315344968
Ag 16.482432279048584 9.76404312785905 10.583304845062129
Ag 13.210623563456624 14.651136877290094 8.950867734130926
Ag 14.31111503085187 14.14910992383866 11.519069460517763
Ag 15.491945422035514 12.350600294658435 9.642850917756807
