28
Energy = -57.34761073 eV
Ag 8.078544759891377 8.617787024160334 13.292334766490837
Ag 8.893396427859052 14.046502196357396 13.181765329978141
Ag 8.370656810974914 14.84545449422417 10.591251023679819
Ag 13.311200808045673 8.199166996852128 11.905606044456025
Ag 15.058224416495408 10.302754210609777 12.122325859371934
Ag 8.26320921103383 12.177869916298437 8.785028083936
Ag 11.26304914784747 6.375197793304479 11.917121627391504
Ag 8.279033938520557 11.379810763630775 13.476213518766546
Ag 11.853162484324356 7.663001297583181 9.590767865908276
Ag 10.188874264476542 10.011068592471785 14.933523423055847
Ag 12.1073349442516 9.293340564315955 7.382157129936262
Ag 6.884611080245164 12.631026094565163 11.324242293850903
Ag 9.10040222193748 7.603258491635752 10.703031246802771
Ag 12.84975469779841 10.215259507709689 13.821288225592328
Ag 12.440232501524212 10.949307247812452 11.030893668057313
Ag 11.054955092898137 12.289084239118516 13.547424186761134
Ag 15.154083640288013 11.952836713820258 9.962158560488882
Ag 7.837630602702597 10.093894247363794 10.96473416969311
Ag 9.799149749403682 12.248247397977327 11.036944913931707
Ag 11.23385468834484 14.528605946527524 11.595135535251591
Ag 14.121419071170214 9.349430733902455 9.439118444748022
Ag 12.794599074906442 13.3679850743157 9.594415421375675
Ag 10.557881941566206 9.369230972677409 12.251374230984576
Ag 10.280790545688282 14.153244008998307 8.830887668591417
Ag 13.647844668545533 13.033542524876593 12.341568442688557
Ag 10.88706355205196 11.865293331014191 7.467203886318073
Ag 10.191341181203418 9.977754545583258 9.37430584059914
Ag 13.619916346748079 11.582262943036504 7.659396462036772
