53
Energy = -115.96831288 eV
Ag 17.757799636972646 11.759225890264837 9.600281609481021
Ag 18.194321327756708 14.142932928080777 10.810067979417568
Ag 17.725995798898584 11.852362187659 12.48807348712189
Ag 16.855299595519334 9.411738249123758 10.745187910338753
Ag 16.006397747420202 12.315376621817595 14.829941010350183
Ag 16.68901445187574 14.5318258998728 13.1975972727978
Ag 15.963406615813343 13.718553353139697 8.559004062787693
Ag 15.302575246618158 10.502395558443473 12.690749957964703
Ag 15.47086884221431 13.037130138958403 11.188197199910864
Ag 15.181478635012589 10.979584923839605 9.03452297831204
Ag 16.11870755708245 15.88935734271759 10.568028415293565
Ag 14.055258628136736 8.094838448549126 13.497515975476114
Ag 12.100212171480319 7.336752272771621 9.143013563874153
Ag 13.867893940103118 10.413455086148197 15.216642938105181
Ag 14.067709835550007 8.841943569881643 10.57316470420859
Ag 13.655132533355031 12.745532605760495 13.395369801736834
Ag 14.610249923337726 14.868529718295854 15.11974633088965
Ag 13.793389762984836 12.736866953725508 16.77706047179367
Ag 12.900717002922367 9.869377738242173 7.961871788570055
Ag 11.765957615583437 7.5537123524455785 11.976724063928696
Ag 14.12906641675946 15.63543308032763 12.463190566220296
Ag 13.639979369909254 14.916741453118092 9.817796530856656
Ag 11.554020799360908 8.781693174241134 14.77832440926336
Ag 13.270792248584371 12.77393393874804 7.956532392421419
Ag 12.51985344991524 10.233510080233762 12.601356437276497
Ag 12.819905881986239 12.169187733381971 10.617225499486127
Ag 12.741995960387838 15.706247800188097 17.060591622632803
Ag 11.452683795220784 11.063743400877202 16.56398231356978
Ag 9.363371618635556 7.695329080179089 10.313113640933963
Ag 10.227147661707024 8.918994628349163 7.720083945250065
Ag 11.776269966879239 13.838665933834749 15.210451353133557
Ag 11.225950986995045 9.763799983387829 10.215118977139829
Ag 12.330266258888583 16.519768638766113 14.368611455758064
Ag 11.091498995835863 13.618772636186225 17.87347179691394
Ag 10.60271213269805 11.75826903545289 13.896194273206975
Ag 9.664699729144543 9.380192976129651 12.660034820407311
Ag 11.013574101599005 14.197773417356066 9.466714374422294
Ag 11.497250763885766 14.207402257884068 12.407310787721855
Ag 11.738021363553012 16.658781620612288 11.2767442053364
Ag 9.033410967982235 9.971632955613655 15.399378687457398
Ag 10.633220164616592 11.73662475953812 8.291521968990859
Ag 7.1694736309465785 8.98749438872218 11.611865127411182
Ag 8.468160989316411 10.289635312543288 9.440646062956281
Ag 9.076559311578473 12.677946241299871 16.174763633059833
Ag 9.893554256410242 12.11192073639316 11.23557224018638
Ag 10.010660586699476 15.745861851184587 16.065622364265288
Ag 8.970148573216404 14.170307601185083 13.839208942239587
Ag 9.783799485921973 16.768357500549985 13.411445962948983
Ag 7.76735751066714 11.550263130848316 13.409741434280633
Ag 9.143361618441041 15.325815974718028 11.123513213823035
Ag 8.251258628019787 13.241132790930596 9.349364852191552
Ag 6.51684045878569 11.567022273549796 10.869282902935655
Ag 6.9340026117615485 13.970625314229084 12.029765942903369
