45
Energy = -97.63639647 eV
Ag 15.111204593458071 16.739477240982335 11.208147096971105
Ag 12.927442628750875 16.455220132586717 9.329413331714065
Ag 15.844687080372788 14.330312569215183 12.350352217805314
Ag 15.0147847379391 14.489293476198055 9.54606241620954
Ag 12.613157534626174 17.659128391057614 11.88088873658589
Ag 15.323567406036178 13.786420506285385 15.040140092739607
Ag 14.033715969908659 16.050349260522793 13.904365582970273
Ag 16.48679331533611 11.434421788190072 16.16526212831736
Ag 16.616561924617244 11.770459551284102 13.388347147116992
Ag 16.135693603352355 9.206609560159928 14.386844105623592
Ag 16.006548702077772 12.113538605192531 10.657208333884327
Ag 12.853427466363193 14.07568905292818 7.741382345379407
Ag 12.995649171832865 14.768047119264503 11.723908226871977
Ag 13.827794796396162 12.145830595628123 16.664980433495387
Ag 11.077386086152249 15.962846893774929 13.461543003157146
Ag 14.949196188627676 9.868930382296627 11.878389870116052
Ag 14.698212700057672 9.437686311634847 16.806417453703766
Ag 14.8474963107982 12.024283762324197 8.097214671596225
Ag 13.844470848066505 12.23445295904136 13.106122050081188
Ag 10.35408034386223 16.790164714370825 10.541263441871477
Ag 12.38965842529012 13.91438188076244 14.906297271483648
Ag 12.367601576997316 10.25214977291113 18.025134658127993
Ag 8.534478980904977 12.486076142026878 10.24610229288489
Ag 9.899010301180464 12.998161590187971 7.682566429699033
Ag 9.281889773358365 10.339078210143422 11.980410297844248
Ag 10.717946678742612 10.910089806313193 9.62717447647352
Ag 8.44895073468803 15.077874340248421 9.212255867270038
Ag 9.258824209305038 11.175356629369507 14.654411760975169
Ag 7.721748892332979 12.572391442864022 12.90749115548963
Ag 10.124523791967285 9.506677730198343 16.633561055614972
Ag 10.622969121795686 8.660079334472654 13.946920689328307
Ag 13.512917909290971 8.42062968348006 13.73971999229395
Ag 13.15511746796953 12.351015508850985 10.3193229434049
Ag 12.225322651830796 11.424287199833959 7.361564467755215
Ag 10.946916038827007 14.068143740154593 9.96991060057964
Ag 10.882495819102475 12.346729753863029 16.751081396539277
Ag 8.9504925471098 14.865362392218445 12.009772464771318
Ag 12.102367967386382 10.044280778961907 11.94444526128651
Ag 12.356302397292287 7.953545519941529 16.207247450700077
Ag 13.45056671506566 9.8047949942017 9.438683783423652
Ag 10.974404045333294 12.683349108833323 12.51950352898293
Ag 10.68393370366044 15.825451816254729 7.7307610503134
Ag 9.540831584911079 13.961406058774838 14.68689068477442
Ag 12.13345127204849 10.824929061246477 14.799370271587142
Ag 14.928634909982915 6.963823555952288 15.594376387190959
