28
Energy = -57.86718987 eV
Ag 10.044745041883553 14.567730290481816 10.650556663162837
Ag 11.95680662759457 15.468934769701322 8.453473186524274
Ag 8.535538839513741 12.200584639527957 9.97398713143278
Ag 10.972112426986557 12.850540393137573 8.618226876384165
Ag 11.385841254319798 14.013290634676197 13.236128787707871
Ag 8.67646219111058 13.089073349054095 12.574774744074219
Ag 10.346961324790806 10.198820675683764 9.224674157895613
Ag 12.766261548646497 14.010856097019177 10.649474269180892
Ag 11.034382867303258 11.833734122061596 11.455891005102535
Ag 12.892713178461166 15.139833270159693 15.322624343360452
Ag 8.8995830970311 10.098211345376102 11.955198826317867
Ag 10.241720574366681 11.482828154097746 14.14183898390104
Ag 13.607210149433794 13.303161707715441 7.885708025436073
Ag 14.244770861710466 14.464381728999777 12.973544883623868
Ag 9.781298757429552 7.506571892324175 9.607583657356182
Ag 12.272750313113065 10.790770053507416 7.098209755620154
Ag 10.991210761203375 13.27847661368168 16.194852241173265
Ag 15.304827509515084 13.166289948160118 10.268541558588405
Ag 13.18696696004557 11.148753962240912 9.639867271314174
Ag 12.461463116421578 8.471807590550203 8.955530742845387
Ag 9.038926728688539 7.191888641043866 12.244732895476586
Ag 11.495779959079934 10.400945981774546 16.26505452572118
Ag 11.289490844345927 8.73730426477157 11.557797527926867
Ag 13.90078149915902 11.815297855997663 12.22847123322548
Ag 13.184703151511773 12.394502036110435 14.824446185159736
Ag 10.186556837445751 8.680939770003516 14.294511451188574
Ag 12.634010552466515 9.926723460729578 13.71168994266573
Ag 14.030555336434597 9.132179061425587 11.357041437646608
