13
Energy = -24.08028916 eV
Ag 9.764589213254412 7.847636050772539 6.5492849871538965
Ag 7.811754563289029 5.8828624741406745 6.207012772845581
Ag 7.462804632689767 8.47364907836366 4.979260513900793
Ag 8.52719577880591 10.304993814538202 6.898821967848995
Ag 9.198191658145966 6.237768807890288 8.800396104596588
Ag 5.797294274714376 10.202453992296096 6.526912719438526
Ag 7.0244147089765665 8.044421836968727 7.709633856632079
Ag 9.590158536296103 9.021852638700679 9.135119389948695
Ag 6.474194994145546 5.668773087027541 8.946880471850621
Ag 7.045098417595333 10.3436604927672 9.330866673255569
Ag 7.377459958661436 7.674813795638449 10.556735372587978
Ag 10.04618864387059 7.276247085047105 11.248841752079375
Ag 8.592403274479025 9.839065568825335 11.643171707797327
