37
Energy = -78.19571301 eV
Ag 11.188144468441957 14.40023918142014 14.974639501071117
Ag 10.18331186378923 13.04292983693097 10.1178430165732
Ag 9.647871004362555 15.746836549758383 10.587265389533151
Ag 12.362200941977191 13.285380375471396 12.566445488808277
Ag 10.571525237998541 15.024544012439081 7.986616790765034
Ag 7.928443134559434 14.55726354069377 8.445064993546193
Ag 8.583414502018716 9.065730675157411 10.388500494610899
Ag 12.404304111806647 14.884269318202556 10.072736755483431
Ag 12.747833684760382 8.151565150828171 12.622427429944818
Ag 13.98492183361839 12.549394840585332 10.318522395438704
Ag 13.213169130127788 10.099655837256517 9.017405530725384
Ag 9.496148208678902 12.552107020957932 7.2048667388384215
Ag 13.400150903732557 10.83262289935371 13.716474196097955
Ag 14.836844748550126 10.054786811967412 11.350930320612612
Ag 13.985318462369431 7.637836975826734 10.098903714315265
Ag 7.75006079643693 11.545013056008994 9.23251212593297
Ag 15.474130382501809 7.563355953929765 12.47096504902807
Ag 9.571584868755156 13.9694995305375 12.801790275791438
Ag 12.65418481300611 12.306868131552854 15.981915047053816
Ag 14.183930164085702 9.984755564860322 16.380363404354622
Ag 15.484067280202071 12.275266734061267 15.477797459537674
Ag 11.753864801870924 10.844908224185405 11.370966411192722
Ag 14.257064535390747 7.67519051342112 14.952745844315446
Ag 11.243712760820172 8.181132720055501 10.243511550250206
Ag 12.201956635966724 12.621214893130846 8.204464937731906
Ag 15.41988542307999 12.50532918079041 12.70917206090828
Ag 11.737926825800676 9.14111686552505 15.116396475898952
Ag 7.451868364370037 13.755029555692824 11.040825324163855
Ag 8.804623167763696 11.379429472280183 11.944656698337525
Ag 13.980730820937794 14.45783958808031 14.613937817908637
Ag 10.08877174816363 9.03588816403345 12.823912946284151
Ag 10.369157862892832 10.477046878542412 8.820791241800512
Ag 11.727202866290405 15.999961896532104 12.584698725874071
Ag 15.985362741906881 9.866148671388801 14.085802241436737
Ag 10.587138308382217 11.590964649180556 14.08422281249561
Ag 14.488724229947959 15.010546042418483 11.905149755586498
Ag 5.581674049427243 13.259556371734067 9.015984722542376
