49
Energy = -106.65491036 eV
Ag 17.35452379360274 15.483326808065582 12.505484443314286
Ag 16.627446718410052 14.296858528229153 15.269200798562181
Ag 15.416534662012587 16.605600042032638 14.233021053434038
Ag 16.371449090132085 13.95732777957671 10.268313094860831
Ag 16.39378833147111 12.878511721112083 12.819311491595997
Ag 16.889806978193985 11.469743498978215 15.292671254326462
Ag 14.77283192818398 15.812957171889165 11.583288614240782
Ag 14.24945984704844 15.424203085307248 16.523612209460673
Ag 15.962266732633562 11.196972076158206 10.54430989732655
Ag 13.430229392629952 17.94007797409125 15.738158481628323
Ag 17.117580850264844 10.08285126305968 12.878934024788741
Ag 14.001536973540938 14.04307536375783 14.021101646294989
Ag 14.617135428757436 12.602592499979753 16.40238276375334
Ag 15.639248005312826 8.099294853231386 14.231791711541662
Ag 14.49179034496244 15.456508977527982 8.76730640867914
Ag 13.053774876982047 17.5725139198726 12.941829409521707
Ag 13.741918106911555 12.670734330261887 11.478083400835194
Ag 14.473801264882127 11.050267602335637 13.790312705481607
Ag 14.534684998755177 12.64373314988647 8.576467085333093
Ag 14.848070143186153 9.708800856811452 16.327032869397165
Ag 12.450009647405192 16.815906643647903 10.159924340077236
Ag 10.974396760354955 18.57710177640929 14.548622472178614
Ag 11.689353599683303 15.875433340738434 14.868875812303514
Ag 12.001211568870124 13.688822203911256 16.657676137422005
Ag 14.782186049888322 8.957432335981276 11.72153418147104
Ag 12.164547580893112 13.969452673891945 9.29210393763005
Ag 12.119199392695679 14.964296130870068 12.14760363918154
Ag 12.422172804706179 10.940018185102016 15.819068856078017
Ag 13.536510565502464 10.18531468620658 9.538389162205554
Ag 11.981451552515816 11.62826839187667 7.714302423254715
Ag 9.78781370846058 11.894307606605482 16.308545002230396
Ag 12.19330657225395 10.371856152768682 12.128648989508044
Ag 13.927657344495563 6.512104538980642 12.685162289782598
Ag 10.391291567118795 17.34581599233234 12.118893412238782
Ag 11.375676473062764 12.900521930049159 14.073451289412086
Ag 9.902082536966809 15.260193221193916 10.293813731549653
Ag 10.719329118521557 12.65919306286049 11.432595650334935
Ag 9.389450107779655 14.560449453576124 15.866601093126905
Ag 12.862659632142995 8.605812896469468 14.211332421519156
Ag 12.424009213383968 7.822325684724115 10.684623383319492
Ag 10.344502371544639 10.08076915857589 14.213713137185046
Ag 9.397352242815945 14.909890009534001 13.138729357878026
Ag 10.782967602810833 9.87912126460963 9.587021132214916
Ag 8.54264069311869 12.233870537088059 13.748871993281387
Ag 9.598231661442874 12.449951773720583 9.005444607630064
Ag 10.050172789559044 8.415549903194535 12.003221685847906
Ag 8.682787167094196 10.729052574183905 11.215713317502969
Ag 7.983142771345056 13.434017694286837 11.182907238843722
Ag 7.763172147190751 9.493238373989643 13.48510907701328
