25
Energy = -51.00051832 eV
Ag 9.670773189587866 11.36679309352777 7.142308273421359
Ag 11.89982718621774 9.486187722220174 7.5325841919018295
Ag 12.262561291620969 12.345317628841295 8.385026332021498
Ag 9.195071081615785 8.621040634949459 8.10053377750525
Ag 10.45006514823322 10.49561240263796 9.593990624978767
Ag 13.32810425003875 10.209589948620987 10.010960127542754
Ag 7.774618597830658 10.841804209174217 9.261013634615843
Ag 12.055316667355106 14.695795569430036 10.01517337134217
Ag 11.34769533718468 7.884102028152439 9.939286749236942
Ag 9.576786227001335 13.228958998361293 9.520956081102561
Ag 11.707358748512242 12.29208870716543 11.192485272135473
Ag 8.841767649842437 8.828466175711583 11.131755747940495
Ag 14.323523213662929 12.885309944567096 10.57714706491804
Ag 10.12999651938599 14.298828503120188 12.258953753930175
Ag 10.601054112253657 7.246792399920599 12.761359257526397
Ag 8.958611032622839 11.631025408352187 11.844579597511807
Ag 12.996820778899318 14.116156288332737 12.862671064063985
Ag 11.568663190763745 9.663745540271467 12.150655491127191
Ag 13.831208786030686 11.128081373747973 12.771555113940689
Ag 10.835365141845996 12.10688229991161 13.949286766830097
Ag 15.5293932656092 13.17774191325244 13.364336368374152
Ag 11.322616199599816 14.597079282319312 14.976752006934198
Ag 9.423291985619354 9.641163686687818 13.855777701153604
Ag 13.366687402099956 12.53445723918851 15.201953597089094
Ag 12.254575161682645 9.928731166652602 14.85065019797297
