15
Energy = -28.48402048 eV
Ag 13.124145452412817 8.673663704357287 10.342734641301629
Ag 11.258695629095957 6.494748759160672 10.25697285021544
Ag 11.127408885936088 8.685973210247864 8.400009122842048
Ag 10.560003449865667 8.98905960602784 11.261149789618495
Ag 11.729351901281499 11.139996602232099 9.834689418616302
Ag 8.870744962472843 7.155562170912922 9.005119225818214
Ag 10.854556337032674 11.184991287114876 7.143982081325046
Ag 8.829682074060603 6.886261739092952 11.7805084187642
Ag 7.7420653141401985 9.21709709923899 10.497184078645935
Ag 8.33198945144557 12.261371831379433 6.756764844198233
Ag 8.584017811189113 9.707725690755733 7.847043747976414
Ag 8.629467049696922 9.393983680119621 13.155375101278189
Ag 9.802222811226466 12.948759949920941 9.073168530509808
Ag 9.237914675751433 11.517145914047088 11.34020536998536
Ag 7.279932704700353 11.705857265700015 9.267291289212881
