15
Energy = -27.86153632 eV
Ag 13.361171071827664 9.410153080981814 11.233094033313176
Ag 11.8210446594074 10.260373876508671 13.411069063735805
Ag 11.238114990709544 11.36231122229015 10.90908053008289
Ag 9.145645516468834 10.663460624875379 12.648903881141365
Ag 12.105769346178478 9.758726541204618 8.777768231363437
Ag 12.412511000426038 12.499951144768886 8.700422949860489
Ag 10.593883465618505 8.570955037846135 11.544380060071784
Ag 12.231249979325497 7.254873199106458 9.81347928304827
Ag 7.972249364241329 11.736486506417467 10.41270259990927
Ag 9.91387116213852 11.31443376600555 8.234036154313724
Ag 7.8104012344111124 8.996623648149146 10.915721497554776
Ag 9.684164383558134 8.389883665886076 8.787888864700438
Ag 7.5882169293713035 12.7228115988739 7.856445247112166
Ag 7.461794514071897 10.015244754779271 8.229855273747441
Ag 6.9896605118983315 7.432619257804651 8.865066161390136
