27
Energy = -54.92049539 eV
Ag 13.836785543643172 6.1089393064019255 10.476145722425665
Ag 14.039407166163379 8.493115442140242 11.813006716800693
Ag 14.018623328778187 10.493850470625603 9.853819429662325
Ag 12.485955654851171 8.246274987053024 9.378788367737274
Ag 11.916800551952495 9.087782914862117 13.691997436330153
Ag 9.852927282252763 7.194187577590754 9.798727906907784
Ag 11.619945314828716 7.027162031154647 11.866582544540885
Ag 12.105312388862375 11.52577323053021 8.094104112104615
Ag 13.590534792909175 11.125666493491293 12.528715390076156
Ag 13.010778141131132 13.014997435167832 10.395068924774503
Ag 10.365482315004861 9.37619559690322 8.034746979507407
Ag 14.81216737778411 12.928214346456338 14.295365423680854
Ag 11.15205639553426 10.645934443978355 10.574304918194239
Ag 11.036067398698114 14.038811222927853 8.629796090817317
Ag 12.556127450736708 11.51127485534499 15.078553153645128
Ag 9.47506236543224 8.832266020872964 12.123125726595715
Ag 10.513287300663208 11.410624218999015 13.236124799904408
Ag 8.102820609132603 9.325358180784617 9.556250162676632
Ag 12.42003229889857 13.633538780792493 13.108271026903145
Ag 9.188879583946434 11.84962307042428 8.752430410027193
Ag 12.015226162706739 15.557921191278602 11.103109019561325
Ag 6.6353806915523075 9.352999916353841 11.858714027085659
Ag 9.470090192905516 15.86278944678741 10.031842631235035
Ag 10.235217866551752 13.434323623098035 11.256373574674614
Ag 8.364574072295317 11.417926136643311 11.49695346796
Ag 6.272698410617046 11.435666475452168 9.662690595462584
Ag 7.637606038764296 13.798629280480887 10.034238137304861
