30
Energy = -3.53026056 Dir = /p/work1/plile1/GA_structures/Hg/30/all_candidates/4820/
Hg 11.83869614668133 10.521505239687565 7.579510043098099
Hg 15.347432852978343 9.211552800799607 7.811696216875261
Hg 7.012193651785062 11.332389670641339 7.860195479743183
Hg 14.566673919359246 12.666661382771105 8.090971437443496
Hg 9.963323613380576 13.190158264698045 8.604983234147292
Hg 12.59201830162945 15.596376336583834 9.14690757456764
Hg 9.447187581756474 16.930041550749575 10.24897135208941
Hg 7.010630491994997 14.273893032732957 10.194964719928636
Hg 10.464516739769556 8.63836720587492 10.24145865257426
Hg 15.9180696499976 15.317577975864383 10.20827991527148
Hg 16.902712185458643 11.061343807817329 10.511479815905323
Hg 13.462238235545186 9.983464129154266 10.49209917613172
Hg 8.387370814770156 11.30341427656843 11.03580092532334
Hg 13.693091380975263 13.227881833819348 11.312829314311614
Hg 10.506606850646712 13.980279174269011 11.856762287752666
Hg 14.535932763768038 2.7175664830082376 12.119027504946812
Hg 15.330438246955099 9.151344243686655 13.17520635841975
Hg 7.859296449277272 15.813027825646627 13.206187972085377
Hg 9.410401164385064 9.176783254721153 13.487042710736214
Hg 7.272330476254557 12.383324010643955 14.042670014455833
Hg 15.591559556394099 12.735507191953278 13.996661081276006
Hg 11.52597626910618 16.70466336935778 13.43784121957475
Hg 12.075483518450184 11.294404028510817 13.443549205800744
Hg 12.406057986870108 8.147188550567037 14.81725403452724
Hg 14.559907379784386 16.069711949464157 14.803406060481267
Hg 10.0072957249154 14.009481545810125 15.328693368208095
Hg 15.066152010103737 10.246676380606182 16.403606529148806
Hg 13.203686280201302 13.206242436740421 16.373299935076645
Hg 16.67283319804516 13.739839292710466 16.979189495403116
Hg 10.777128248233852 10.77657444401581 16.596696054169623
