30
Energy = -3.56833418 Dir = /p/work1/plile1/GA_structures/Hg/30/all_candidates/3468/
Hg 9.241348715048906 9.552505517722324 5.600652123310871
Hg 7.155355993353352 12.400015008632161 6.094823755900603
Hg 12.035637192267545 11.61680305356682 6.579010737271223
Hg 11.956671728041956 8.211643137428771 7.158381587978522
Hg 10.276305054726034 14.543175326720297 7.125462712064457
Hg 8.959215943780876 7.457499592529512 8.51458332263606
Hg 6.366621756132436 9.795357512928899 8.743965393774413
Hg 15.064214471869013 11.6056846674204 8.17985662336262
Hg 9.192692260907458 11.663132792833453 8.742703941977414
Hg 14.767420808465932 7.944378518305638 9.52837000200059
Hg 12.694979820905802 13.713543932508122 9.502653950249627
Hg 7.212741133791992 14.539218057565028 8.761679358747354
Hg 12.21942139760034 10.321114933803923 9.797778458300499
Hg 11.917267795315045 5.5492024521178 9.244496751395555
Hg 10.01875530984552 15.591906899421327 10.562117035077863
Hg 7.155801969866617 13.763924807593698 12.050063621612134
Hg 9.501625318423043 9.468457569976321 11.37700809020911
Hg 9.555438515527328 6.021294388256498 11.637870865149816
Hg 15.902369288588105 11.364160976752633 11.398104093281127
Hg 12.944151208176057 6.108717609261105 12.430207459330981
Hg 5.251122800722636 10.852670496152042 11.842446170930419
Hg 6.626201902610713 7.719314730119776 11.887074922309989
Hg 12.932075445456391 15.22625894136258 12.434947665111254
Hg 13.43083023807193 9.366840325207235 12.698841810454347
Hg 10.560426140552966 12.620621206053029 12.12468196314453
Hg 13.824148150322447 12.41028209101516 14.018420138258016
Hg 9.244889020983326 7.9350158430975 14.450770609558042
Hg 7.743622158224971 11.087555379781744 14.027101896067274
Hg 12.469697775369376 7.873976213882579 15.60372545814229
Hg 10.961684733693714 10.858462066625949 15.064933531035889
