30
Energy = -3.55230992 Dir = /p/work1/plile1/GA_structures/Hg/30/all_candidates/2238/
Hg 10.206683177453426 9.169289229860059 5.254075372379151
Hg 7.345043208166318 10.996654222016762 6.031581321758267
Hg 12.006815951155385 12.03606660343603 6.314255821686573
Hg 9.649853234292236 13.827869647505455 8.386935327456872
Hg 13.047656453660297 8.907200445769714 7.332403339670518
Hg 10.247960634881396 6.56246711506756 7.624573561723367
Hg 9.908262276667367 10.221257855021898 8.494102427889334
Hg 12.791765768275015 15.137450175365078 7.886030701909
Hg 6.242256008716498 9.685426936323914 8.924792335455175
Hg 6.130694611874191 13.136968922820422 8.582477041145957
Hg 12.44703029166644 12.291798299779009 9.905393159462434
Hg 13.564242273410564 6.047710435739779 9.1870388939847
Hg 14.876879736656171 9.162379925441098 10.193390224294488
Hg 7.6229484693541645 15.414301262271008 10.7262299459656
Hg 8.449882182108547 7.575555046613322 10.232679774405408
Hg 15.854222220456863 12.28645302719666 10.989218559391144
Hg 8.130632980597012 11.91379659972589 11.096733194624209
Hg 5.2263154208376 6.540487997263871 10.435700109969261
Hg 11.690414497272954 8.610829005559829 10.908226452509865
Hg 11.2213489219165 15.427579973105274 11.17959409462873
Hg 10.727204505823773 5.25537189959819 11.242074033012573
Hg 6.2765795941705 9.16633647239805 12.321260675290636
Hg 13.35144941402916 13.582043408674888 13.07910481458517
Hg 10.979020595837326 11.263366987392244 12.881340627864102
Hg 9.17383408586291 14.144042548745274 13.596552388443893
Hg 14.38239733570046 10.193022397835001 13.475158034431324
Hg 9.417152876626753 7.898757335316645 13.582483327046512
Hg 12.847347612286603 6.812885910820577 13.584785301250632
Hg 8.105433077078748 10.99857575829828 14.585579478392441
Hg 11.782543789379554 9.437925761252531 15.670100865587873
