15
Energy = -1.28839834 eV
Hg 13.485805930539641 12.625900364106167 17.527228719074564
Hg 11.794936277063847 12.208426633347475 14.756565255683746
Hg 10.817789489082653 15.32463921128851 13.710669239207173
Hg 12.353127228728281 17.246068385041948 16.111454542319347
Hg 15.070833415485623 15.54364262826572 16.940111153326594
Hg 16.150358372321314 10.521395680453438 17.4953479384249
Hg 14.224418495747923 8.04002983701513 16.151573059837403
Hg 16.42488822500463 9.740936054278365 14.231886904921007
Hg 13.992871320293592 11.283617907979657 12.396109955348908
Hg 13.72547564337491 19.881940853123563 14.462877840658718
Hg 17.206521825759864 15.497818322926086 14.276876050998258
Hg 12.90783271927506 15.611370623058422 10.810756048339785
Hg 15.842340797018664 13.991707671354767 11.569398811132201
Hg 13.980623897881516 18.823005133436162 11.074652400717232
Hg 16.654076076881157 18.57381355653973 13.181211131029274
