11
Energy = -0.52118658 eV
Hg 14.57179533014946 13.469756337864196 16.13121870979013
Hg 17.099218854762853 13.140892688034032 18.560323495764635
Hg 10.617365842343206 10.057019245802683 11.16334905981296
Hg 11.085198846268426 13.400409811207364 11.985918031992975
Hg 17.103453806915358 14.347327759129655 13.145422379861445
Hg 14.160310865032079 16.965005892753922 16.307622659077403
Hg 15.94647976956581 17.700999212701703 13.39429118369576
Hg 13.799310261983127 17.76678768233505 10.655394990234939
Hg 17.478405712515936 16.509161633036946 -0.08046459050871
Hg 10.608501280110657 8.45508581023858 14.26425987158186
Hg 13.854445232479815 14.296344185275379 9.91845744061685
