14
Energy = -890.0
Hg -3.15826 -2.1086 1.422507
Hg 0.007016 0.973631 -2.548607
Hg 0.010561 -1.129247 2.899563
Hg 3.104516 2.539226 -2.240366
Hg 2.928532 -1.130212 -2.266576
Hg -0.120253 -2.172435 -4.046155
Hg 2.810831 -2.391201 1.202372
Hg 0.012661 2.492133 3.194623
Hg 1.892051 0.818802 0.579514
Hg -0.090874 -2.07393 -0.53322
Hg 0.249 3.667246 -0.286466
Hg -2.909031 -0.940022 -2.060727
Hg -1.883745 1.038264 0.664125
Hg -2.853007 0.416347 4.019413
