13
Energy = -0.63697733 eV
Hg 19.41330189715193 11.264219246757387 15.653625068922304
Hg 18.77735896660693 15.961704503362586 18.471857797075373
Hg 19.294262450817925 14.720434834111124 15.288688700371898
Hg 16.13293166815533 10.118439729215188 15.710718757971074
Hg 15.293832322028107 16.27704374436937 18.763939708699436
Hg 15.172514904234173 8.72978400550685 12.689448290912578
Hg 14.49629435498673 19.609489477672422 19.182948747082886
Hg 12.836894859608128 15.094084395665062 14.10005098820254
Hg 14.047279414879991 11.252994522463485 10.566544930481879
Hg 14.357290694581986 21.32800466965694 16.162894659175
Hg 12.65270786930126 18.07738922537009 12.198160172891715
Hg 11.313648482574415 12.656381468007426 12.192002518011092
Hg 11.469079832390456 20.328278859608133 14.501850648061325
