10
Energy = -0.64466871 eV
Hg 13.406237672398262 17.792519328125426 16.772683670899056
Hg 2.328962757888594 0.5206119549468182 1.2977775726034775
Hg 16.645723921929413 0.2795743923493231 -0.04628169230501698
Hg 4.231780307397422 2.572832713396626 16.598924043846335
Hg 17.38975304181765 17.029279542784785 3.042980870152677
Hg 5.313878004249586 0.007711825196182824 4.10007651583633
Hg 0.997322535527847 1.795177033574749 16.013900970965153
Hg 2.149917656246177 17.009282036894646 4.911277036577009
Hg 15.7519600613847 1.5377126122735563 14.776398344675922
Hg 6.180538470939662 1.8114490199966884 1.2814446848205745
