15
Energy = -1.1332653 eV
Hg 8.010782114762401 15.256558024010932 13.924856218008598
Hg 9.658747220540475 13.973470375635081 16.65366282968524
Hg 12.13751355373532 16.20233653403132 17.369825267384773
Hg 12.510117965103719 17.87780337029354 14.421918566507587
Hg 10.333389643978567 12.76967453985648 13.512097504026002
Hg 10.891911571629281 15.869647598081473 12.155974202614898
Hg 14.890302471417561 14.156886615745416 17.57520032920391
Hg 15.207377910837762 12.105482680257909 14.827955222367397
Hg 16.950122433415412 16.681659210906506 16.659030720498567
Hg 15.81932850782406 17.333745481400445 13.481354544452499
Hg 15.493433188482214 14.222167279233112 12.146287425639464
Hg 19.67724866185968 14.56620181109191 16.643089204167772
Hg 18.43300969716395 11.44671974327425 15.826848267334649
Hg 18.706049838077128 14.265488297237495 11.143873852450252
Hg 20.54103986700508 13.065778365962021 13.650544608917691
