10
Energy = -0.46029891 eV
Hg 9.95535288699979 12.58066734506592 7.797821348393784
Hg 15.05345339751237 14.168083195328563 9.070854423846951
Hg 11.92000161273898 15.219335001076727 8.475930006336043
Hg 7.637518822766895 12.340957001702808 10.222308226132105
Hg 7.953480376305764 9.347224045822614 11.718647340685344
Hg 15.797148945463313 14.731703196843162 12.30140278466566
Hg 8.963814218819632 9.74127193778046 14.89419580447882
Hg 16.341379908898368 11.781543299578441 13.812245238186708
Hg 12.104091667230662 8.600779152418719 15.273792098917225
Hg 14.005996190855633 11.220673851973281 16.16504075594821
