13
Energy = -0.64793604 eV
Hg 16.499244759898414 10.016205372647752 13.113561820037148
Hg 13.366999946828118 11.522233052899859 12.89425924080388
Hg 18.393559188963316 11.168452022282956 18.259687299141014
Hg 18.522950651983678 12.17421157844966 14.933019569831227
Hg 12.965153838037471 12.674693200730857 9.632436779624763
Hg 15.5915464607192 12.706870807475005 19.668091751657734
Hg 13.80443671374209 16.01496315802297 9.262419603990908
Hg 16.41921056120309 15.805223928718856 20.816616895270926
Hg 14.64020621346866 16.052152793647963 15.610513817227293
Hg 16.610506142473323 17.758191971064353 17.773717293051973
Hg 10.902845437729324 17.77237512057099 10.06057763840454
Hg 11.398821214357332 17.41259010944777 15.586823247477707
Hg 11.608561916837386 19.59836590901075 12.917221447871793
