12
Energy = -0.87330034 eV
Hg 12.234434321574648 15.31519877657551 14.667288952084169
Hg 11.278361944866091 13.505076434769608 9.435753923159627
Hg 16.126972465056415 11.252567078434701 11.124740643079404
Hg 13.159063055961472 9.80988929425297 14.915956394926225
Hg 11.267239476898853 9.293181448655893 12.150706884419414
Hg 16.227517679880254 8.899836353858943 13.645111743984824
Hg 13.186865239029826 10.538500996920416 9.612070311219368
Hg 15.56723820524627 12.173895710287729 14.377357517673707
Hg 9.06917677310977 11.99770583368967 11.566496176728654
Hg 9.084095060366343 14.039716247549023 14.26283268984603
Hg 12.721139989463722 15.902244774226828 11.342396818793999
Hg 9.90910262744136 17.110347546982755 12.924854158230243
