11
Energy = -0.45718047 eV
Hg 17.353452563966858 11.006788669800432 17.169445165705774
Hg 19.168517116622073 15.586352803555666 11.017508392974186
Hg 10.891708912048815 19.83689734305991 14.036711398836196
Hg 11.87217495205314 17.832429517981343 11.127992183766777
Hg 15.969521861417942 13.9403129185579 18.491213693565626
Hg 18.14445497416689 15.79967206772226 16.35370892370675
Hg 16.664714861775124 14.727299185127553 13.383430801821845
Hg 9.396504417692421 12.618155213482847 12.277201152443334
Hg 8.865397126764517 13.556405832896237 15.599954436871334
Hg 17.456468992745485 11.437208760125877 13.680436797690664
Hg 9.841390332933685 9.125927254373343 12.106203622876414
