12
Energy = -0.92325059 eV
Hg 11.759677431798876 8.685217591665124 14.055977319467582
Hg 10.19580444239183 11.097064059723406 12.242902709622092
Hg 13.445802354008901 10.531191100035853 16.355756130999534
Hg 10.73327822709912 13.719190338862841 14.352872144438699
Hg 15.06279819378703 9.331542204566112 13.436363019858458
Hg 12.808941060213721 12.035131623047649 10.299745191818404
Hg 13.922525960565883 13.70576289436811 15.178706372947772
Hg 10.440720469426156 14.351065201072302 11.021322149024188
Hg 15.367689990299468 12.548499783622482 12.318670850145535
Hg 13.929796806294416 16.937912076086814 14.081567259823457
Hg 12.481948414246098 17.06375718101162 10.992142143612224
Hg 15.62495564543609 15.771946384712574 11.20821743649783
