12
Energy = -0.59035081 eV
Hg 9.946698479930825 17.263847221171588 10.505308700808762
Hg 20.188681327564222 15.206359181364654 19.422144555106478
Hg 18.617878745740573 19.908132424564556 15.758519112502944
Hg 16.508671670136735 17.313330364341294 14.44848162178033
Hg 16.78088328154991 12.061214541888576 15.506684187846874
Hg 10.517456380090836 13.878901565046258 14.995825192573276
Hg 8.305300045084541 14.956238445541418 12.586436346500951
Hg 18.614431009019412 12.048827398569218 19.945610901494884
Hg 18.791562592801892 14.666197794157684 14.207786582682157
Hg 14.952031700272448 11.014565394529656 12.625659408165134
Hg 12.151587674354813 18.86933074353591 12.639144668699782
Hg 11.80283477216344 10.74629705514743 14.190206098957598
