14
Energy = -1.00000789 eV
Hg 15.906363640230444 13.80873837487569 11.595615477366024
Hg 15.869339383733038 9.792799891941769 15.686079851778993
Hg 16.66012613736808 13.07338365764082 14.857565422640672
Hg 13.863466280752522 11.404405029713237 10.281749055588984
Hg 13.998040984573233 16.527539424048943 12.354259282873546
Hg 11.982691830676055 16.617231259843503 9.575751545079044
Hg 12.65628008045652 8.933710664303442 14.983999195293668
Hg 11.933218822771806 13.42213772103241 8.283199586920729
Hg 9.287034445838959 14.571807051502708 10.240002134443253
Hg 13.22359929054283 10.953099503261301 17.659288615333693
Hg 11.25452704715682 10.418787018749175 12.223084844067401
Hg 11.703817484397161 15.62278406036416 14.702391201317644
Hg 14.023984073195653 14.227139667537534 16.806940224213434
Hg 9.687813683369205 13.210086178669084 13.366531553112074
