15
Energy = -1.10099489 eV
Hg 10.612239072395328 16.317268002922475 7.657391267985416
Hg 13.377307630420287 14.188116608906123 7.786839340949269
Hg 8.232902083346795 14.180343991059301 9.188382762382657
Hg 10.858044098396734 10.381774769005371 11.41860568120988
Hg 13.33746772583304 7.889172157851876 12.681457513481403
Hg 15.186137132052103 16.177945274788577 10.089808656152229
Hg 15.770808887605932 10.066214414881967 12.060857402458847
Hg 14.753939423122388 13.670479437149925 12.402840940008433
Hg 9.29993504319068 16.018948066696282 11.938491934393305
Hg 12.490551530094576 14.361264463134486 15.165924036302703
Hg 9.567507692860532 12.983250811916166 13.628850266395423
Hg 15.862862618319012 8.034286461112535 15.122306813595287
Hg 10.527025252865572 8.544897948658702 14.590566471531643
Hg 14.272119992439471 11.084726757219249 14.992222026631415
Hg 11.079297007886112 11.329456025524633 16.5036000773493
