15
Energy = -1.09329748 eV
Hg 16.554770784621745 10.124954080017389 9.775160293237462
Hg 18.87153761499782 10.648575676848695 12.327844900466996
Hg 15.98784975322605 8.955180684135296 12.89779071534956
Hg 15.611955960686949 13.47385307260685 9.958977593119734
Hg 17.831582124689948 13.980397313748691 12.574171772933466
Hg 12.574850295163035 13.083101453588093 11.409929882840629
Hg 13.53816397215611 11.509248652942222 14.269594717489001
Hg 9.386134796898945 16.869611714677426 13.283329876494838
Hg 12.618175489449058 16.405548072445402 12.268386327987034
Hg 10.9509515133715 12.581020304260665 16.622162506989582
Hg 8.300386558989139 14.117890614176545 14.996442910996057
Hg 16.00727902407194 13.595629108961244 15.39113165093047
Hg 9.24966467326072 17.05725615224017 16.663869706128015
Hg 12.204968882005632 15.580362075652483 17.715327531309384
Hg 14.344591245582764 16.572606150169022 15.242730846856015
