13
Energy = -1.19149852 eV
Hg 7.466617935571078 9.652952904401966 8.25491473642002
Hg 7.898089448927853 14.409331438655808 10.282587673029353
Hg 10.729196948686173 8.956108375927887 7.5814635345935155
Hg 9.302029936426234 8.244784048880323 10.751491420845243
Hg 10.072785518069683 11.704966373225755 9.672282322028213
Hg 13.013248069238138 11.681998413334668 7.8741984853419735
Hg 10.292563111912362 10.499799561374031 13.140981642638113
Hg 13.973395486553475 8.602539372975038 9.074994833817318
Hg 11.672976911352 6.063016568330216 9.383827938460996
Hg 5.5722480305378586 11.762239073976797 10.1868651911623
Hg 12.501695086711237 7.855804780057176 12.258412730394673
Hg 7.329515513481807 12.237971769900616 13.10629558310781
Hg 13.08520024602039 11.238050203727127 11.341246408160325
