13
Energy = -1.24759601 eV
Hg 10.232771872376494 13.444276299049916 13.001983544417548
Hg 7.750379427880066 7.593249237451932 9.988112
Hg 8.681634340032122 10.533906621742615 11.821076133003642
Hg 8.681634340032122 10.533906621742615 8.155147866996362
Hg 10.232771872376494 13.444276299049916 6.974240455582451
Hg 11.30655542960528 12.066881714166815 9.988112
Hg 11.182431971831287 8.429899674944465 9.988112
Hg 11.98337924386789 10.24113000101042 7.046535620495671
Hg 11.98337924386789 10.24113000101042 12.929688379504334
Hg 9.72139144208998 7.298850464894961 7.040980637117912
Hg 10.188868511015842 5.064219346193732 9.988112
Hg 8.178867069911158 13.65487946082386 9.988112
Hg 9.72139144208998 7.298850464894961 12.935243362882089
