15
Energy = -1.48295828 eV
Hg 12.750957493985691 10.09663730668687 15.39486326656841
Hg 9.345776505432205 8.847824141298853 15.248432610765137
Hg 11.381718104429353 9.006094477975036 12.398464266242751
Hg 7.80319961326232 9.513336365942608 12.037511828049743
Hg 15.101263874085179 9.35322937902032 12.759625918222286
Hg 13.479446101082441 9.637941726872077 9.61441749877394
Hg 9.7722975441629 11.919462183848017 13.695612273333234
Hg 13.133138142244446 12.111130553204047 12.399427867041965
Hg 10.124808784923689 11.118089013530938 9.811185253999957
Hg 15.930096247214397 12.109986323101797 10.323658430467587
Hg 7.477403542492684 12.978838636150138 10.905682919336837
Hg 12.88236107727407 13.107882686048619 8.758675451086567
Hg 10.648445924379198 14.365464072856014 11.191744914363873
Hg 14.171085761966571 15.206141771080935 11.179222720142237
Hg 9.43407912290924 13.876544537624651 7.99126943554815
