15
Energy = -0.87373109 eV
Hg 15.10811565072305 12.775316239605548 7.366621127104575
Hg 11.825829323580077 13.80415871758579 6.892200214468443
Hg 10.087447140116113 10.859331385885989 7.1679108604178285
Hg 15.112348268989313 12.489477884884051 10.86800272926947
Hg 15.408994892511686 9.01847954225044 10.856431352240133
Hg 10.106862612521333 10.324187028431647 10.622155880436615
Hg 12.281698259734362 7.685021750652477 11.134649032203159
Hg 8.774549438121424 13.773669678172078 14.594300838415931
Hg 13.168808692353942 10.356281982805024 14.864771439992028
Hg 12.269683476406215 17.90940697441727 14.566547185620433
Hg 16.50152528577359 14.613412393598821 15.300544045783186
Hg 10.150822618657559 11.147864473459675 16.444181513262155
Hg 9.554422686173497 16.72273051301557 16.212265579956657
Hg 15.41058001968059 11.902947266885748 17.010774012306477
Hg 14.88857477014846 17.267977303841082 16.74890732401412
