10
Energy = -0.69809335 eV
Hg 8.385024045181737 13.864522036075419 12.226350620269319
Hg 11.158959538553102 15.72901447067583 11.347610097752767
Hg 9.469293725767468 13.790497071281393 9.02401903933841
Hg 9.234535584466693 10.829742086387906 10.804539825420434
Hg 14.232996402747128 14.468029240688898 12.206666885043429
Hg 14.007152643344044 13.138436857969754 15.368482225737276
Hg 14.89477133766531 11.459151825978656 10.774647240850573
Hg 16.012145150883825 10.645083151229926 14.039654086362248
Hg 12.270201144126782 9.490668009988532 11.665398016704977
Hg 12.755783632015623 9.99879479470506 15.029635098145286
