13
Energy = -0.62722303 eV
Hg 18.214219764695123 12.55306541693687 9.736802360010543
Hg 19.06673823639757 10.89742127282208 12.666037389058555
Hg 14.783342913040231 12.014322493298955 9.337831032528799
Hg 20.10036237296908 13.39423285991233 14.83357087687251
Hg 12.832055663034463 13.489619579827231 11.747924166525944
Hg 16.321183106354653 13.744225158175164 19.000217131877594
Hg 13.361534684471374 12.064597517649887 18.344159792017255
Hg 17.405791613839128 15.206899961075072 16.037977393461038
Hg 12.14700093116602 16.82853395821604 10.852718780871186
Hg 13.181536759076497 18.54625325153201 13.639028712361863
Hg 10.79770640600092 14.237626681744928 19.217635488783255
Hg 9.356249820808186 15.440736874467222 16.289798517443163
Hg 10.308767482355622 18.69298329397588 15.643410371814236
