14
Energy = -0.96670682 eV
Hg 11.853274175445513 10.846822917203765 15.838033540653928
Hg 16.5942160411702 13.364445619982666 15.53693745566855
Hg 12.384011659989309 9.799822216740463 12.606316892919716
Hg 16.66259803963179 11.797481946099817 12.478128117927609
Hg 13.36737334841303 13.816733119694605 16.631662436487183
Hg 8.921990104483672 9.866465504567097 12.368086467461746
Hg 8.758452201854787 12.113482797495081 15.12182625691282
Hg 10.88723712354295 12.127495580216111 10.615290578092578
Hg 12.006134039228241 16.167425675995386 14.491059567223536
Hg 18.488475927286217 14.570629484587979 11.478653850622273
Hg 17.165902801800602 16.4629065802894 14.187800328399584
Hg 9.56746000687871 14.46629714810888 12.760250242380296
Hg 15.281611656383879 14.018001734692406 10.28892251810179
Hg 14.440343492932483 16.788914702944517 12.146175389423243
