10
Energy = -0.45800868 eV
Hg 9.973504900627779 10.12200358322412 7.9033548121363335
Hg 14.95967484621459 12.634417612149553 8.485811978519965
Hg 11.654257915941898 13.044481045035177 8.05699565407013
Hg 7.945290033822652 10.32389450566017 10.57996201256017
Hg 15.574398268281284 12.277624616753553 11.789808145607369
Hg 8.780754538547788 7.9834133859148295 12.846122652320181
Hg 14.271937713955145 14.995458289145652 13.259784837252917
Hg 11.026204647186107 14.11694137490057 13.373223599338662
Hg 11.592984097803896 9.09115794283971 14.315080430119838
Hg 10.735709239480084 11.925323846237607 15.904572079935656
