12
Energy = -892.0
Hg 0.330061 0.137259 -0.297219
Hg 1.26631 -1.552527 2.653098
Hg 3.221121 1.206555 1.256604
Hg 2.983445 -2.058519 -0.53055
Hg -0.408552 -3.289883 -0.032375
Hg -0.047011 1.801744 2.787653
Hg -2.533502 2.134183 0.20277
Hg 0.782254 3.556939 -0.300987
Hg -2.269718 -0.978384 2.066615
Hg 0.400908 -1.710381 -3.211406
Hg -0.956825 1.765665 -3.062152
Hg -2.768492 -1.012653 -1.532051
