13
Energy = -0.61646777 eV
Hg 16.211231314166454 9.871851591171271 11.068578341162311
Hg 10.43212509329346 11.439006443880922 13.93276551247369
Hg 18.168399782300902 12.487157694180178 9.948796820480503
Hg 12.224841381116848 10.296057650821078 16.67597537434657
Hg 17.1364030796608 9.179873465993936 14.358017315358284
Hg 8.388991751706135 14.036811010777914 14.998121547064985
Hg 9.559965134367882 17.11581817741991 13.995032834505356
Hg 15.450995554578604 11.499482223938056 16.302183033309028
Hg 11.152437757508764 18.418132212247563 16.85175102788469
Hg 16.401066141296116 15.432418640313253 10.486717804010496
Hg 18.066758370796062 17.24960517768525 12.942637292974
Hg 14.226274433742692 19.632914917727508 15.984148736824624
Hg 16.623720718536358 17.052010234995468 16.076207947186784
