11
Energy = -0.79812989 eV
Hg 9.63696829257212 14.702299425567496 16.072786734280715
Hg 11.56327035534002 11.781417749456805 15.277265963540746
Hg 11.500344676929382 16.581332574256233 13.845304029686542
Hg 8.623634341748838 14.74310801218168 12.606390396660695
Hg 13.922118598915386 14.140075849625172 14.216521106317249
Hg 9.626412986099618 11.465036675438375 12.561532003154982
Hg 16.0855814420928 10.245523038125574 11.819711273946035
Hg 14.478203133987146 13.356930514080553 10.98156422291449
Hg 13.350597075389699 8.517299395358211 10.722327621766857
Hg 11.770129482923194 11.502022066082688 9.91761328886736
Hg 15.811153258362923 9.371254342239611 8.53607249223317
