12
Energy = -0.56119244 eV
Hg 17.870430841895683 12.025713881121339 15.910496355578461
Hg 10.725004556497735 12.318020462289336 11.241038332846971
Hg -0.01780851313734551 17.239049039013743 15.578360981638085
Hg 14.310914362114051 12.525289559815723 11.394578212681294
Hg 14.969211811364843 13.74035772522991 16.49307748296945
Hg 10.511566624729308 17.549791833894027 13.026638734515188
Hg 10.06210878239603 15.335558450299429 15.826742088029883
Hg 14.575395138341268 15.769723377513964 10.155833289527655
Hg 14.054703699865316 17.848571307485333 12.829880065273379
Hg 9.954110452543873 11.937567765637114 14.56345114840315
Hg 15.160669635047073 13.770295093577763 20.09558796592177
Hg 0.20334657511884038 13.786764484561372 16.84333565251773
