13
Energy = -0.67858981 eV
Hg 19.589831304579764 11.014265881947786 12.893650192833208
Hg 16.111375500518022 10.423721258089603 12.789442007759824
Hg 20.27327581326936 13.775934330374833 10.952633923065024
Hg 15.125354127812358 9.892508300008794 16.054711383282164
Hg 20.3755877247032 16.654907681637138 12.906465210195595
Hg 13.617220941780763 12.642264171022148 17.59556283722824
Hg 10.16336168534468 12.347308098923154 17.23484327736652
Hg 17.248806159671172 18.023240190399157 12.415342960196368
Hg 15.361201501304045 16.261483303820995 14.810904325619282
Hg 9.018384991944194 14.574023627519967 14.85247659913778
Hg 14.140941305975652 18.621255861663453 17.037825378920054
Hg 8.64888782887359 17.561803102140686 16.60766339237395
Hg 11.184629013861795 19.647967476825556 15.51214384200022
