12
Energy = -0.6864853 eV
Hg 10.563618920989095 17.081355394308876 13.066395396023992
Hg 12.820407945857347 16.112208825521744 17.228818224156864
Hg 12.869257070299012 14.37822268182777 12.073796303879503
Hg 15.943071163796054 17.249491853968316 18.30014501544729
Hg 15.372957581067883 11.243136050001272 13.081886527597742
Hg 11.530279177594764 11.802631577942194 16.458586405882937
Hg 18.067716514159727 16.71029688805741 15.655736254006543
Hg 13.850771300564597 8.097818458785508 13.58642700022683
Hg 18.048115796006275 19.611840336328754 13.766992633979745
Hg 18.32569189852885 18.823845228907164 10.217605840073064
Hg 14.104097753341625 13.610354459401623 15.146231535208678
Hg 10.748710656525294 9.661364636443423 13.843576816752053
