11
Energy = -893.0
Hg -0.027832 3.602065 -1.32525
Hg 2.443645 0.974734 -1.383323
Hg -1.782567 -3.05272 -1.496522
Hg -2.442285 -0.968925 1.389686
Hg 1.084566 -1.861547 -3.177657
Hg 3.278157 0.007377 2.012363
Hg 0.928151 -1.865343 0.288361
Hg -1.1444 0.349533 -1.731885
Hg 0.372381 -1.173007 3.6351
Hg -2.925279 2.472049 0.347935
Hg 0.215463 1.515783 1.44119
