15
Energy = -889.0
Hg -0.487801 3.315185 -3.304114
Hg 1.298387 4.492978 -0.508636
Hg -1.855159 -2.784717 2.363356
Hg 1.169891 -3.825522 0.863012
Hg -1.714396 -3.212374 -1.223644
Hg 1.254889 -1.261141 3.405325
Hg 1.567515 -2.079247 -2.378283
Hg -1.69214 0.863342 2.973293
Hg -3.512295 -0.333886 0.142331
Hg 3.383548 -0.890916 0.455801
Hg -1.483569 -0.055237 -2.943898
Hg 1.682603 2.022126 1.986798
Hg -1.682057 2.729029 -0.077632
Hg 2.113086 1.42579 -1.951249
Hg -0.042503 -0.405409 0.19754
