12
Energy = -0.92969223 eV
Hg 11.893370692140797 16.196630187100347 13.935346286364918
Hg 19.511295558246054 13.109114976708906 17.469151738244637
Hg 15.08261210177721 16.714200790271338 15.187365181980393
Hg 12.574984911155104 15.67832163058808 9.116262739969557
Hg 17.335128398445317 12.736413868447432 14.79168043511874
Hg 16.947686957955863 15.38651777826408 17.711194881731362
Hg 14.705923195771565 15.936958702642933 11.866273685917113
Hg 14.072450963836975 13.611103407061554 14.225183213469396
Hg 9.669501709333376 16.17650088960886 11.144655370966731
Hg 14.89902237074513 10.316295762372564 14.188422442857382
Hg 13.639526127130326 14.449302892818022 17.632507844140815
Hg 12.175829692265637 11.566969488212433 16.360337033397766
