10
Energy = -0.68553269 eV
Hg 15.113714234796877 12.835295237498284 12.682129311889195
Hg 13.859528855209476 12.003915807537949 9.644359690990555
Hg 13.040887732131074 11.489857840263006 15.026200047508715
Hg 12.831851901310879 8.710393445086574 10.259027035131693
Hg 11.019511240815717 14.322318737879625 15.089316861775208
Hg 9.565565218265526 9.767648738418877 10.877751670754613
Hg 10.559646641404944 12.861141127525793 9.63405284384788
Hg 11.600892337080566 8.827608328884423 13.428274868846904
Hg 13.48229775515534 15.893360840757694 13.182407322396768
Hg 10.363899524587849 15.380606689761832 11.935525435514021
