13
Energy = -0.60219286 eV
Hg 16.423890072291314 12.532843002415953 8.738984637156037
Hg 18.269826322304716 10.740334765510685 13.809116413588452
Hg 16.534033317654405 15.933217332700618 9.162803496871723
Hg 17.487701013181404 13.07534349042514 16.246841580905244
Hg 15.539504661926264 10.855115398974078 11.659032122576091
Hg 13.196110272340086 17.04709922653953 9.427107783517696
Hg 13.919538064899678 18.041173336329962 15.014472452690555
Hg 15.96630452442936 11.305839550372164 18.82301819689792
Hg 13.526499465037867 19.45676199981333 11.86371022179463
Hg 10.862290872512263 18.002894914330916 16.65332289431552
Hg 12.689131067961549 10.563719441893072 17.964826998569173
Hg 10.508178421061 12.997654102574002 19.1451638355854
Hg 9.448212007496112 14.848636946046671 16.402239580222307
