11
Energy = -0.85897963 eV
Hg 10.266096172773873 8.187556218065247 11.333151272472254
Hg 10.281870524589669 10.554498494371998 8.731958091921591
Hg 12.880210451746748 12.716664847281553 9.732387887136696
Hg 14.842315984870643 10.824025647358045 11.597326791306282
Hg 12.370031605995617 9.768606411713389 13.520649023220106
Hg 10.743624599525324 14.48112373416345 11.599664160143098
Hg 15.45832909974377 13.708817563476169 13.461942339561485
Hg 10.420963714631526 12.399995709694762 14.219174775524762
Hg 13.673768632747572 16.06899617617705 11.634006513115102
Hg 13.156194345876546 13.036020313313989 16.039753353248262
Hg 13.712868918782307 16.30989415718633 15.180600474194522
