10
Energy = -0.69900835 eV
Hg 15.325109676882356 14.099000934687766 15.674656056333468
Hg 14.112708285882768 11.487817285357654 17.529395013093605
Hg 11.980637025967141 13.92243767156108 16.388914294176864
Hg 15.453864805890968 10.903754342859772 14.43493980072664
Hg 14.060981812620483 15.36594435946937 10.43101514022844
Hg 11.51573964049647 14.059970017507247 8.545567425345645
Hg 10.855177401806865 15.361416999948013 11.647700612405773
Hg 12.727499465778699 10.413436105122646 12.432527820942225
Hg 14.015368983189038 12.014945864463318 9.702203862259376
Hg 10.443534738090133 12.60866286890214 13.629952445175181
