14
Energy = -1.03381655 eV
Hg 17.908334511639573 10.569108015476496 14.254965736007
Hg 16.234502958952618 13.318559582266383 15.463866196813411
Hg 15.73766197999137 9.461121625070302 11.815723175285434
Hg 15.818219061587838 14.439004553522247 12.24645924423701
Hg 16.05328036893817 7.711753606639089 14.73635984978946
Hg 15.36835423260278 17.87358397163218 12.581732915343258
Hg 13.277503840729933 11.822537783747887 16.254519072125554
Hg 13.086364015922857 9.244267159257353 13.996213342982726
Hg 14.010860952554024 18.524584095856582 15.711855010108835
Hg 12.222990457544418 17.554551537724798 11.141187469082364
Hg 12.423980113017546 14.107633445653478 11.626241627749476
Hg 10.927018278509248 13.721765654886628 14.651091417821927
Hg 11.325350606073162 16.58822041461596 16.45283125479435
Hg 10.91921344294464 18.972792125320964 14.084614097437209
