11
Energy = -0.75165224 eV
Hg 18.295835684017028 14.79077715781604 10.597639057825585
Hg 9.999113808415725 11.599209561668557 17.25567048778662
Hg 12.544385870621207 14.112314995164967 17.1557456254001
Hg 12.769380900904702 14.334556311713119 12.085319158827955
Hg 9.58463792583214 13.226737395097937 13.378414210425522
Hg 15.114086685960817 13.843085921712591 14.592581044776999
Hg 11.0227981942397 16.25649915552678 14.537227237551638
Hg 14.337084050770038 17.11948909726355 13.795668834663147
Hg 17.624473891571604 12.318833006363205 13.015945864642054
Hg 12.367097869028692 11.620978292186933 14.694148222371792
Hg 0.20415870730855798 14.534354219806353 13.534774993993642
