10
Energy = -894.0
Hg -1.809352 -1.432891 -1.012818
Hg -0.247095 -1.247599 2.190706
Hg 1.745154 -1.672 -0.739294
Hg -0.30204 -4.139016 0.390191
Hg 3.617765 0.943551 -1.824449
Hg -3.140907 1.394003 -2.348832
Hg 0.251935 1.25473 -2.181489
Hg -1.756462 1.682865 0.746953
Hg 1.821449 1.448699 1.024684
Hg -0.180447 1.767658 3.754348
