14
Energy = -1.30432758 eV
Hg 9.941461 12.244368745137736 6.489089463307068
Hg 11.792903681541707 7.073366293859929 9.613591411855513
Hg 9.941461 7.638553254862261 6.489089463307068
Hg 9.941461 9.941461 14.92241360313799
Hg 8.090018318458291 7.073366293859929 9.613591411855513
Hg 9.941461 7.030648368540381 12.73208712461089
Hg 9.941461 9.941461 9.01641524082529
Hg 8.017783249227909 9.941461 11.995125786811528
Hg 7.074799978380875 9.941461 7.177327586554443
Hg 11.865138750772093 9.941461 11.995125786811528
Hg 12.808122021619123 9.941461 7.177327586554443
Hg 8.090018318458291 12.809555706140074 9.613591411855513
Hg 9.941461 12.852273631459617 12.73208712461089
Hg 11.792903681541707 12.809555706140074 9.613591411855513
