14
Energy = -0.95411833 eV
Hg 16.251830213311447 13.986993812180351 20.714934754493168
Hg 16.361392068706124 16.066100964152387 15.829227181356647
Hg 16.944138201131274 14.089722594921458 13.02126198850185
Hg 13.520056407117 12.831143049870263 18.963574264688564
Hg 16.559350631766232 11.254947901182348 18.69123889928428
Hg 15.7270273948221 16.255224865979848 10.649104439886516
Hg 18.238151780859415 14.140742001933013 17.931537621660286
Hg 13.920486755556587 14.027743247113973 8.806922599306226
Hg 12.924538713183278 17.944945151806554 11.68593808194717
Hg 13.223195990872622 14.663417665182076 16.11304353338385
Hg 14.23132362567078 12.142571719353684 13.948416706530507
Hg 11.461781318036504 16.57968849798197 8.853132012146284
Hg 12.018674052352486 12.614359329187746 11.313866003879042
Hg 10.474983254483263 15.580690280844573 12.022899957539883
