20
Energy = -2.15793758 Dir = /p/work1/plile1/GA_structures/Hg/20/all_candidates/3963/
Hg 12.657992224689348 7.574262758590775 5.398005951220615
Hg 9.375428252200349 10.75777497749966 5.424066007873111
Hg 6.8009371758908115 7.56953205293532 5.439304268279351
Hg 11.315292536872791 13.496926827256523 5.950769257913572
Hg 9.898278959527234 7.853508768797886 7.321063657573915
Hg 12.348411464315413 10.50106144426353 7.311932829489297
Hg 6.505137216604317 10.470442522233451 7.491406688622061
Hg 7.5436513113217725 5.693050398431214 8.592343362147126
Hg 13.163299766246084 7.558328921852414 8.898777867509299
Hg 9.416916691594524 12.131456496896554 8.868707933285481
Hg 10.495868974541528 5.702141374306608 10.23937257792942
Hg 5.678873781298287 7.825546814852938 10.45751372249825
Hg 11.794993085471523 10.222080713715245 10.795101902383395
Hg 6.243680589234265 11.0600741205113 10.794745565589091
Hg 7.290989595530327 14.263413769257424 11.016565307880677
Hg 8.868623724139917 8.60115252620539 11.78948726840025
Hg 12.924056461139044 6.787413198366637 12.373611270567617
Hg 9.162186543579791 11.899938069706288 12.589191747773738
Hg 5.965776996620953 8.91470188853946 13.687766916086614
Hg 11.109869340995314 9.677457047594569 14.120530588790432
