20
Energy = -2.13414807 Dir = /p/work1/plile1/GA_structures/Hg/20/all_candidates/3086/
Hg 14.272703860296868 12.710975499548825 5.594512825763783
Hg 9.191666355618397 12.939943827967792 6.988429710563668
Hg 11.877601811084856 10.785565523725417 6.86594670897047
Hg 10.528194085317175 7.665084511383796 7.402448643650514
Hg 9.500482374229808 16.140191795153505 8.209314845085228
Hg 12.200502476837277 14.013149007018301 8.167728370968106
Hg 14.694706627581974 11.881814402742442 9.002068342882554
Hg 7.912311139150268 7.4025041847974125 10.125281335148731
Hg 9.79270848973089 10.205098476271745 9.573908496261613
Hg 13.187460894304616 8.725272794094604 9.236781740094301
Hg 9.772407703321505 13.478899347824594 10.42546947464764
Hg 6.053282175209289 9.730563881691424 11.88650610919869
Hg 12.932785460861343 7.932028889504963 12.476204224991085
Hg 5.56957502260707 6.156570736356974 12.420746935658808
Hg 12.354000363874441 11.366334128050799 11.597483031902522
Hg 8.989591336964928 11.332300060948684 12.792766910400603
Hg 8.45112019615633 7.953959052748188 13.689011289695447
Hg 14.538576256747104 10.56963915795266 14.027771919079454
Hg 11.3097092018644 9.76860900132064 14.79823195873726
Hg 8.191578641697282 10.562460194353074 16.040351599754874
