20
Energy = -2.13228317 Dir = /p/work1/plile1/GA_structures/Hg/20/all_candidates/2461/
Hg 11.042141316121908 9.178713834852847 4.060156525442239
Hg 9.72810315863678 11.827411653391001 5.965733310028658
Hg 12.906081985668788 10.494405593733891 6.7549165643796005
Hg 8.081031763684576 14.51415291033461 7.278395156172069
Hg 9.975080590870721 8.647739859439097 7.238950966788337
Hg 11.325604121632498 13.98153128702575 8.320747860479278
Hg 8.847352911804247 12.133950449906248 9.660196309372571
Hg 14.672944419839395 9.44139961217057 9.982247906625872
Hg 11.309546562877548 9.923621069645803 10.170140720859203
Hg 8.079863986949354 8.882287610349486 9.901181601902326
Hg 6.813807109174761 10.820084388297452 12.377645201929273
Hg 9.451032581070354 7.025289629352054 12.372918771570886
Hg 12.469639530496636 11.848931077788484 12.635148923896736
Hg 9.420791272788733 13.4201614877928 12.880224777683068
Hg 12.652419271727142 8.132929675888647 12.886925968859002
Hg 15.354063942738062 10.219828841237717 13.668869395596857
Hg 9.920921401597585 10.194456538800436 14.163446474583814
Hg 14.800913557598138 13.48801400067861 14.5347275459327
Hg 7.003411617160207 8.09102719033959 14.536863059407224
Hg 11.331761382283059 12.920575773694479 15.797075443210336
