20
Energy = -2.23304079 Dir = /p/work1/plile1/GA_structures/Hg/20/all_candidates/3861/
Hg 10.122487540961869 11.925965279603545 6.923957120282856
Hg 12.774753584184989 14.072655709043497 6.9108898486691634
Hg 6.903414421144011 11.167517606496842 6.395233366528321
Hg 13.245327264448187 10.659460969329011 7.233987402927991
Hg 16.218930961150647 9.279988733748565 8.00084420128268
Hg 8.772568934756958 8.810928144039726 8.063377755386133
Hg 11.737074712601704 12.76235938742746 9.832131731438572
Hg 8.002442297108711 11.930931213921133 9.59377609362706
Hg 13.306106711202455 8.539207177296735 10.098445194427594
Hg 15.039427769128192 11.709463868451518 10.118076333694503
Hg 7.7031845970864925 7.714667201507799 11.189139304427082
Hg 10.373159211968883 9.888215669455185 11.165909405690163
Hg 9.581051003062141 13.281877556971844 12.426180751994353
Hg 7.165489341982627 10.881595850711339 12.748019745543681
Hg 13.030661730309149 14.032669034835463 12.741370083045464
Hg 5.0570408106153915 8.237738468688802 13.310613417911817
Hg 13.535920720693774 10.65691314258443 13.021016698650062
Hg 11.600403189800636 7.963571042757706 13.571141537211817
Hg 8.256928685200986 8.221301129647399 14.599852955907256
Hg 10.409096707004531 11.09844300789413 14.891507245766059
