25
Energy = -2.84278699 Dir = /p/work1/plile1/GA_structures/Hg/25/all_candidates/347/
Hg 6.763909293382263 9.818385502222123 5.697022389448589
Hg 13.396683317539113 10.342334303224797 6.0219055758035
Hg 7.26766630415582 12.924424683083803 7.265344011161041
Hg 10.6570735706111 12.154230128770152 6.971085064150713
Hg 10.325679844635644 8.549256740489193 6.009137713269659
Hg 7.506691282243037 6.778366053834321 7.284106525758056
Hg 13.74298160569038 12.459617552763406 8.842382936779384
Hg 8.415922386492877 9.879606018209493 8.802192196405459
Hg 9.33383855229692 12.953762775288583 9.989422133332859
Hg 5.0411583213326985 9.330251948687604 8.800930372526338
Hg 10.1271769147446 6.738552809049361 9.613152094490763
Hg 11.938537940621858 9.581899584697657 9.079900561461008
Hg 15.03002245687135 8.051609004519388 10.023879641031115
Hg 13.676451139527913 10.637241925737769 11.859312590495108
Hg 6.522155622046514 10.864725412179107 11.68756973009195
Hg 12.170411678183923 13.720793830377447 11.683664677034162
Hg 6.983574014568854 7.44443551168748 11.104311326194201
Hg 12.617885520539936 7.282623332036748 12.436336624460269
Hg 9.341761020242142 15.661776144645703 11.937443272489338
Hg 9.85492260403603 9.364493219244796 11.973462103256555
Hg 9.32488608977615 12.541182935748935 13.267418656249527
Hg 14.488237235462785 12.685448540948357 14.504145804726368
Hg 14.76270365076313 9.069802340970078 14.684798788221803
Hg 11.704925431436784 10.62162709176302 14.74512854173124
Hg 8.297735438967193 9.836543845989233 15.008937905600126
