25
Energy = -2.75053802 Dir = /p/work1/plile1/GA_structures/Hg/25/all_candidates/169/
Hg 10.923134738727962 9.358270032097408 4.0252200322218
Hg 10.434793308242241 11.711666458392376 6.434048492792576
Hg 12.767797017860158 9.096202788237049 6.790328316909447
Hg 9.13617043995275 8.565499521248544 6.896249782313812
Hg 12.234847262992336 13.886420659809884 8.330102049869195
Hg 9.049066450104679 12.81974208775593 9.339667521275544
Hg 11.26417416131704 10.469231889864203 10.117951573136144
Hg 10.666759637445372 7.202355608846108 9.88766514558123
Hg 14.131853094574046 16.822642394910847 9.882479757796284
Hg 13.87865549041917 8.316718423881255 9.87304343555574
Hg 7.788666308226858 9.397092955781355 9.884506612870133
Hg 5.597698482945816 11.789540591871045 10.940468665149703
Hg 13.39951726067705 13.905938634961053 11.470050929300465
Hg 8.822101716927339 14.966894957424703 11.830548858530697
Hg 16.020684803747123 9.088622562567288 12.318379397433539
Hg 9.314681649717476 8.622388088657447 12.814461982502678
Hg 8.02784148580967 11.774563846191086 13.325216320971965
Hg 11.746572228203076 16.536151201297713 13.059435865869592
Hg 12.612901470675247 8.30476073628206 13.114579358191442
Hg 11.17579069245961 12.828259415560032 13.663399850789732
Hg 14.116561806280446 11.237832651157232 14.143599619767874
Hg 14.176779360009075 14.697535396949998 14.704618300773895
Hg 10.437958716011027 6.6514992242063595 15.24963948459283
Hg 10.429556593411409 10.1079400819592 15.71765744134611
Hg 12.552123054888755 12.548917021715159 16.89336843608297
