20
Energy = -2.22340002 Dir = /p/work1/plile1/GA_structures/Hg/20/all_candidates/1024/
Hg 11.84769831928888 8.631451349082555 5.074623127498277
Hg 8.63371562285293 10.186646305580384 5.951290585784124
Hg 5.9012828386886085 8.65571242132131 7.542116741957214
Hg 9.964607451246197 13.188349235415565 7.561499030775101
Hg 5.976056026050825 12.31734936681279 7.296532722532308
Hg 14.243707412320939 8.044283677526929 8.056896115910122
Hg 10.996603924484345 6.732534390592382 7.794177544499621
Hg 6.999276560905131 5.140652942601235 7.825468786162903
Hg 11.714685143568264 10.237572400698607 8.08800901760645
Hg 8.358432374794775 10.782315296684992 9.401468870369282
Hg 8.398674010101917 7.5384019494037675 9.689345408291489
Hg 7.784657376831824 14.010638019450534 10.257003861606629
Hg 11.030956354152613 12.332193086718666 10.817443866609075
Hg 14.092126625687104 10.251249717099913 10.803668766140733
Hg 11.550364303506926 8.083875817617628 11.010557642343041
Hg 5.398137977244953 10.46902967737526 11.035752775228701
Hg 5.890335506892276 6.745942961779173 11.602396527247361
Hg 9.402609791546206 5.61174951842862 12.175450955317245
Hg 8.358526224575368 9.112501605752389 12.879383228975826
Hg 11.811280554617534 10.2812846594148 13.490648824502665
