25
Energy = -2.80661692 Dir = /p/work1/plile1/GA_structures/Hg/25/all_candidates/1988/
Hg 7.229309519851477 13.677241028871482 3.2248543347141627
Hg 15.708051994073603 13.62458988965848 7.2858604700209515
Hg 14.998195778209805 10.029920026145838 8.020253520734359
Hg 12.393855316177973 12.334809748516152 8.301768562546126
Hg 9.887527869487363 14.70494967828898 8.590981783297147
Hg 9.635282051490222 11.269425137975377 9.92968256778219
Hg 14.996355888446649 12.338945335318488 10.476394110895425
Hg 16.602344134231693 8.57830484138085 10.964085898656677
Hg 13.193829089921747 8.603703855622388 10.428482240044728
Hg 10.147576323115986 7.849124393482603 11.5498742453483
Hg 7.794758422990667 13.700333088649543 11.78710389030592
Hg 11.52163623929188 13.959327184245605 11.460807181373028
Hg 11.754974888282405 10.735067150500482 12.639287617615377
Hg 14.180125948554853 16.618172447763996 12.302688202948715
Hg 15.460129654959308 10.485605004483041 13.4614015396848
Hg 8.053763398235303 10.427846462859494 13.105246567732058
Hg 13.982174583973675 13.574879792739328 13.66677106178348
Hg 9.668156617847256 12.881827877161099 14.724235700999206
Hg 13.132249451154374 7.783435277559527 13.696813237187087
Hg 11.50210267580926 15.811715435171443 14.271239802380437
Hg 10.430232327475457 8.89928734262713 15.757942186522143
Hg 12.884151828123434 11.247572096744996 15.834129952043547
Hg 16.009030343815592 12.601660358135511 16.306997724783788
Hg 8.824679359450158 15.822844099850013 16.348893297892232
Hg 11.535742044778408 13.965648195996538 17.39044005245666
