20
Energy = -2.26652888 Dir = /p/work1/plile1/GA_structures/Hg/20/all_candidates/1852/
Hg 11.24873416781707 10.197812510502246 4.598701762228102
Hg 13.393259051042254 9.105329531898638 6.983139435231892
Hg 11.75493657577125 12.043188983655446 7.48144408204442
Hg 9.97394810949707 9.097034210813815 7.534319481148895
Hg 6.989669663707018 9.403972639906618 9.163248301325911
Hg 6.472571383135962 12.809164516864268 9.408720790860237
Hg 12.616878236614799 7.265409770829208 9.690447810887736
Hg 9.81919578287616 13.40332185543201 9.95947672381094
Hg 14.994193668908924 9.87878862027363 9.92102818146535
Hg 9.344092813391986 7.217873829545051 10.446834623639242
Hg 10.758431349188596 10.187861662287089 10.653654047478028
Hg 13.122918178586533 12.583574784550736 10.496090566832843
Hg 7.9985893628535125 11.514703829064464 12.31620948850187
Hg 12.279414067403415 15.270730976266824 12.34130337902643
Hg 13.389697983798923 9.645309160838803 12.912409396774644
Hg 7.005449428962345 8.108690218662863 12.85128138729585
Hg 8.89793349557735 14.682903009532552 13.365106392390137
Hg 10.14032551377803 9.33870178293671 13.943547673632139
Hg 11.51737807974754 12.382247536236658 13.932503996207128
Hg 12.590801758435257 10.171799240996354 16.308951150311916
