20
Energy = -2.16387959 Dir = /p/work1/plile1/GA_structures/Hg/20/all_candidates/4029/
Hg 11.811658603071807 12.600982903833913 5.33650503741027
Hg 5.4035899975799 10.218493734711226 5.61397428280801
Hg 8.564976532980204 11.799227939367624 5.862549372952094
Hg 11.260611105408545 9.386285221749553 6.66240805160098
Hg 10.19870645089354 6.459624438491287 8.324460091634286
Hg 7.821827778122563 8.862733707568385 7.523976181929468
Hg 14.234335716328077 11.003212701884724 7.456992038214303
Hg 13.686006477714798 7.491048965079871 8.276879898101598
Hg 6.42203098757056 11.787022717289409 8.548415266073077
Hg 10.913788969756997 12.093010440726873 8.595445085640277
Hg 7.254747501696707 6.97875667964394 10.219992592504742
Hg 13.117526424179124 10.180649958955346 10.483906300707282
Hg 8.66551991161533 11.273000765850103 11.02447797744481
Hg 5.355264355010237 9.925383979126607 11.193363338858838
Hg 11.993882921964433 7.020291037345224 11.274053851111018
Hg 4.84131289794741 6.945683631416484 12.625798247041665
Hg 10.983905368434572 9.876425322690796 13.115623134231505
Hg 7.82903533862234 8.592955334467103 13.174311488732563
Hg 14.193959957565616 8.83573867110146 13.387736743868071
Hg 8.567005624263372 11.78916476942647 14.41882393986182
