30
Energy = -3.51393221 Dir = /p/work1/plile1/GA_structures/Hg/30/all_candidates/3630/
Hg 11.410309782556356 9.904185096819912 5.360568455565766
Hg 5.0761419428607315 8.782651996757671 6.386100776734556
Hg 8.495693090352558 8.86642973947541 6.927023948845593
Hg 13.961131401491043 8.82414843684441 7.22372805517917
Hg 16.5359938350152 10.966000797655445 7.478727538694262
Hg 10.08647640340443 11.742610596664033 8.0185429300628
Hg 7.995772476172236 14.665662243841261 7.463837361723447
Hg 6.447252589570337 11.522224235268911 7.77919667101473
Hg 13.391223545093883 12.512901256110966 8.037937237517387
Hg 11.450376433384529 8.50310085838614 9.337161598653042
Hg 14.130523359000389 6.436314298554185 9.634915790757208
Hg 8.828516913472122 6.132948268084262 8.826276406713246
Hg 6.161530034094351 8.556691302513622 9.616320185937619
Hg 10.677020250229875 14.698338287796984 9.615364658369446
Hg 15.99895211211131 12.547761839191894 10.451933745879701
Hg 9.050234813466126 10.127718765194913 10.867833854099041
Hg 7.731416222576413 13.151144907749435 10.628849651102037
Hg 13.031276509140218 13.872823584684825 11.722799022971055
Hg 14.380285199012315 9.614774444976508 10.892933396227484
Hg 9.575780996419864 6.94503982021611 12.008645786273958
Hg 6.669582530604555 9.058127790585582 13.037403225353119
Hg 11.591497968894693 10.942421564675087 12.803329044781215
Hg 9.90649326390537 14.908720182449244 13.051106363103838
Hg 12.813362947263744 7.3103631121512045 13.02483081414324
Hg 14.720073464989897 11.982050036460297 13.876534351582285
Hg 8.273083631624951 11.979361309845507 13.833478390059181
Hg 9.584403849690622 8.843223500177952 14.924591676427514
Hg 12.817278241258938 9.631743920957637 15.723018660483248
Hg 11.225645843260272 12.802433532785644 15.692246541588302
Hg 8.266326494476267 14.45174041851841 16.03842000554993
