30
Energy = -3.61969262 Dir = /p/work1/plile1/GA_structures/Hg/30/all_candidates/1664/
Hg 14.14587911291872 9.589178089903704 4.518704103975677
Hg 12.001438394125278 11.741609405823672 6.120455186162946
Hg 8.663804692598475 10.659149596955261 6.955378833954523
Hg 12.278573979676967 8.53121948423618 7.233946017222553
Hg 9.61241699282921 13.905815128360492 7.2396099491674235
Hg 14.947587165394092 10.917568481917852 7.5394866632847055
Hg 7.7575956249928515 11.487341561269604 10.213174849862659
Hg 11.208823304209481 11.754325283127914 9.44984854236069
Hg 9.660807033708739 8.525713517832138 9.604711694452417
Hg 12.017140972870145 5.935266926238196 9.616743294125122
Hg 13.340044825460149 9.059114111177466 10.443677377209521
Hg 13.942977451350993 13.872898326776593 8.840373807985314
Hg 11.18690326712649 15.477066150087403 9.879167691532267
Hg 7.794127613638123 15.169516268229296 10.131782760566791
Hg 16.232352245510686 11.47936166766861 10.67951483212521
Hg 13.151857432781844 12.026162407055658 12.254325281841666
Hg 13.879674336854475 15.421824590340307 12.004333989940918
Hg 12.588149992649935 7.750782028924581 13.603039354560744
Hg 6.706708724100998 8.583988180565727 11.967505736841058
Hg 9.701921861211234 13.593022157502341 12.471226701395084
Hg 10.185116879993759 10.176336505409 12.572965778059283
Hg 15.460084449676632 9.635653624387013 13.599927278332716
Hg 9.346282031956253 6.952150127135436 13.344750124238933
Hg 6.6857888972304975 12.236241389307388 13.404273029115856
Hg 15.72303765852605 13.30918002207659 14.113142782677423
Hg 12.28844626762454 14.118922298063826 14.917809109068298
Hg 12.54576862933412 10.664795125295413 15.493403291628992
Hg 7.55851677705631 9.350169605888919 15.222874217518541
Hg 9.394924243602654 12.24723195231871 15.718476223212521
Hg 6.170138017566997 12.00528486270171 17.022260374157504
