30
Energy = -3.56557834 Dir = /p/work1/plile1/GA_structures/Hg/30/all_candidates/4104/
Hg 12.400536278587694 13.197904105934322 6.202980272329211
Hg 10.781421996145856 10.19798531695478 6.4274539583065184
Hg 14.245650264069916 10.505875706530093 7.519700409857252
Hg 9.963692305797286 14.794071292990278 8.113253537248633
Hg 8.060265710772287 11.877934726981085 7.827859951205961
Hg 8.811055513304293 8.615934044620616 8.67022626116673
Hg 12.093168342756139 8.105032693032157 9.177059110019792
Hg 11.590336373358156 11.854309270506924 9.237847810329196
Hg 14.442880035531728 15.02115301302252 9.171746159834068
Hg 7.056086362516027 14.506355064326165 9.9590356052729
Hg 15.839680879922172 12.068775908172283 10.504925923496362
Hg 15.233435610038633 8.632216283285079 10.194588634511964
Hg 11.558898875015656 16.383003004614324 10.755501949029467
Hg 18.299203447155186 9.69300631140088 11.043156708331972
Hg 5.951205274397765 11.321505552465506 10.73934898947317
Hg 6.477954626360794 8.084689799662408 11.269470896683023
Hg 9.41582527721684 6.731789799257824 12.115022857884655
Hg 10.194878101369897 9.990057160832647 11.789280097522951
Hg 12.927889574504068 11.902718852230382 12.332423972985355
Hg 12.655837107357776 7.574985822865642 12.604132136887587
Hg 9.947645355857585 13.468506387790688 11.789406761709607
Hg 13.991093012156202 15.280120554981163 12.867893377395134
Hg 7.266618225170197 12.386737994064033 13.649085779105693
Hg 15.618832059409838 9.429557094434587 13.427481581608943
Hg 7.618988300653115 8.892770245910707 14.416766225647681
Hg 15.586705994592432 12.66855484118697 14.480388072513398
Hg 12.663277427441326 9.923877094509402 15.067211403084082
Hg 12.336968060108381 13.494431022304385 15.343680312545875
Hg 9.681715509329221 11.296318489143173 15.592916151883339
Hg 6.233554310478088 11.045122757363847 16.655455303503732
