5
Energy = -0.2680199 eV
Hg 8.778280567761668 9.754847867256872 12.22733733281725
Hg 12.507057130669383 10.093517826563602 7.35152808545376
Hg 10.160520080387347 8.256352893307092 9.244559800282678
Hg 11.20198164965119 11.6863845292321 10.387101245510534
Hg 9.710113910416476 12.891875354481357 13.522176993723825
