5
Energy = -0.23437564 eV
Hg 9.355116637278265 5.943121247972353 7.017094835948394
Hg 6.091345336283814 7.204716652831911 9.731986355499982
Hg 9.735896891016084 9.39157972714003 6.809373674995482
Hg 5.457314278887212 8.422595395562395 6.164046999892027
Hg 10.524359056232754 7.769385371106085 9.72703048799631
