5
Energy = -0.33318217 eV
Hg 10.318073759901981 9.781753408896256 12.809190520205256
Hg 10.6495067800311 8.720445702272634 9.527656079869068
Hg 7.514373495927646 8.946319619923626 10.811527162344245
Hg 10.04278836177519 12.082058972842665 10.027653443843608
Hg 11.910536631251057 10.823999619027735 7.193699388342515
