5
Energy = -0.25752059 eV
Hg 6.119022212714616 8.214328101362748 5.023596446042426
Hg 10.31367777697087 4.787966770540565 5.562162756162887
Hg 4.719111709039211 7.407602027301749 8.2237546561212
Hg 8.202763160590946 7.861001334803458 7.925060916979664
Hg 8.468903595640374 9.553668365891898 11.087921246075453
