5
Energy = -0.28580688 eV
Hg 10.703561049541358 11.627469956363523 13.190047029575885
Hg 12.33111538093424 8.977044440676929 11.546575446599425
Hg 9.606035564536858 14.024626230423364 10.821155337564408
Hg 11.91055097273904 9.277008334932718 7.979174432113461
Hg 9.391290936146339 10.381878403543391 10.294573669674
