5
Energy = -0.22538892 eV
Hg 15.475253751367392 10.578421641282064 10.85644810416028
Hg 13.720338860914776 13.440578543388607 12.162185709039319
Hg 10.282568053579087 13.07964236024971 11.864131154831426
Hg 9.07563856735992 10.601361455503437 9.699502131179493
Hg 9.189928439704094 10.033351636893757 13.150382188059924
