5
Energy = -0.26460584 eV
Hg 8.53019991537971 13.262037024467235 10.831241862770845
Hg 11.364781676558279 8.031870714181855 7.295346982197643
Hg 9.014604547154812 10.2293362596165 12.547852474716377
Hg 9.725500223906202 10.828203683785569 8.72749815113321
Hg 10.838679646822198 7.624423029272982 10.634661086494031
