5
Energy = -0.24398414 eV
Hg 13.744570210074986 14.370968652500512 13.883475608263163
Hg 11.571993431963968 0.8187385858063452 14.454494452070657
Hg 2.7736631674395404 10.968420019186194 14.955380287231307
Hg 0.41791313271752495 13.682945244518178 15.557105089496567
Hg 14.4909405360625 0.24976602472286893 0.20316114398353416
