5
Energy = -0.15986138 eV
Hg 8.871974084775049 7.362188088213163 4.072647025070902
Hg 8.391514450138137 6.121172389354477 7.381033527604781
Hg 3.0560710965769267 11.993317709852908 8.608716584742664
Hg 11.30319178684621 7.835310259919298 9.055689571257325
Hg 5.627783962288154 3.826289717156222 7.095905211932797
