6
Energy = -0.41024196 eV
Hg 14.7010235775356 11.512328073427181 12.864830582748601
Hg 13.952777520933441 6.958029780641519 14.76483785811854
Hg 12.115708666017015 12.579829135172831 9.940186590355797
Hg 12.080264287613444 15.750865665277724 11.293827071923074
Hg 9.125126997455986 14.192698638130505 10.48181203249856
Hg 11.044009163928314 12.873862421291689 13.143494168732266
