6
Energy = -0.384641 eV
Hg 15.581047413027198 15.054739429130182 13.505563944597423
Hg 12.656117460049265 13.018755346970812 14.036424023967967
Hg 9.919321015730441 11.003487250903138 14.54180412383355
Hg 0.5488163399887892 0.8140323989000732 0.2548596597744041
Hg 14.028468402390933 14.804056489589065 1.0280912347941054
Hg 11.256351271296456 12.867820749312225 1.2765716169586852
