6
Energy = -0.36929651 eV
Hg 4.7635764197440205 8.745974643962507 7.688029592765719
Hg 6.090792485447845 3.635615800339328 7.145327896138891
Hg 9.009655431283406 9.025141195590066 10.054003332014995
Hg 7.379471520197306 6.590288862078616 8.331522336890531
Hg 10.147416859018186 7.953340321043424 6.871410289183883
Hg 7.1618582416960495 8.975513549332954 5.052350047626665
