6
Energy = -0.42505674 eV
Hg 7.376077235991881 8.930691857297829 12.026377677244975
Hg 9.990760433838792 7.383368856383282 10.22580384363669
Hg 8.95298128241012 10.474620398590526 8.905825377630721
Hg 12.067134545272017 9.0814478257355 7.869760751019636
Hg 12.033987947334005 12.25538849734428 9.443338099746967
Hg 9.48454813995307 11.79337890027807 12.044560681798265
