6
Energy = -0.3840578 eV
Hg 11.584139871066307 9.724999253768193 7.352618749867682
Hg 8.704615732015075 9.89110640762685 9.44133502725377
Hg 11.668049162837429 12.079770615083575 10.439720666657939
Hg 12.352426744507785 8.562723012963005 10.685038686948717
Hg 9.694004693694126 9.460423465587095 12.84983790210487
Hg 8.629958841568675 12.914172290660552 11.864644012856544
