6
Energy = -0.32591529 eV
Hg 12.284717588226602 11.918192821810486 9.289938176356298
Hg 9.331775830623295 10.53874649767721 8.266764322905768
Hg 10.85689876628699 9.419278626550037 11.136683973532634
Hg 14.766685028361092 11.028823547869868 14.033775465321572
Hg 9.435849672837795 12.533198775521479 11.081897542387955
Hg 12.52482597500528 13.504504070630391 14.877751001472555
