6
Energy = -0.37563215 eV
Hg 11.714301936148797 8.89397297204322 7.9201240458740365
Hg 12.231072933836641 11.767687144205334 9.810301014603032
Hg 8.790643691468519 10.305363258730003 9.738518405242093
Hg 10.858155314504641 7.740205662388853 11.37705295515878
Hg 8.788878698453912 13.419406706165873 11.407335020323844
Hg 10.724815507975256 10.981232338854618 12.85453664118624
