6
Energy = -0.42179107 eV
Hg 7.427395805577486 9.674023804112796 9.075236632279857
Hg 9.526997990107038 10.686691402864977 6.241520469887185
Hg 7.305721094428335 7.919072449796474 5.850794139081147
Hg 9.992853034099513 7.729283016144375 8.366608780972477
Hg 7.946890106794481 6.771161149169142 11.274742796395017
Hg 10.14863624751871 9.56826162086135 11.539590624333426
