6
Energy = -0.37099296 eV
Hg 16.167829868529616 14.270479932459176 14.220259564091588
Hg 15.353927004534992 -0.0493563253011357 15.912425083576995
Hg 14.274160900464906 5.650945064389552 0.2675783485615713
Hg 15.892343631299942 13.488435793683598 0.3031001481933186
Hg 14.55024239012393 2.2561881566096686 1.0858241370022816
Hg 14.818582513434164 16.23292799825339 2.385788136189551
