6
Energy = -0.34110691 eV
Hg 8.672959974409713 7.313848567947334 11.418986098188807
Hg 8.198531870543194 5.926957080122814 3.7789019183052326
Hg 10.738720249398401 9.680185169691912 9.924737063797751
Hg 8.71762571559984 7.365637677542323 8.030049228926382
Hg 7.315721857745467 10.438536320390314 8.511204831982116
Hg 5.638995776303575 7.623836916536367 9.801737317276183
