6
Energy = -0.2338987 eV
Hg 17.17005331158558 2.5893265739119995 14.92064540640582
Hg 17.48020732272921 19.386466804465297 17.153465132591364
Hg 18.22893549410103 16.503973238568076 19.159463759033173
Hg 18.44428103996129 13.354388667900277 1.419449902080673
Hg 17.892122671986282 10.310259123246023 3.063821093370317
Hg 17.360739885249895 7.265592452722556 4.791423682971336
