6
Energy = -0.4162462 eV
Hg 5.704449137387293 8.282377244214953 7.49066431691657
Hg 8.303398919926588 5.681725302457061 8.258801510991779
Hg 9.00741265175337 8.253223757669463 5.94406838440162
Hg 7.517458564062999 8.262071763146011 10.603053951183597
Hg 8.239481901678719 10.842655580198562 8.250544752355774
Hg 10.804163825191269 8.254311555692698 9.029231880771569
