7
Energy = -0.29449733 eV
Hg 13.89414803412403 11.771486721428968 14.960010067645266
Hg 11.089116705953764 8.507914976962466 10.93851924200955
Hg 10.244378303164007 11.710954713150285 9.245090480297815
Hg 16.298385339090533 14.399543979011217 10.6415487358118
Hg 10.397878076076264 11.919811181153213 14.899265371769705
Hg 14.82563766214274 14.952566963702111 13.879030503592572
Hg 9.636779326581642 13.92618852212819 12.014425639457304
