7
Energy = -0.34312622 eV
Hg 11.438996869971293 14.73330709742376 16.008484353046942
Hg 12.799353158206435 12.207585389972712 9.755014640917933
Hg 12.699116950663784 8.779103555841997 9.149678456465098
Hg 16.250409824144576 13.220381424095242 9.414507631023305
Hg 12.6936553375168 11.445457679743223 15.563052276785205
Hg 9.449075508262686 14.718693270809009 12.983989885650503
Hg 11.74909446492274 10.19399618497057 12.34899552070832
