7
Energy = -0.47124747 eV
Hg 8.890723363536855 6.703830520107173 10.994795895722358
Hg 9.89666577086328 9.898968125589501 6.42704530647958
Hg 8.804410021298027 4.838436899642786 5.908654035045668
Hg 6.456461410597956 5.7695190855130045 8.787503268986768
Hg 6.485394287803378 10.959859910836343 7.487244489011172
Hg 4.3003183588428255 5.873865038484154 6.131243860417675
Hg 7.041740867757118 7.81444464384433 6.148307636444161
