7
Energy = -0.45056202 eV
Hg 14.927135809971107 12.789224116157499 15.465303117868958
Hg 12.146393629276199 10.6199562232263 14.125141438712227
Hg 15.494931762889221 10.043456122935842 13.419372563896738
Hg 10.599047322564646 10.543318571040478 10.903827358872766
Hg 9.562778264799308 13.66469149643372 11.617837607574458
Hg 11.866500896343553 13.134938161607383 9.071639082769728
Hg 8.579538025783384 12.310332519033706 8.595875656820967
