7
Energy = -0.42582631 eV
Hg 12.428801944520474 10.732749075373214 14.276322602492987
Hg 8.934916438827196 10.489333028411886 14.101715401047157
Hg 11.777859185117892 7.68578388104691 9.243794927286682
Hg 13.133866060707787 10.953630663498842 8.934635086213566
Hg 10.325865337563002 10.475490712723403 10.978464864723163
Hg 10.515880501301876 13.3467564931053 8.982946157316881
Hg 7.7902838618363095 11.195834712261604 8.514130061778621
