7
Energy = -0.37017966 eV
Hg 13.752328180320502 11.126085551302573 14.7684746725211
Hg 11.151043223580087 14.508928231133472 11.389661617776424
Hg 12.02574026668811 12.171116219873461 8.82757921469212
Hg 10.122317044410849 15.25600207704585 16.286220283000883
Hg 15.531844921195106 11.401108944269863 9.34827793698698
Hg 15.809400781256246 12.952414806272818 12.591457024789127
Hg 10.616172807601352 12.446296364327836 14.118053364630795
