7
Energy = -0.3090567 eV
Hg 9.281829600140458 9.219864409574827 11.074664265208812
Hg 9.308701222113294 12.704931421919088 10.85065958373464
Hg 15.76969021032424 13.589136833322133 14.184186047155027
Hg 13.95025838728747 15.711010234240664 12.105858724217018
Hg 11.430795374466378 8.187690253787224 13.681087674612396
Hg 12.448687858035367 13.645830082751617 9.71283882457627
Hg 15.78320397263969 15.360567394759824 17.193238938830497
