7
Energy = -0.33712082 eV
Hg 11.111723938166135 15.372155681981246 10.795503722767371
Hg 14.473085925917053 15.067633984464866 12.057445766547247
Hg 10.456183798059214 12.305586705841359 9.047268660132852
Hg 11.277829080321988 11.655305502478855 14.935107918437911
Hg 14.197207687604108 13.59149087817037 15.244390731391489
Hg 13.102079967321602 10.154954296577412 10.069548836580427
Hg 12.208957660074477 8.781206038523488 13.159742841053887
