7
Energy = -0.4675336 eV
Hg 14.089207492622746 10.892382026471434 13.591047506047246
Hg 8.2353603276241 15.906249708655007 14.345634901436766
Hg 16.10785331751909 9.076143463182538 11.414765330018414
Hg 9.072818704611866 12.493040954301554 13.801557014488305
Hg 15.407316202361129 12.45368941575782 10.870232456728079
Hg 12.78163016015486 10.095453514390861 10.591209216201044
Hg 10.370740628063116 15.117953258410608 11.682672574595351
