7
Energy = -0.47104432 eV
Hg 8.908059618727785 12.205116594131518 12.727344490292834
Hg 12.883327490423785 9.390050936675992 10.45543166369947
Hg 13.727309764480324 12.70432987559543 10.124556315103145
Hg 8.80929914308053 12.164091420686168 9.357559611532025
Hg 14.253115597539106 11.084102503053126 13.094976807225674
Hg 12.019238687074731 13.67840820558306 12.940409031752841
Hg 9.491459473778843 9.321827499971295 11.06431606908715
