8
Energy = -0.55402478 eV
Hg 13.954112340989063 9.656227073639492 10.881085823074642
Hg 13.489079386756245 12.0892075744592 13.51994749006231
Hg 11.107025153485388 7.935600583815071 10.074215259683655
Hg 10.31616869062455 12.17417898048713 14.827254710221561
Hg 13.484023007262005 12.970829393350511 10.30091133293507
Hg 8.734925501253194 10.347694599380855 9.530305379823465
Hg 8.40543951871491 12.716582974086938 12.014882346310742
Hg 10.304355065144463 13.419501482437886 9.292743398763658
