8
Energy = -0.52601641 eV
Hg 15.17265705396839 12.426830757985488 11.184067691195022
Hg 18.142050588149154 10.98396079558386 12.021353303599964
Hg 15.60602373707763 9.0715355814533 10.80052062267028
Hg 11.635738466937813 15.341386220298078 14.035913811290335
Hg 15.384751182549794 10.415565740549253 13.920718524414161
Hg 9.029627548837446 16.030585862942257 11.958091218042266
Hg 9.119407743156057 17.39542206107978 15.069779990489861
Hg 8.553841034353656 14.061642601310826 14.692419622562994
