8
Energy = -0.4600106 eV
Hg 10.76523413265727 16.02735548856993 11.561748720797826
Hg 10.503077161908262 12.882159771293923 13.151745481781779
Hg 12.61185902132355 8.42620274357883 12.841212380912095
Hg 11.005659140947182 9.50159858109059 15.780271662690822
Hg 12.509502257238749 11.320216496052359 10.770163119737903
Hg 14.152801857304237 16.568220774359254 12.090822219060044
Hg 14.684437710766389 13.950691880598562 9.904848092432049
Hg 14.95251428600307 14.996567911552262 15.21256847662387
