8
Energy = -0.39431403 eV
Hg 10.77022364755661 16.297591899180613 14.996616531544564
Hg 8.88584556370084 11.063840764283738 13.657663573877999
Hg 8.795849564843333 14.411013534202654 12.57626907843539
Hg 15.51471787386995 13.532510991604164 15.03093224039912
Hg 14.163158679862578 10.607502683186228 13.838808960081568
Hg 13.638333532576622 15.722800340042262 13.092953761181596
Hg 17.340070262617804 13.147772426379557 10.077081368647498
Hg 15.693412748358728 9.9881214675546 10.763915010635412
