8
Energy = -0.43025017 eV
Hg 10.154418171616895 16.801557861841133 11.231789730438722
Hg 11.762003041101357 18.150131145515513 8.486904995209366
Hg 16.54731811017227 12.288440269846397 12.001407706461597
Hg 17.092974668111268 9.59640209952684 14.144259677552503
Hg 13.919422040393751 8.802018397071576 15.47966199510773
Hg 11.760288051110633 10.9373140990408 13.848153996289094
Hg 12.819864726595236 16.27885539527705 13.575796609945325
Hg 11.212211745157145 13.890662784154502 15.489621972041085
