8
Energy = -0.49462427 eV
Hg 13.793292124416459 9.351018243723988 12.086082231759674
Hg 11.06983847561569 10.899868794247945 7.914006510369784
Hg 13.811391282869955 11.84844547698463 9.690858212909902
Hg 14.062296170919755 12.078169155885515 14.33069989755662
Hg 8.376903579339197 11.601246785195118 9.979820613135566
Hg 12.745532322568964 14.26625881925283 11.824971044211985
Hg 11.146711626812323 10.090697201064627 14.149696858188934
Hg 9.743745616969054 12.985569378432523 12.793500446844908
