8
Energy = -0.60612234 eV
Hg 3.2542973383338407 8.111459131388758 7.0942992148720565
Hg 8.802981252575059 6.115905572480283 5.316627726206586
Hg 6.297730221964912 8.270056651039779 8.858453565211216
Hg 9.212228910524672 8.272618143966213 10.624614719336632
Hg 6.30978116576745 8.593725729128145 5.4701758385193155
Hg 9.413438222578893 9.02407590560253 7.26577268310063
Hg 10.647583922379356 5.97577852095823 8.335812693279495
Hg 5.562345903750746 5.553384846840903 6.848950922849035
