9
Energy = -0.63999178 eV
Hg 15.408978811576576 12.71621204054973 12.82633131996077
Hg 13.566862677914566 11.358015356645607 10.326963555283116
Hg 12.189642996201307 8.832768278172002 12.322784177830231
Hg 9.668655256474075 8.338123534468709 10.13273480118901
Hg 14.536113941355955 16.031782442980894 12.815320681563588
Hg 9.257564838505674 10.624747960042198 12.585843698470077
Hg 13.292533666613638 13.951378476832135 15.224273280687989
Hg 10.586762154501125 13.096941819829626 10.500836149495706
Hg 11.168948494787053 15.37921581672059 12.948151143966523
