9
Energy = -0.64370421 eV
Hg 14.142641500434586 8.436959501460365 15.078582843914807
Hg 16.031551832793934 11.006073767877984 13.914789229871314
Hg 14.302171654079073 9.057034928525146 11.72099629634747
Hg 12.811851223756038 11.643830864252285 14.990217638808666
Hg 11.148099333994269 11.122346270582941 11.97828559559714
Hg 12.53238847127434 13.58960268731761 9.956119951598513
Hg 9.034997717733022 14.137370491430039 12.669418843215274
Hg 11.536179128948682 16.318332967137486 11.825078894148483
Hg 9.461988884348285 15.116361752442607 9.415037032140418
