9
Energy = -0.46222649 eV
Hg 8.188556850802481 13.802972486536248 17.60762409443895
Hg 19.03475388668325 14.065402891902485 13.084437918447014
Hg 17.029981520456314 15.57394521266331 18.01042928493912
Hg 11.284996397915258 16.306172703411004 13.31678211988188
Hg 16.128784619825364 15.508224735140018 14.616899640774887
Hg 15.251366428832918 11.050378327360802 11.536470503617826
Hg 13.546813511369468 13.560399842741251 13.274131829884213
Hg 11.012842134662645 15.796199230119711 16.80025379877537
Hg 17.59278461232991 13.26904865566632 10.009850849521229
