9
Energy = -0.58636262 eV
Hg 18.589378027148854 13.35559595858307 13.053762500575896
Hg 17.315018102468116 16.461043845753586 13.915133794989478
Hg 18.48823107348119 14.438248988363261 16.34978425910286
Hg 15.503448971890649 11.903460509680093 13.483197764746706
Hg 15.056123573812297 14.483524879313556 15.66879876534772
Hg 11.080272036028855 11.895593675642335 12.095046164967899
Hg 10.079393074365742 15.132105660593451 11.802192386631388
Hg 10.255665101357945 13.698223070670132 14.880590880803219
Hg 7.811439745599192 12.749397986182297 12.698405097760913
