9
Energy = -0.43884835 eV
Hg 10.629905710044062 15.852165158829331 11.486533696381914
Hg 12.183304005130013 18.714107579145306 12.911133118139377
Hg 14.132399438364914 12.948025868067976 11.26221107373264
Hg 12.562815794346248 9.12332449815187 18.164651071603934
Hg 11.543223835113237 13.166022762603703 13.541437331881749
Hg 14.752818490220196 10.734994423566492 15.617975971018845
Hg 16.517505453629514 15.223963282210113 12.446183797093523
Hg 14.34982432877622 16.717305150809416 14.854974994421829
Hg 15.749543292318442 10.106932272733058 12.290839146838568
