9
Energy = -0.5097573 eV
Hg 12.837072254226733 12.849551719124928 10.626656979054644
Hg 15.710486168903483 15.491855297949398 9.039026060776838
Hg 14.39956155101158 12.001367524000086 16.154068976965725
Hg 10.141539596858896 10.927076356879864 11.499151796118014
Hg 17.598928556406182 13.283840775925555 10.952728369950517
Hg 9.365900733432328 11.2353998034299 15.111486183373485
Hg 15.207634381153413 11.227596904762718 12.588445412170264
Hg 13.023201333202476 15.21567333814623 16.208626887274963
Hg 9.400340435416517 14.698934384954704 15.734369735334928
