33
Energy = -69.88596760 eV
Ag 14.420752426110694 11.866127885868202 9.349441333837433
Ag 12.719728494442187 12.021997316324024 7.060532903893711
Ag 14.570305571455446 13.881852726921112 11.387700667676782
Ag 12.709195097209317 14.078769799689999 9.061277167040934
Ag 12.986699770275637 9.204671009978282 9.998776851134458
Ag 11.399507885749165 9.614532078352948 7.633537349995123
Ag 10.407453242297453 11.185814726501988 5.6244664099237545
Ag 12.479018946275177 15.928906748269592 11.102059687286053
Ag 13.8174900840156 11.081225126085078 11.958498680163038
Ag 13.20895878117669 15.346719631347623 13.74254802615199
Ag 10.131796665509722 12.84035975356855 7.876594908286243
Ag 11.668671470159492 11.611243245428675 9.80407969655837
Ag 14.09787985003826 12.787637136451975 14.107781054731296
Ag 13.548918507362623 6.610710084065639 10.85749417275301
Ag 10.143629605217809 14.32353373660832 10.322441616541605
Ag 12.017383780662255 13.301305962410412 12.138702706256288
Ag 10.43395060936658 15.45593798551374 13.004469879536709
Ag 10.849713639703197 10.597794276824569 12.231750761524102
Ag 12.412222826266976 10.623102557328636 14.551430250914763
Ag 8.82482053974152 11.805593222204774 10.209253884841738
Ag 12.93854087987926 8.547742693126038 12.766236269671044
Ag 8.631352796317632 10.431634354090585 7.732178599051218
Ag 9.892079830931928 9.078126087850205 9.943844484778223
Ag 11.614138010782865 7.091528652458467 8.839270116611962
Ag 10.386420827440059 8.387237076611338 13.974965883843716
Ag 11.311276822278122 13.290909041018228 14.811102979246224
Ag 10.908051222825867 6.994362639428018 11.592810042757295
Ag 9.242415034816917 12.963025552753075 12.759002551775362
Ag 9.585616979842607 10.977790416472066 14.822055931705927
Ag 7.929550551837629 10.493652620812405 12.524041003540326
Ag 7.181183706263957 9.525694558886215 10.006126382587473
Ag 7.7645069199843295 8.778185485289344 14.696442636171827
Ag 8.30742216713911 7.8181270687002975 12.02782492821908
