10
Energy = -32.25568623 eV
Pb 13.376621208312422 10.201545848818528 10.258465167496368
Pb 12.7768170466417 12.729848298517584 12.424761775282096
Pb 11.428933473999367 10.024973016600203 12.822853841597665
Pb 10.976273546675088 10.027118302439568 8.212315806049276
Pb 11.38610726900223 12.872041707051673 9.715958568082344
Pb 8.399215711761512 11.96752133932709 9.19762251304591
Pb 9.416007662103306 12.680587619567017 12.2715345781612
Pb 8.32014605473975 8.629199784914944 8.723112566659312
Pb 11.049289130144972 7.8362687879135215 10.575878517462687
Pb 8.457087859881945 9.753940623894424 11.549903363261961
