11
Energy = -34.96956341 eV
Pb 6.481136515321692 7.869201813993311 7.152347347209912
Pb 9.781816122811362 8.564217636064553 7.301606379676448
Pb 9.729538607082636 7.478935108431689 11.1400714811136
Pb 7.968479607325388 10.478901634531926 5.826066493319205
Pb 11.653705439159229 9.716157465585631 9.867238706551085
Pb 11.629129787128061 6.636015294738254 8.728134421474657
Pb 8.453243774964626 5.798809751517465 8.715706776448602
Pb 8.733404983156042 10.520423215994564 11.216565129320134
Pb 6.706556501953796 10.652863308121686 8.74246001031646
Pb 9.681953191139618 11.786336221710659 8.302997568645333
Pb 6.636987153990503 7.954090549309885 10.462757053991242
