10
Energy = -32.29938268 eV
Pb 7.7724020135453875 5.944619485136129 7.361939497378127
Pb 8.96330073416178 8.857587733862376 6.2730347036011835
Pb 6.3845275604515175 8.394279693190928 8.438396854487884
Pb 11.835240533166283 9.376044152957538 7.885751474094454
Pb 9.493012903062192 11.02328683770753 8.834259177366148
Pb 7.8630921238774345 6.9365591145076415 10.830013782120487
Pb 10.263586572940188 6.944746099777222 8.746123943081107
Pb 7.283282842979866 10.142369288554585 10.918648454050532
Pb 10.332429542481565 9.027043853316503 11.143699855280524
Pb 6.859479026095214 11.17339313743446 7.388061956762217
