17
Energy = -55.89757082 eV
Pb 13.56266497043614 13.285294396209013 15.284051585104383
Pb 10.859552653177314 11.275900390419768 15.102164560653758
Pb 10.586832467332034 14.496746737748513 14.80160882784872
Pb 12.622572985955232 9.103997074092048 13.209274090986368
Pb 8.625898801336337 12.866720586278957 12.907679629003692
Pb 12.864828057051366 16.032771324318265 13.203771710115303
Pb 15.533056217637167 14.325876814086882 12.919288856079252
Pb 15.323343185446877 11.12153939547368 13.38755411151588
Pb 12.323488718024118 12.412992278090801 12.143675298900167
Pb 12.799383538746497 12.10393172181635 8.708597937017789
Pb 9.64293925184741 12.192675119733535 9.906277625530825
Pb 14.479347499233088 9.674149744044701 10.607773585829735
Pb 10.33570106944204 15.159203898406835 11.357903997457973
Pb 13.496168949926961 15.0641580636984 10.174046361566011
Pb 15.622713622334686 12.61911188270776 10.23701674853375
Pb 9.539471261068588 9.844893000966644 12.506129861857964
Pb 11.378969202932328 9.455082081698446 9.942075526001611
