15
Energy = -49.35220509 eV
Pb 14.737652240332023 12.267731781003366 12.2520195849852
Pb 12.547748737550839 12.0285174154098 14.713632875486478
Pb 13.656816397230534 9.344007466165007 13.139395845145232
Pb 12.410830948440339 14.573249812279355 12.719780509353892
Pb 13.476720558264395 10.138798128694622 9.630558780707268
Pb 10.545236717173813 9.529235704841572 14.252220130258866
Pb 13.45775465104499 13.780526862853208 9.694410024867699
Pb 11.405392375442904 11.450998640429 11.407934349525444
Pb 10.312684267740574 14.604779821156733 10.252390249372803
Pb 11.280182390594542 7.905183196450711 11.476805241972492
Pb 11.118894098360641 12.32269593922336 7.997512350716017
Pb 10.03630716191231 9.39698679210539 8.887216892294607
Pb 9.340617538767685 12.760005921912073 13.195337598497977
Pb 8.447525148477403 9.565165099122236 11.786543648008337
Pb 8.340827680710346 12.089834026878174 9.764810146076954
