16
Energy = -52.38772905 eV
Pb 11.892812125162095 7.977722506471626 11.663700267513164
Pb 10.606710604805567 9.415018926689944 9.087270006774927
Pb 13.75474956250778 10.110569166389645 9.741044329365657
Pb 13.97996124249921 9.607769499613056 13.598377394768912
Pb 11.067791927334914 12.447487721729239 8.261089700942717
Pb 11.699814774068361 11.633101006070621 11.704214760186685
Pb 8.8966155557657 9.268754842439149 11.8712071332455
Pb 10.89329491998226 9.339755382216458 14.457928813430145
Pb 8.828739364828186 11.80579420357647 13.85254656915521
Pb 8.769397486325234 12.457414270769865 10.617137828766642
Pb 15.268292655347059 12.008922414713552 11.965106432522777
Pb 13.917792681115786 13.517329114783534 9.472651004830368
Pb 12.509577210915841 12.328379514916799 14.746725520380306
Pb 11.093948449130963 14.956421441240876 10.272380499273522
Pb 13.494392696183219 14.716190291021476 12.482298114285985
Pb 10.434583811125142 14.520196507409857 13.44769022464832
