10
Energy = -30.56089218 eV
Pb 12.902255977843401 10.048819610002894 10.183894466005636
Pb 10.74706372957587 10.97341764804951 7.611295672197775
Pb 14.279598158137217 9.801936925537493 13.366742732584031
Pb 12.061778474911875 11.806716280532733 15.155455428750448
Pb 11.212825613254886 9.696948890861364 13.078048578277883
Pb 13.252909197786346 12.547953641172397 12.41185038716011
Pb 8.513516599386177 12.986173878641914 9.36826664889812
Pb 9.542274622453318 10.255250583527392 10.354428172990666
Pb 11.575246920815982 13.097748998086914 9.687352465162219
Pb 9.896749214761053 12.755708586510423 12.576135124423669
