10
Energy = -28.71497971 eV
Pb 18.622325271866735 14.948722772408908 16.575995033664913
Pb 15.416055987442693 14.338062004408256 16.58541761900996
Pb 17.301300096064708 12.662566632000456 14.590512244595457
Pb 19.345004809254977 17.358692759430138 14.550678871509536
Pb 4.337770413835356 15.032271688758492 15.886000229325646
Pb 19.904051849451974 14.381700839824793 13.667675980917535
Pb 16.41847512961456 17.334038225602818 15.981662680995555
Pb 17.0713480155895 15.628779847802647 13.30869357857535
Pb 14.263250751512912 14.906284334276863 13.867909524252749
Pb 2.9741539347816777 12.45316769192976 16.05402517621003
