18
Energy = -58.86609775 eV
Pb 12.37812536873119 12.517984880805246 14.39369349751528
Pb 14.006149768519242 13.38212060369322 11.006643905237917
Pb 10.475824332035195 8.022233386142956 11.797848471786105
Pb 12.388242520967262 9.167200582506592 14.298977945071982
Pb 9.161352823045425 13.203093802622169 13.781956527977417
Pb 12.312057198002904 11.61218232687914 8.01426820666914
Pb 9.435133245516798 10.137363703671973 14.258890028055971
Pb 7.9218884754747405 11.183208901559354 11.382173901023227
Pb 13.88671561918327 7.97359723223326 11.769443065147373
Pb 14.8453627535571 10.866521680877641 12.984887547520726
Pb 9.381193526753776 9.36599318401312 8.867453547615593
Pb 8.652733571516716 14.455911513493499 10.904888479277727
Pb 12.339055047740162 8.427776649827067 9.036583177236105
Pb 11.507184791738911 15.020745968760941 12.42137626791377
Pb 11.331105372130986 11.33241708448974 11.316288051688325
Pb 9.09404692212392 12.441323785339057 8.487029023993546
Pb 14.81570543391425 10.419455588350653 9.78709284576521
Pb 11.46985873920807 14.561571295719794 9.2227742790137
