15
Energy = -49.34135886 eV
Pb 10.310208138438133 8.850052869980464 6.569427736451908
Pb 9.263077054450806 11.872594844578018 7.042438043101918
Pb 12.411575802709397 11.125273194848056 7.722417022751995
Pb 7.307897103336105 9.220964276876442 8.568078363339247
Pb 12.679135378015902 8.059123189571125 8.727850495699059
Pb 9.72403224718501 6.57822381611466 8.799812474009565
Pb 10.868060094096947 13.313936710774485 9.540398838855113
Pb 7.643880402685742 12.614868517993726 9.748785129291505
Pb 9.917612663610527 9.922805439841676 9.92025149415341
Pb 12.535750867906103 10.613371878294968 11.28413273263579
Pb 8.123170179846467 7.324893511072031 11.518071052108972
Pb 11.416815322772546 7.1704650757191715 11.573184515400733
Pb 7.0875480040758445 10.351714346804782 12.000964372730794
Pb 9.622822071142428 12.432248883901012 12.39103534815428
Pb 9.907193925654854 9.368242699556479 13.411931637242235
