10
Energy = -31.60440465 eV
Pb 10.308790693258548 9.6402378055143 9.654826108482384
Pb 10.603860792147566 6.497360551825123 8.637372113868581
Pb 8.569682527984687 12.229329002309864 10.030687421791994
Pb 9.189751861053843 11.261427514427108 6.987234429373679
Pb 8.482157858166373 8.081486772339066 6.719727159130721
Pb 7.556826239929257 7.028235753171745 9.696048872120809
Pb 6.6684193390960385 10.022397595367817 8.66027821442243
Pb 11.555054783723245 9.033759431287029 6.8355046615417
Pb 7.717029580886547 9.586996957276973 11.725783741574313
Pb 10.032616444672739 7.302958616480577 11.73672703585611
