11
Energy = -35.1395788 eV
Pb 9.892219703730529 13.259505236355544 8.500223755312305
Pb 10.229986391374581 11.404503604362665 6.046169890376681
Pb 11.961153451910024 10.89184880558374 8.757900717349951
Pb 8.714674982864208 6.3045129717597055 11.756761587906713
Pb 7.972580113384193 7.180061853253991 8.790565840064115
Pb 7.35565132223565 9.225969816516264 11.282540468138878
Pb 10.675556883718205 8.41212878398937 7.047812449737455
Pb 10.763903363284898 8.254909209959507 10.289500500408622
Pb 8.345345866629739 10.390027762075933 8.399013135843301
Pb 9.71781455092958 8.763656267706729 13.335427689256239
Pb 9.874500369938541 11.416262333506658 11.297470965605884
