11
Energy = -35.29173795 eV
Pb 14.31342591350131 13.05031885826752 11.846292383899842
Pb 14.213128584097756 11.930700009658933 8.987113579654595
Pb 12.904940845134043 10.084852415796847 11.400107114337862
Pb 11.822684370892114 12.384596670126571 13.63224636733576
Pb 11.640126918514383 10.29161874156027 8.26704443121257
Pb 11.408836434706313 12.991277935997639 10.317616677628335
Pb 10.241813915138511 9.644677405494672 13.467753165731871
Pb 10.147375428525843 8.414520977880208 10.337310093831695
Pb 8.87438585311606 12.395946254968162 12.450757605216728
Pb 8.775688601579562 11.15855830895643 9.30279026384368
Pb 7.593192944154486 9.599739126682692 11.763230417570167
