16
Energy = -51.33464022 eV
Pb 16.279306664286477 12.619509991586847 13.194915017581557
Pb 11.85836803239878 16.7062142237735 11.318798858275942
Pb 11.92676414682422 9.387215528224196 12.584648575268082
Pb 10.52224413344737 11.546537554751556 10.853215804706982
Pb 14.483215844089111 17.342345457688342 13.576568849707982
Pb 11.924141590738344 15.870571504999907 14.538292352845382
Pb 14.839419370612884 9.728716696477491 13.717899917621198
Pb 14.139145003898602 11.379588253149148 10.806159155285558
Pb 12.70288597500623 12.54124448058 13.529346666822997
Pb 12.49819478891399 13.48220608866351 16.74915509920702
Pb 14.499871839477516 14.894624085863876 11.608720252492029
Pb 9.946420574102156 14.380940181976829 12.285784734267333
Pb 15.073800981445986 14.885582709055935 15.393283453908818
Pb 12.386783240927809 10.302306595432226 15.81693125760611
Pb 15.276201323426193 11.764036842447972 16.16112801849509
Pb 11.94181079961341 14.016201066684795 9.706692236931685
