17
Energy = -55.14244449 eV
Pb 9.993339178022117 10.066642146979094 15.090001329538426
Pb 12.919245288204028 10.845295783414356 13.953283725718293
Pb 11.198830107160417 8.373356153152764 12.545407046302287
Pb 7.638762904877986 11.924550738118361 13.897222234751368
Pb 10.63624285416796 13.151382562929879 14.022315192714636
Pb 7.970551132308095 8.739719202989603 13.034827904613614
Pb 14.301084957715872 11.70183030286859 11.152784300167625
Pb 6.840349042597922 10.969096576213184 10.927348145196564
Pb 10.892911539225375 9.694438533453068 7.311284188995503
Pb 13.655120944580041 10.722378296390067 6.260133906648523
Pb 13.458622766411063 9.363228185193076 9.203349411737413
Pb 9.102151397468976 12.071427617047373 8.694475310154449
Pb 12.51629632828156 12.612430888162935 8.593878171861375
Pb 10.978362124967784 11.323313084620276 11.338290387679658
Pb 15.694575755118748 11.575394831415242 8.302153322452272
Pb 9.22569558798821 8.93458054838824 10.011519771642563
Pb 8.738785147331102 13.691861605090528 11.42265270625269
