13
Energy = -41.00880269 eV
Pb 14.514764446583827 11.903605608107695 11.53657638059395
Pb 12.827952009213545 13.22850024477033 8.91576931446674
Pb 13.562103297672229 9.974113146455773 9.067359256405913
Pb 12.043768712903972 14.179472728631536 12.019483055212078
Pb 13.346481903192586 8.897245564383988 12.302672113437222
Pb 10.4431268314293 11.271184373287575 7.869092661823256
Pb 11.731464722208413 8.695610041610008 15.047380777013728
Pb 11.304695131622116 11.085343308429056 10.927349463307714
Pb 8.151180025564363 10.964629254051845 10.310592606177883
Pb 9.679160154058952 13.839192196425152 9.746359998094968
Pb 12.379466727248671 11.603750835335703 14.161398807278035
Pb 9.659100543089936 9.202773186703562 12.887516743453919
Pb 9.216167559065587 12.619098395066205 12.903621213455517
