14
Energy = -44.76061139 eV
Pb 12.301820198072559 7.3148731928595 10.283403713506083
Pb 9.544072675355794 9.500442589127275 9.794146776852807
Pb 9.781693680706116 5.790547034018149 8.940374926537672
Pb 7.475730696675055 12.2607826653572 10.644615646712317
Pb 7.658344334889219 11.83498426193229 7.440606888254209
Pb 10.555519217364301 10.712522377424488 6.685879199973852
Pb 8.146271186058271 8.33452061855595 7.078050493839044
Pb 7.064254216851533 7.062973390211078 10.045593160916592
Pb 5.789850724171393 9.881713727020555 9.239860248329624
Pb 11.64935864448703 7.743893748669797 7.143023091770995
Pb 7.279218364628929 9.484038695160102 12.212481357399078
Pb 12.695980007107856 10.254870179874535 9.097403153617131
Pb 9.64246246346059 7.064304620225944 12.03544715471566
Pb 10.33218259017161 12.676291660378066 9.27587318757453
