12
Energy = -38.24848196 eV
Pb 13.848151884359885 12.112450035219416 10.168834491514808
Pb 11.99278856596969 14.438420273419027 8.631360506415064
Pb 13.784873677538766 9.694000708879786 12.963311958833888
Pb 12.545224991185433 14.884489024559798 11.554895268058445
Pb 11.84820589601326 12.148031966240326 12.774103014554544
Pb 11.61520768259227 10.314951438517046 15.26840397862917
Pb 8.986412036329751 11.167902203603777 13.607109514690856
Pb 12.338628786509636 9.2455724345698 10.13448931167887
Pb 11.0433360229293 11.527917778213403 8.242279861904304
Pb 10.714916316376756 8.43188096728245 12.842116888119804
Pb 9.609099578463773 13.43164521937435 10.7466455237443
Pb 9.211468857499183 10.217222099064909 10.558281503042355
