15
Energy = -47.90115028 eV
Pb 11.438272439790872 11.062565648540238 14.186047764374694
Pb 11.984018442126795 14.069763229740563 13.10978767697117
Pb 9.493835047531158 12.744136082181196 12.081442623395688
Pb 8.96900612053631 9.290712307231455 12.810748747454738
Pb 12.189640356228065 8.478727170015656 12.549595817373408
Pb 12.954829038528064 11.525573632839293 11.316438916921602
Pb 11.575682740769567 14.141265864724646 9.89541103402712
Pb 9.723466596553617 6.775694546364573 7.797034687964007
Pb 10.210589212336082 9.796089389780642 6.731383882957348
Pb 9.107529942887481 12.343751719708509 8.555127276083551
Pb 8.288716382837203 8.93673993206099 9.307293657622514
Pb 10.071207401750092 6.718328230028588 11.02036993361526
Pb 12.017571716655388 8.606339022904155 9.18886968776387
Pb 12.33720691723477 11.742992800707208 8.002604882205723
Pb 7.114386620168836 11.243279399106855 10.923802387203292
