18
Energy = -58.40647593 eV
Pb 9.028107411513536 11.010188014528321 6.655994449452714
Pb 11.111906566381384 8.783526883102319 6.876312233253313
Pb 13.207551245033807 6.617713095886743 7.599389993995384
Pb 8.021141680772775 8.205136732399353 8.662783178631036
Pb 11.948090597553703 12.06731553657838 8.08566241485859
Pb 6.737673164114476 11.313664431769544 9.046920252109944
Pb 9.026015393840403 13.577229196286176 8.436392431547311
Pb 10.819765146879169 6.681789760793478 9.418370157815199
Pb 13.304181434968978 9.107659553145071 9.491077695840527
Pb 11.124423706693785 13.75025826162464 10.870954620001399
Pb 9.92855993729838 10.530951062477966 10.216286936424215
Pb 7.720560112591986 13.349614830129319 11.375735723009537
Pb 12.160064910564147 7.690319064401935 12.227724110505264
Pb 7.337917174901629 10.100853374353184 12.192003314861857
Pb 8.834131926814287 7.172980909312582 11.778691359890683
Pb 12.509429921793295 10.99672493949136 12.229759134246896
Pb 9.717204777135501 12.381824902788868 13.529252418761295
Pb 10.106242875138133 9.305217434920715 13.949657558784782
