19
Energy = -61.53430453 eV
Pb 12.813234848665887 11.715411588713982 8.363878379147783
Pb 9.805853340537848 12.1047524760153 9.746063623006794
Pb 11.56787526132206 14.730970677195545 9.14327391123998
Pb 14.472500472861647 14.077514208925924 10.399996681166487
Pb 10.415459057418671 9.21211682357157 8.574995028762704
Pb 7.701900115557864 9.888767295318825 10.093029337169261
Pb 15.313531865748356 10.909861233335091 10.224359329684969
Pb 12.629378545270315 9.104108329731215 10.735541392125407
Pb 9.114952823999007 14.91604369725664 11.236114164628836
Pb 12.189692055049726 12.23104054469175 12.36260442671709
Pb 9.620372452578096 9.152650230050854 12.39326938096956
Pb 8.131728612849518 12.13459900983276 12.702152499381173
Pb 15.044460589004286 9.25689366404059 12.950343500009177
Pb 12.235052328530825 15.573783058254994 12.189409175256005
Pb 15.502787657973839 12.527566734064065 13.043715110656914
Pb 12.164937829528746 8.61437521577194 14.132254979950027
Pb 10.196171648603483 14.242836434237319 14.211864476695808
Pb 10.34000852937941 11.171098145094106 15.128166982466603
Pb 13.578669513443664 11.274178182220338 15.207535169288365
