15
Energy = -48.112829 eV
Pb 13.850815702098755 14.220022744022067 13.38842074042053
Pb 12.184169701946635 11.78808092164131 14.77630144399274
Pb 10.670778629861955 14.604853350651391 12.339755467796499
Pb 9.273435954945176 13.172776628505781 14.872112227494883
Pb 14.979130925192631 11.066058516727557 13.272926529919795
Pb 12.293051982395438 12.088052655304883 11.392525862844735
Pb 15.36202683827716 13.098846566404234 10.732281223973562
Pb 9.36928712423283 10.151621073433759 13.886515116344636
Pb 12.137591221129435 9.10260436150356 12.354938688692979
Pb 8.08678891117511 12.555925065578576 12.04986623969339
Pb 14.596834770678157 9.967095874321913 10.207998986505043
Pb 9.89324381848058 12.877868132771242 9.397119366353063
Pb 13.319210151362075 12.490347253542158 8.346606005749381
Pb 11.575052041694281 9.868347522660875 8.86865285804294
Pb 9.015527551546036 9.806530836779661 10.72428043218692
