10
Energy = -29.60544084 eV
Pb 7.609615178439163 9.06748029123672 9.247597145982258
Pb 8.978206173502954 11.559298121983133 10.792760639003788
Pb 8.323519084000736 7.140608389450477 11.74683820928985
Pb 7.231541962132815 10.917516326241621 6.620400237881095
Pb 8.520537093650807 8.211225893034264 5.910162301322529
Pb 10.004225097378209 11.334793201934 7.896570550382105
Pb 9.19567133159584 5.880554632944427 9.0742613404859
Pb 6.57576967775282 6.497802321232123 7.575268764143423
Pb 10.678716505230064 9.004030835539268 11.058752108092705
Pb 10.820888196934826 8.325379986404096 8.016078402798248
