17
Energy = -53.61799948 eV
Pb 16.101802389255404 11.19990812277727 14.296091594440318
Pb 11.013663026906311 14.214645597748735 16.062910792565063
Pb 14.439438045874134 12.601378974525536 12.053970619792816
Pb 13.852564774887531 15.322811579999044 10.648349420630826
Pb 12.516853720571152 14.995917186012592 13.492304101225997
Pb 13.21183775062879 12.10691700258935 15.420415866477411
Pb 9.184333334521344 14.794086103186618 13.372819093781807
Pb 15.641517087231204 9.84837759705672 11.195075407451384
Pb 10.67000789643976 15.648674481641141 10.685420570778376
Pb 9.883345103211909 11.788185529562044 14.453620287294218
Pb 15.751630499425168 8.179481424214506 13.980692459272618
Pb 12.314556795746052 13.118965446628575 9.01896600935269
Pb 12.583151648397319 10.183416436987434 10.130342831955018
Pb 13.12710652560611 9.481181583374966 13.460880496303176
Pb 9.604815813497313 12.297275806059227 11.143217907700052
Pb 9.355181496421702 13.813761934010781 8.53524772116041
Pb 10.31974022772715 9.464163162469584 12.178875819072173
