17
Energy = -54.98599829 eV
Pb 10.253574971604412 14.410445761224004 10.82700998388799
Pb 14.914478086380079 11.061301517386603 12.6915585077071
Pb 15.283624665013157 13.491505151902208 10.282852774075243
Pb 16.69432056750614 13.863401584967102 13.45206566711561
Pb 11.957728139306477 11.514199073335478 11.043376643649584
Pb 12.184614627126113 13.239869927377505 8.571104731570292
Pb 9.78210581488715 12.6045089512274 13.60354782254659
Pb 13.887434378913277 9.590521976630326 15.294309119081753
Pb 12.047683093761366 16.694588503606006 12.881246570284992
Pb 11.265047917287504 9.738890448742318 13.393500901608556
Pb 14.681674457458305 12.652600611170328 15.797362933727152
Pb 14.823480672006731 15.865159743285652 15.137226962737065
Pb 11.73839262420655 14.649818565963738 15.711639639115011
Pb 12.906328733906637 16.031017471360148 9.84954181292162
Pb 13.11058286245818 13.721828747888052 13.010738354020036
Pb 11.494858588480666 11.52462603935626 16.081232489299172
Pb 15.268717051324506 16.298155367711182 11.965029114480862
