15
Energy = -48.37257168 eV
Pb 11.220587435494673 11.5890759880248 6.42842580177732
Pb 10.951552610229355 13.679411043399357 8.818577209331036
Pb 12.349136366926448 10.54477298897636 9.130848537770035
Pb 8.245246286366521 12.573388507115274 7.368968022369054
Pb 8.057788509756058 7.4736658842482395 9.814460196630357
Pb 9.41769210007669 9.434318706441546 7.68174524496013
Pb 6.79476757079713 10.56758446023894 9.354280746165673
Pb 11.48271229094898 7.4021153848211165 10.1168493180746
Pb 8.258997353311102 13.213415930962281 10.560612789071982
Pb 9.416144778602407 10.192284780514658 11.01991937910788
Pb 11.491810900721099 12.490179964783529 11.708094774725678
Pb 13.531276257576527 9.907518108161003 12.008394172702781
Pb 9.362212007453616 7.401539503842293 12.692611929062384
Pb 12.409528807133958 7.281898838246423 13.179905576151869
Pb 10.832223070387998 10.07050625600689 13.937982647881642
