19
Energy = -61.67215569 eV
Pb 8.833919002548752 11.788511210947986 13.262414247847406
Pb 14.697556173909211 12.213861285651662 14.191008687552914
Pb 13.339744577491787 12.411510035193897 17.329869980407395
Pb 15.24901868443585 14.757080875361556 16.116818386341482
Pb 17.48281144116352 12.86526559289844 11.746376565370099
Pb 8.770414394886833 14.455570849608163 15.094657302582972
Pb 11.341479487976871 12.36489835234884 14.86894064634744
Pb 14.849148668602671 11.02879155818623 11.31202410406518
Pb 16.435640602671167 11.526066101334214 16.7693124983895
Pb 11.61988509173296 15.27374158121284 16.34073778429755
Pb 14.771801245430481 14.228964050552248 10.616766571443684
Pb 12.929649590139736 15.098883891242709 13.48402041329087
Pb 16.336446764237852 15.560000265773752 13.164223501838958
Pb 10.305127580529774 16.972521756357292 13.631746489476244
Pb 9.118255003145984 14.565997527255165 11.880412743085323
Pb 17.27811244650865 10.401470551565668 13.807399127392776
Pb 11.663952112315064 15.907462810769571 10.784080236140523
Pb 18.146790025296603 13.431180692765889 14.840165588887453
Pb 11.795946573259961 12.614266945685467 11.649676987673539
