13
Energy = -41.37601327 eV
Pb 9.961366316625508 12.133385293397115 7.460306349715476
Pb 7.65032265401069 10.316066382295867 12.505248486007817
Pb 12.454199363801903 10.168820520197682 8.38891383337096
Pb 9.448296372621632 7.551220647280569 12.131829408729619
Pb 8.22067836151401 7.108157644243898 7.061994457054436
Pb 7.360350067712956 8.583946795867705 9.756279035220267
Pb 10.45691544686747 9.229273574292744 6.133486643635937
Pb 12.48284744442078 8.723479003768839 11.474617233374355
Pb 10.69049212053622 7.487392176798436 9.045579948390587
Pb 7.451276905863278 10.219598380574217 6.7740597894583
Pb 10.618271066982754 10.140995217354947 13.617305584779839
Pb 7.3548783234973465 11.847432899140538 9.475974302459427
Pb 10.175573055545458 10.815699269403385 10.499871818571059
