18
Energy = -58.66760309 eV
Pb 9.152908227180411 9.812987481171534 6.432910379867212
Pb 9.17758583296666 12.990524422846516 6.764487080813428
Pb 11.76252491295149 11.442690364693302 7.804253755853129
Pb 6.585071675879907 11.250617038558234 7.692673409568438
Pb 11.029783130023715 8.085684756182749 8.408142589010131
Pb 7.148106644654132 14.115407085757424 8.91892313028112
Pb 13.700156860127569 9.496176319980092 9.757094044929751
Pb 10.101662317997357 13.416720376408177 9.900363476957416
Pb 7.719323623345825 8.723283266126408 9.274049311367577
Pb 10.374939058657036 10.322409941776508 10.703801954256004
Pb 12.951772767579701 12.18864262159003 11.451035997875616
Pb 12.963707763120619 6.784161854706317 11.355845401627162
Pb 9.736389669384932 6.82437592040082 11.182823463795826
Pb 7.453737514388314 11.624714392717367 10.859555235804933
Pb 13.777766766816637 9.409181865960049 13.005709357286714
Pb 11.014911157093808 10.96366248568819 13.809878443454506
Pb 8.392588456053982 9.13243602209577 13.05674859495605
Pb 11.244670380297089 7.703930541859986 13.909311130813881
