18
Energy = -56.7623171 eV
Pb 15.278333210506572 14.976362707296422 9.593803821270688
Pb 10.48888906189849 11.404058249371982 16.30456106199626
Pb 15.527592714439105 11.324235293029014 14.603462586882733
Pb 13.430450428544498 12.77198390377082 16.482423984083855
Pb 15.752395122516857 14.9142503688683 14.907442939300008
Pb 17.15584002486026 15.78112875848892 12.116942597334356
Pb 12.422232897807932 10.731034613539263 13.90417775804468
Pb 9.29322794926327 10.539182371611767 13.261387402834043
Pb 14.255181185495534 15.582100868492041 17.48774039886681
Pb 17.45301170567479 12.973984988851203 10.574514136433324
Pb 14.594875257366175 13.037906247874067 12.10398576839619
Pb 12.387067055864716 15.776869167912263 15.095293044662677
Pb 12.108836440472325 14.26223603470249 10.52429286266104
Pb 8.100133217238067 12.881190826582237 14.875835312946657
Pb 18.066364377098854 13.073093959563119 13.661738326911674
Pb 13.903968521199053 16.363435497405458 12.301115538492544
Pb 11.564678059368433 11.226133104875037 10.959349545462373
Pb 10.612866662272605 13.63900884056933 13.316765585262944
