11
Energy = -34.81352223 eV
Pb 13.707821336817302 10.630864552729635 11.293231949583793
Pb 11.643850667755245 11.911728072412172 8.76291055264959
Pb 13.133440083275792 13.645926317609923 10.90278454294013
Pb 12.074910951632473 8.538164425689436 9.617218161632836
Pb 11.674723321663514 8.640921694016987 12.821956962489777
Pb 11.969161457492115 11.843691579011043 13.684786676989049
Pb 9.146216943279025 10.590278223306353 12.847050516193624
Pb 9.937829456521147 9.54901384625821 7.620471926963388
Pb 9.110044250154177 8.17303729945413 10.75039253657407
Pb 8.438458808404903 11.25360735926544 9.744510859384313
Pb 10.082583723842617 13.36499333843526 11.433096179923691
