18
Energy = -57.82709731 eV
Pb 17.55091474542801 16.238016306360226 14.249145634979335
Pb 14.847849202362164 16.09903959868621 12.825744789104947
Pb 17.36973448144929 10.954066353664688 15.256075194438221
Pb 11.58615820542264 13.769683273002128 8.853572708378453
Pb 12.436363667642617 16.39304622589766 10.885537609887184
Pb 15.053561328332236 15.408219950307675 16.02747235117059
Pb 10.8863475468221 12.347235456722819 13.832404597547711
Pb 12.71542581639283 10.041609192583422 12.248256185575357
Pb 9.950940709496443 14.567937007303911 11.541086591603394
Pb 11.768521156286083 15.616286564352114 14.135067989431462
Pb 16.829282090070148 13.333749158059872 13.024672740656449
Pb 18.15135087694641 13.792368497191138 16.086632126151876
Pb 15.437289478773753 12.383581717600748 17.43637856417943
Pb 14.351924846880678 11.679620909296355 14.528406769623848
Pb 10.126667603864695 11.486442267744495 10.68455907810896
Pb 13.303651053020438 13.24014436134563 11.656924530289674
Pb 13.044145996319822 11.03397005306311 9.265641127379565
Pb 12.576262560546823 13.46543230302706 16.512888993045614
