17
Energy = -54.1707439 eV
Pb 16.137336056647026 13.042050495585935 12.070186307478515
Pb 14.97799184791872 13.082233695170315 9.0974850853782
Pb 14.891693305552327 10.25233654230949 10.751470677777734
Pb 13.653198074307847 11.593772061940504 13.477657160922051
Pb 12.8866854299154 10.880845923976608 8.271672157288185
Pb 13.936867548423274 15.325232999634832 11.384663703531213
Pb 11.987031490534388 9.488208377766163 15.246818520296632
Pb 14.765030933101295 14.425254385957375 14.607120331068577
Pb 11.709916610843608 10.854299574253192 11.097613866977253
Pb 11.852378576969356 13.473056763092684 15.58069642851682
Pb 10.059165747022048 8.93056037076003 12.924769849202244
Pb 10.831004722431437 11.308088077506982 17.493114099604636
Pb 12.013436671494752 16.097272494185173 13.964497044830281
Pb 11.742973738029816 13.670187151608246 9.153691974051084
Pb 10.433978803646005 13.3590553964565 12.65662197025659
Pb 9.222464518291398 11.204518598469678 14.85644546833068
Pb 10.761227929831461 16.02240606850482 11.124991364918914
