19
Energy = -61.14027738 eV
Pb 13.61383282145192 8.481167097708365 11.105732069135033
Pb 10.341359910808764 8.587713062892313 11.51196634137455
Pb 11.942389143156827 9.99914597400032 8.694629917436307
Pb 15.079611842616938 10.666613191579009 9.237539391514233
Pb 9.480222441935013 10.855636577918313 14.196405688912535
Pb 12.381673884690372 9.272193326431266 13.984907928700828
Pb 7.549470413683754 10.685375439942796 11.561025979289195
Pb 8.841200972910594 9.856792378377886 8.938439929615706
Pb 15.518208760681958 10.857393505170908 12.564692673926855
Pb 14.388425005803407 13.975187555821021 13.612207945308553
Pb 11.016477130009973 14.489608878679176 13.051567478891059
Pb 13.152043115213676 15.491284749915929 10.98276904735263
Pb 15.5711491659995 13.499000479172 10.640980796832121
Pb 9.45964252978068 13.769816532724798 15.597411043253919
Pb 12.254889846714416 12.229666128657177 15.371094891345656
Pb 7.897241904437493 13.502596267609595 12.77789633902693
Pb 9.875564315894758 12.788796921346151 10.091865101762133
Pb 12.599589539078721 11.80418683342043 11.633472026537424
Pb 13.099198501595579 13.250016345096974 8.507586656248945
