17
Energy = -54.02597996 eV
Pb 13.832085830678192 15.99163771774508 14.74132546786733
Pb 14.961218965460485 15.279861952070524 11.808755871989222
Pb 11.907861642917306 14.126555457472339 12.901553469441486
Pb 15.517842725378028 13.279032295148046 14.426024161117663
Pb 11.04204954692601 11.45066268765918 17.31802919907581
Pb 12.097740646275492 15.790678120032794 10.252595250097075
Pb 12.782365925989543 13.566335780909325 16.15624448107547
Pb 14.432558755064882 13.84708042305327 8.966223420468637
Pb 14.857835612978926 10.107795656985695 14.022414868800263
Pb 11.395028387600124 13.332247866724598 8.241364899905006
Pb 13.189525405576351 10.823545744963882 8.893658104597709
Pb 9.796936525612683 12.378726165054992 14.629930430440407
Pb 11.819772212193152 9.682819678875186 14.883463488337455
Pb 10.916071275762077 11.808196863155295 10.956946879074039
Pb 14.16474045229607 11.951692800384354 11.687473943217833
Pb 9.46326906556169 9.78023397766848 12.814427457911734
Pb 12.479086115674523 9.010187749494918 11.859696540581806
