14
Energy = -44.64836794 eV
Pb 6.941204109306109 8.741148910020238 6.160408849193012
Pb 7.313795346890598 11.865905752781533 5.463175143416085
Pb 7.11904466421958 7.731868098924372 9.279248151760713
Pb 7.015779507826674 11.11161472418788 8.420794503308974
Pb 8.523806263891204 7.572407901887644 12.74183930724857
Pb 7.5251127051692315 10.300425160030986 11.342653937260739
Pb 9.529011794570275 7.14248477650489 7.1331153157447105
Pb 9.735529023016312 10.447836470019777 6.378758168807551
Pb 10.283548268784578 7.921865601456306 10.11172991817913
Pb 10.292412437082378 11.518247843349105 9.633735270847403
Pb 11.697536347149041 7.413016678317641 12.832823282731837
Pb 10.3219674331715 10.379986457784412 12.880359223462237
Pb 12.817109667636114 9.84450191945828 11.004989912796145
Pb 12.083014733064244 9.207561705276673 7.815241015242609
