13
Energy = -41.48607168 eV
Pb 10.120546411566012 12.765187266415277 13.147904318202261
Pb 13.574611380773385 12.8533621138816 13.878253792750622
Pb 9.613236793296037 14.307572121317287 10.31476188056029
Pb 11.779433240994008 10.42946377264053 14.657572596455726
Pb 12.305967360817505 14.931619851372929 11.45327699712429
Pb 15.09957086868558 15.115113252703003 12.46738288381518
Pb 14.73730144484607 12.751162071184359 10.524295450812119
Pb 11.694769578884628 12.1092165358539 9.201244504698943
Pb 8.628065644464629 11.32625054536086 10.410462119877055
Pb 13.15382001899621 10.381601107646222 11.711239007803584
Pb 9.326444167749775 9.431776822582277 12.780625980952633
Pb 11.940207197719777 7.733218496037906 12.61865092471451
Pb 10.766172828038039 8.978966208121744 9.88254890614685
