18
Energy = -58.59475515 eV
Pb 11.1959632049607 9.889169843104622 6.681730787925548
Pb 11.37170792242036 12.940172831673872 7.739229661989904
Pb 8.724015457095435 8.375873277890305 7.999585908286545
Pb 8.492253565798961 11.515778464232179 7.146392725099576
Pb 13.707586272419901 10.521494952457543 8.603617773628843
Pb 11.857045544011779 7.6446621779890505 9.04152296594358
Pb 8.783877263587469 13.330115195101365 10.066332138070607
Pb 11.921768114942347 12.724279032416998 10.860832353023264
Pb 6.692748053796657 10.510328345975294 9.539235303903848
Pb 10.10777476706591 10.160614213286523 10.396670786758055
Pb 13.840777422611998 8.676297062964666 11.350003278601399
Pb 7.761932610241986 8.380684309132858 11.86855724770356
Pb 14.689930848437116 11.673689281678058 11.52854259861635
Pb 7.142638664526073 11.523188373534442 12.496480308993785
Pb 9.944669188010574 12.962792961146548 13.339809061724102
Pb 11.004150047427075 7.662157337537825 12.448245594179522
Pb 12.42930626919056 10.568995187536315 13.671349519466748
Pb 9.306499935218385 9.91435230410483 14.196507137847602
