17
Energy = -55.5154825 eV
Pb 17.016240851688647 10.558745471656025 10.601753772170698
Pb 14.313354044535778 9.700856259394097 9.481179219779829
Pb 14.814240175834557 12.902214985451169 9.353712561947177
Pb 14.734929635481464 9.042839272209829 12.612320147358801
Pb 13.859186155659367 10.96064113823754 15.129819268895305
Pb 14.358660006664033 14.258898288028405 14.829078285181861
Pb 11.415931922927845 12.959750804018766 15.601139978509227
Pb 12.536185157908257 12.119050073956512 12.20649398080359
Pb 15.798849636359451 12.387959110046559 12.704019376232255
Pb 14.237851872712014 15.15436208358886 11.625156986809351
Pb 11.76305488114208 8.830531040550689 11.130671804763189
Pb 10.495525016208475 10.268601570673951 14.034512481819572
Pb 11.620151335181607 15.491423397717961 13.39775105761245
Pb 11.829077247681134 11.466517686522199 8.747730012731083
Pb 9.228566984581814 13.297512568528628 13.225799914648883
Pb 9.470270915311806 11.118857532567318 10.909874404101561
Pb 10.897792455482955 14.30293755528098 10.456650826580066
