11
Energy = -34.00139141 eV
Pb 11.87863227619813 10.611799780246166 9.509922581479842
Pb 7.394092391208266 8.278433294809288 11.72984469537837
Pb 9.202409192249414 10.87850083704427 11.254466867057515
Pb 8.263606811463728 5.459350810772161 10.315808887150373
Pb 11.773489176360076 11.708837287786567 6.58628966017107
Pb 10.205786622959584 7.850574873506317 9.8841525599271
Pb 7.3281769902983065 9.622666207060957 8.617914529031049
Pb 8.361611081326624 6.673130053438729 7.286262811612179
Pb 10.139242671348226 9.212868847960674 6.797156097667465
Pb 5.744386473404068 7.0082758318727025 9.207252276988864
Pb 9.24719812005382 12.234193368631798 8.349559919794535
