18
Energy = -58.83229858 eV
Pb 11.888750558669338 8.106406672815284 11.010835034532574
Pb 14.603774430526983 9.65546311657167 9.974682121868549
Pb 14.34406297813758 9.726484224051692 13.134403505281956
Pb 9.245026778509061 9.539653164837556 9.509373927768358
Pb 12.0171069042985 9.89890440380462 8.055602704627926
Pb 9.116405174691135 9.367023683120475 12.720634853562277
Pb 11.551831121839799 10.076098103734761 14.734278532039966
Pb 15.351309709910414 12.427909217612505 11.445181834437717
Pb 13.541515795340933 12.796146170617915 14.087957620169577
Pb 7.865908636192684 11.946202991669793 11.003990091267966
Pb 11.235643232117159 13.102326840200826 16.139798667310338
Pb 13.76083382164836 12.562004258705628 8.58159614682417
Pb 11.731138521193754 11.370572409523032 11.353842834009912
Pb 9.33227290235412 12.526742228244206 13.796908417595912
Pb 10.316198609749105 12.741007984856886 8.596095552603092
Pb 9.533040765154887 14.663224426782328 11.177632871511266
Pb 12.87734320471152 14.60231687586423 10.974979656315085
Pb 11.29569540973027 15.283932017000359 13.739283664822533
