11
Energy = -34.97091015 eV
Pb 13.58609275959532 13.472290002775878 13.504246667907037
Pb 14.561079600005595 11.571147285488495 10.6972583253564
Pb 12.383163575409602 13.960669399722136 10.672298980598908
Pb 13.171751509814102 10.38851089581215 13.367099525381851
Pb 12.606245975513135 8.963396666560577 10.58188965435117
Pb 12.039125762912166 11.547294675729097 8.631836519740357
Pb 10.298177215669881 9.127085281113356 13.001374655875905
Pb 9.598552951436087 9.913441425846303 9.945534705818897
Pb 10.61102501812306 12.554284934889944 13.156088047545905
Pb 9.410355344117113 13.138237827652897 9.978043653395394
Pb 7.988286428934158 11.349625051782489 12.327980295011088
