12
Energy = -38.1722165 eV
Pb 9.588675389612746 13.034582094204739 6.388691598768932
Pb 9.271651597494618 10.037298183679468 7.111808844572295
Pb 12.088514965159625 12.063358458399751 7.757090377248228
Pb 9.090355413982937 12.342121022214275 9.434575411706696
Pb 8.032702154286685 9.285963098503705 10.087649916697387
Pb 11.29728281529849 9.618663552526346 9.55107060161038
Pb 13.046380748743564 9.506766231762882 12.24036196826116
Pb 10.311930082840725 7.481004377174352 11.620514704765393
Pb 11.967348468436077 12.493759136641659 11.245401417432932
Pb 9.388794817341806 10.645724572731456 12.529491991553725
Pb 11.016002370494775 8.605187008317708 14.520135936512952
Pb 11.689027202771207 11.674238290307208 14.301873257333321
