19
Energy = -59.49970583 eV
Pb 10.306435834224922 14.001347467587797 8.178720855736149
Pb 9.47182101219357 8.848380684176895 11.221334158573466
Pb 12.825797103878559 14.681594191524725 9.821435408118585
Pb 9.823825353818613 11.218978307214217 13.293659288955137
Pb 15.677205020247095 11.700826903928347 12.806961716549601
Pb 12.3847789970334 8.948038697317589 10.122272938602322
Pb 12.494240647964173 13.286848993560348 12.818520387678387
Pb 13.943285652057321 11.653165287841759 10.115403621473702
Pb 14.37884160955417 16.387926709694185 11.870735041729791
Pb 9.354271729311353 15.395156203525923 10.709414616585178
Pb 13.978487101063408 12.751701304380036 15.831557753618581
Pb 11.421371259370458 16.551412763208145 12.813380035800497
Pb 10.522361137854645 11.726201118226975 10.248231586651622
Pb 9.158414918930953 14.239649753328989 13.668786841634562
Pb 15.837145777152223 14.708583003756756 14.105670600566222
Pb 15.01814888231793 9.877832134530408 15.36487446296997
Pb 11.637237995540891 14.951676574120775 15.551758695408651
Pb 17.145400545516722 12.331859623405435 15.560832952436806
Pb 12.713616490845455 9.840219346157816 13.101942571115943
