17
Energy = -54.19616995 eV
Pb 13.474904824052578 13.9069126703901 10.537592038304357
Pb 10.048408541232122 13.674242887238613 11.030397929729213
Pb 11.711515556905875 16.203327603763878 12.038872548830618
Pb 10.386560929689603 8.464247980428171 11.952288021090533
Pb 13.399769348848473 8.33463856636826 11.506913530043153
Pb 15.20067995528272 11.648811454839267 15.048288966512896
Pb 14.292888049403189 16.528715204679422 17.34205512452658
Pb 13.279099046821583 13.51753352126435 16.80702978992784
Pb 11.482887822472904 10.92464473347871 10.176895824516528
Pb 16.310475928146083 13.709280486151426 12.484235125852267
Pb 14.486879613979578 11.17146324752484 11.879617708108961
Pb 12.38904176442398 16.23099171638973 15.072404547660163
Pb 14.772192517190197 16.53730814294017 12.706248341784104
Pb 15.89826324934434 14.804720397638167 15.39575327683463
Pb 12.2241372911095 13.147036789124165 13.59359364834928
Pb 12.401222783542273 9.891252415945239 14.205236938869989
Pb 9.580786238681096 11.245217456198644 13.031559199807981
