15
Energy = -48.05952697 eV
Pb 12.748362948396899 13.77863734968506 13.66254745905073
Pb 14.59804833861663 11.19479543245406 13.171981089800624
Pb 11.738946921831326 11.071997199110504 14.980593149342818
Pb 11.390279303094562 14.997527658834239 11.061740663159041
Pb 9.521152943252295 12.541366607993867 13.038215589612294
Pb 14.192533121249761 13.134297290174539 10.641677793123083
Pb 13.21174899371993 8.465921669776247 14.035615499124733
Pb 13.393702640023617 8.924286750035092 10.949812640818513
Pb 10.304085409845074 8.890688130894032 12.728256764591325
Pb 11.799749596125094 13.410415513578394 8.266272513439963
Pb 8.788738282168653 13.419104845963512 9.900711419868848
Pb 11.453934528938463 11.43238679830767 10.763925900836188
Pb 8.10050883595946 10.368190886850256 10.762304094614572
Pb 10.551294504098099 8.410183773696742 9.499711049676069
Pb 9.659663230150853 11.006372835545923 7.924267174380258
