18
Energy = -57.92251861 eV
Pb 9.576322354462402 15.308268683355832 11.440195075121277
Pb 16.2965235415454 13.270005682651977 10.894925989917818
Pb 9.708992658363549 11.016123702467187 14.378944478327682
Pb 8.477881100663486 12.205013946256363 11.659007544472638
Pb 15.911967288843076 14.811151153708677 15.93763683684362
Pb 13.57379469203561 15.207069333983181 10.837652819633766
Pb 12.68527596478548 10.051373922113585 14.754310780244836
Pb 15.11214136284094 11.627577159092622 15.741133248700708
Pb 10.834029917352582 12.99041843755313 9.567204733066095
Pb 13.47094989814484 15.505600773213207 14.072855033582305
Pb 13.81460237073336 11.940638047953026 9.74172057500795
Pb 15.144545496717328 10.602556358912906 12.536125892722541
Pb 16.4315506176276 15.81451254314458 12.92297510592465
Pb 17.372791705304387 12.870597504301099 13.861274835298705
Pb 11.701120541681819 13.224834089911944 12.734329907111272
Pb 11.41926506537662 10.26779392966548 11.555338638103658
Pb 12.176645390438937 13.21090955410569 15.965068814709246
Pb 9.019754041636531 14.198016228309154 14.258562629417979
