15
Energy = -49.34061374 eV
Pb 10.077922221976571 14.908124814799818 11.544383661976193
Pb 10.646927334072728 12.695593752890215 14.31259059991339
Pb 9.018782787314622 9.892690024922148 9.866334259604558
Pb 9.091525811866845 9.648538680292619 13.16185976424809
Pb 12.492212611020234 14.285664466326939 9.381204802080557
Pb 14.843376062849424 12.523606489742145 10.736859258267936
Pb 13.136208938691428 14.670390067440785 12.591925930175416
Pb 11.525630173989638 11.684750803868125 11.590669044131095
Pb 12.145946291627697 9.417527951597933 14.225938818182753
Pb 8.057853716701212 12.393215055881752 11.801346933671905
Pb 12.385456911974495 10.673585689911457 8.873866684297214
Pb 11.352134955496755 8.152954198341853 11.282907192169267
Pb 14.187989999126694 11.911904166099092 13.914024972596065
Pb 9.582170797936287 12.946760442268618 8.927186640099377
Pb 14.276819100719509 9.473313907162058 11.690555474156525
