10
Energy = -30.25762997 eV
Pb 7.359649183452296 10.34044642040468 8.245338581677643
Pb 9.783460926362412 8.297743050213416 7.644278331367997
Pb 10.229351547620537 11.413610891516326 8.719984009265437
Pb 12.76622686235334 9.649786052461343 8.210105888061818
Pb 7.944440449597713 7.810169359583678 10.274405497161775
Pb 13.666499437910767 9.730793945011118 11.24140247750281
Pb 10.870115750911676 8.735741108462179 10.793077325363448
Pb 11.513304256691523 11.994015347186048 11.534645040770751
Pb 8.117328970431585 10.733066398712989 11.328164762823565
Pb 9.128114387250106 12.673119199030594 13.38708985858725
