11
Energy = -34.55597678 eV
Pb 9.348268245114978 8.213732608442381 6.315552937450837
Pb 7.782877796530134 5.917093486956309 8.044286831957374
Pb 11.364925547148136 10.615646311543868 6.943756433224217
Pb 12.16809941959259 8.195379927143707 8.503623430764177
Pb 8.287097242151761 11.324224883371667 7.447938674220819
Pb 6.457838920279076 8.712227588094738 7.871764156168651
Pb 10.596549204823171 11.016311278784649 10.024811449679873
Pb 7.32406683979181 10.649801968361777 10.442037078925686
Pb 6.65083270493372 7.466341714447325 10.908446929226669
Pb 9.244163724886102 9.18987863088453 12.38187835045782
Pb 9.566280054130429 7.490361601968643 9.906903427305277
