15
Energy = -48.74174174 eV
Pb 13.302406636497505 11.170404521448775 8.299573888384185
Pb 10.489782576499953 10.403275430372835 6.4405533974183395
Pb 13.057745909770551 8.568383981834113 6.631855972908661
Pb 10.211837300358507 11.734742239053372 9.335716608936208
Pb 10.37261662047636 7.361657223172195 7.791482814822906
Pb 13.184634163907946 8.042109601094866 9.684132544071666
Pb 7.990358838034901 9.609145144350395 8.513192855132196
Pb 7.205561060316557 12.273525941245238 10.577007846680269
Pb 7.1162823103237285 9.286825300169092 11.866299032347909
Pb 10.107473807238778 8.71196920927479 10.669048479856036
Pb 12.367376139364978 10.720628206218407 11.368996458855285
Pb 9.842007509982103 13.71860340679564 11.72758924408656
Pb 9.714173902039654 9.009193765692107 13.754227025532936
Pb 8.066032960710574 11.775605759365801 13.588813929786422
Pb 11.228298913982636 11.870518919417256 14.00809855068545
