17
Energy = -54.2890702 eV
Pb 14.151227360251633 7.943262866025075 13.510580482571207
Pb 11.770584906148594 13.3587697644179 13.573692389721687
Pb 12.61997333328681 15.791052488264505 15.503807915701346
Pb 8.48964323656778 14.094890985251755 12.781841869905797
Pb 15.751904587144432 10.412589776468709 14.350865160996955
Pb 15.650268596694636 15.501958125668553 14.706192677950035
Pb 15.799308010349343 13.18268481172363 12.67008390241878
Pb 10.64822482721914 14.123627341824337 10.459588765434807
Pb 13.784744669970511 13.236511671874535 10.13811824555305
Pb 14.287312621777136 12.815659498779796 15.803035778486416
Pb 14.346315313607972 10.131405051619543 11.241876159240888
Pb 11.60852390988345 10.983351120852333 9.642435834814517
Pb 12.355672531487748 10.2621769718709 14.712544094033145
Pb 10.497698011511664 16.35758481552171 13.263731075425904
Pb 11.438437315776868 8.671362570327936 11.886346973149008
Pb 9.705503210069311 11.261690296661554 12.339165007630406
Pb 13.5416421368724 15.792220225529014 12.136072491789067
