11
Energy = -34.83220136 eV
Pb 9.99558326017407 10.217715178980978 6.501644869057013
Pb 7.194658540258681 11.083088404620815 7.356663448675377
Pb 9.563033286059488 12.409883458897658 9.094104379976194
Pb 11.460265743223614 9.622047412941305 9.084256983158765
Pb 8.290596809271456 8.476286655084655 8.901891112138758
Pb 13.568178734546347 8.860509225928343 11.22257350601652
Pb 10.739364743357859 7.299723743920175 11.278902405936316
Pb 6.6737968947841075 11.099710975980612 10.367350868928051
Pb 12.160688626641422 11.767893820840785 11.44956589621381
Pb 9.277499924382393 10.207428845946282 11.626215498532483
Pb 11.54666146114399 9.426040300702393 13.587159055210574
