19
Energy = -62.03461773 eV
Pb 11.094322177634826 12.20429443398161 6.494246350501005
Pb 9.51961411250742 9.399820573144536 7.479852479644793
Pb 8.309804004277353 12.602306004200639 8.034574091833159
Pb 12.857224481233132 9.687821565185757 7.435941319827877
Pb 10.940840204961289 14.497902889252915 8.747450804759012
Pb 13.643478345374946 12.75454853065136 8.351677236896641
Pb 8.60146966713271 7.440849667506323 9.953564737021688
Pb 7.546397113688427 10.530272794711307 10.377978438233527
Pb 11.9155299755861 7.640576126064157 9.933177966103006
Pb 10.904837933253832 10.941663130384423 9.972496185861102
Pb 12.558984864292244 13.377610332374857 11.355390248518288
Pb 14.047027519696274 10.322796343735826 10.562630746862633
Pb 10.173513781110744 6.534906130640495 12.546130020957262
Pb 12.575691680348234 8.769089921158143 12.935373394880436
Pb 9.170117009625843 13.411847464193823 11.376778140909439
Pb 8.030216135389454 11.305845520290399 13.51254712088852
Pb 7.303977222621795 8.213751466939014 12.784995213386301
Pb 11.282002971761068 11.73378625794964 13.886102226219757
Pb 9.846592470228394 8.951952518358851 14.58073494741933
