11
Energy = -34.58832574 eV
Pb 8.951922746793676 8.95287016656207 6.3182737667141735
Pb 8.94769149589703 10.574541167087668 11.552250641884092
Pb 8.94656436156236 7.317989199368523 11.548201092403284
Pb 8.953010139075918 11.916815073220748 6.356292612061809
Pb 8.950961715210111 5.988586232485243 6.348935063249395
Pb 10.63525095792382 10.828747300152136 8.677200267391257
Pb 10.633973633148516 7.069836670150439 8.672521500576847
Pb 7.265526304410122 10.82990186958083 8.674033500598448
Pb 7.264207244526211 7.0710547949853195 8.669337481767258
Pb 11.668207330914921 8.946254628112088 10.816344482231374
Pb 6.227420268759705 8.9481387947396 10.811345789344587
