15
Energy = -48.10881849 eV
Pb 14.785349526351073 10.719532742182265 11.087201668563601
Pb 13.411502451444147 10.796384821377378 8.26735314588077
Pb 13.333468491319712 13.60042811359072 9.555770126997444
Pb 13.534177565418155 13.180520227387824 13.397229600074981
Pb 13.145843945223344 9.739885326174658 13.590083527779667
Pb 11.700330362511737 8.222900140377444 11.105510805669033
Pb 11.698107289056491 11.467277091242277 15.641244569448752
Pb 11.518063545114785 11.557134595711075 11.37144695424868
Pb 11.236895401397561 14.869152268439247 11.562790975501366
Pb 10.052222679478138 13.623148072838648 14.136404061819535
Pb 10.7814699939542 9.118084743988131 8.199697025183125
Pb 9.628636796417577 9.963819890099854 13.622003248478219
Pb 10.302976150540914 12.45527001116076 8.54025889139779
Pb 8.354896664353804 12.787350382290194 11.678431709316044
Pb 8.762371813160566 9.966537305117393 10.34515118315473
