12
Energy = -38.47029574 eV
Pb 10.079370260786945 8.549415271790005 8.1086594929436
Pb 7.047269254765073 8.518702476066759 8.56441901967577
Pb 11.222063370791792 11.402059431952418 9.126702844972833
Pb 13.187865300592316 8.958272371333521 7.962944292705748
Pb 8.16665794785193 11.515996609812943 8.291890137077386
Pb 14.137817655457363 10.974061226177959 10.09156707674198
Pb 8.81006596395177 7.672119801046971 11.104180830802814
Pb 6.851234739910438 10.412900608083918 11.08750418500321
Pb 11.903249774776155 8.716169446074163 11.089290788920346
Pb 8.906884416388488 12.824721357407988 11.160918469299208
Pb 11.948557655078675 11.994371332368532 12.186268865168097
Pb 9.458461152931068 10.18070756116727 12.945151489971314
