15
Energy = -47.83033896 eV
Pb 8.40262927178459 12.573168166757743 10.50772664232093
Pb 8.584386824847652 5.92907548026475 10.4780635901141
Pb 8.098204418104542 9.221560322287022 10.77083603576792
Pb 11.338848385914442 7.398679697481817 9.452363026094233
Pb 11.468307539075187 10.775631628922843 9.067321283845505
Pb 6.643466963146707 7.642784793714998 8.210328124720231
Pb 6.6444609762969815 10.797071503158685 8.205151809091772
Pb 10.360666844824456 7.511986186003747 12.545085593595115
Pb 10.292011014108235 10.912164523596712 12.704533273858411
Pb 9.235286427781565 9.258760571847937 6.997422494089079
Pb 9.109686697130583 12.683468881795113 7.408643631194049
Pb 9.252696279758037 6.065375145331218 7.395778856553753
Pb 12.910509597487142 9.3214155955345 11.85379175277838
Pb 12.92186950532488 12.349723833262436 11.43655408889942
Pb 11.116112355651202 13.938275869422396 9.345542297077118
