19
Energy = -60.25148328 eV
Pb 12.499159628138909 11.39970072352639 17.06123271718999
Pb 11.656096024796078 9.93847132911846 14.294060181571625
Pb 9.617544516020462 12.676461760821567 8.797156003924966
Pb 16.751834305116795 11.515217907107704 13.469590027142168
Pb 8.03442856005159 13.360929479454658 11.357160606950632
Pb 14.894875150143 16.2623290991861 16.3668019488058
Pb 12.609561631649756 12.872118751836691 9.65238431454749
Pb 15.530986998523804 12.068682470826602 10.423810311560356
Pb 14.077303714240335 10.087025822875882 12.289304810843126
Pb 10.817876883209177 14.728312656949294 11.412674047747009
Pb 11.633320187337596 13.199618898325525 14.251365469388647
Pb 14.805285821444276 13.048364764589532 15.724634620765823
Pb 17.068005005804075 14.764900722563144 14.40561945433484
Pb 10.52363961639028 11.334713948019308 11.59226144223259
Pb 12.250273197379496 16.551940165115884 14.415046597341087
Pb 14.85839576457178 9.80819668039098 15.425124032611201
Pb 14.250576730646214 14.006095590282072 12.602423737633417
Pb 12.119961565483775 14.71353861134589 17.031286656047737
Pb 15.148483527427619 16.995203387228973 13.25784000035407
