17
Energy = -54.17181259 eV
Pb 10.487450259432723 14.615003109285349 14.171501163872538
Pb 8.2280072320343 11.874336196943895 14.797865683629501
Pb 11.436635270398218 11.723363488985788 15.282291464985747
Pb 13.365385883713197 13.39217333541577 12.895387591682905
Pb 11.294617152026058 15.139308504595109 11.147311570134102
Pb 7.59863818110193 9.633671806063601 12.004136955208974
Pb 9.954435642230264 9.187125645260902 14.185323087252229
Pb 9.989948390869275 11.962871959495176 12.199784237232768
Pb 14.053537011812237 14.426207910110469 9.762080211635686
Pb 13.001020275411681 9.969020837473487 12.74625804816363
Pb 11.93009421505068 11.84354480306657 9.800099769010583
Pb 8.64838266582838 10.544751140445388 9.157767826391133
Pb 15.232991734605363 11.525859498065566 10.605550412978092
Pb 10.54578827538377 8.523364747928591 10.805680920029905
Pb 14.107720840695652 11.5372552467914 7.551616896642803
Pb 13.762340865098405 8.97309570567659 9.523729179042716
Pb 11.185048343473348 9.427618397870567 7.612841700345434
