19
Energy = -61.3100525 eV
Pb 8.99516447808311 8.299133165577476 10.205041070808472
Pb 12.114786399558874 8.607493798952373 10.312043039414394
Pb 10.149729790763628 8.785954522204232 13.112914955001072
Pb 10.106577809718575 11.179232834386726 9.036477127806664
Pb 7.82099685246487 10.974456894802648 11.347573094216884
Pb 13.659375202705414 9.278670557672275 13.125211736115427
Pb 13.296971001080058 10.931006190241717 8.6117772415033
Pb 11.645618345118635 10.365258975527869 15.459691713516632
Pb 11.855053903634468 11.690121328261649 12.200013755505363
Pb 9.071430036196848 11.816404929559956 14.215088379435752
Pb 14.882830705296579 12.172749584441142 11.038475555016365
Pb 14.20724713512574 12.205805419852844 14.774089940552352
Pb 9.581443958092297 13.754797436970378 11.46334681531394
Pb 16.63876169097947 13.686224990072185 12.995531490844924
Pb 12.440115955620533 13.941859379417092 9.51315031068671
Pb 11.39506983572256 14.032758699738128 14.714542481771774
Pb 14.946903531504564 15.52070976280277 10.849632224300677
Pb 14.1996913195187 15.37088398700213 13.92918085764973
Pb 11.945353271229482 16.15352200398283 11.915486812346016
