17
Energy = -55.36790015 eV
Pb 10.924372952387804 10.458914272296987 6.4777915745738275
Pb 8.167187208297046 8.875323739382539 6.808855881472179
Pb 13.206270622859691 9.599306777433359 8.950229306570453
Pb 8.283749158697725 12.137928328988693 7.968517430959062
Pb 11.035150950225267 7.397294825741485 7.36979315912646
Pb 11.765408070266849 12.752949959279226 8.347000193905702
Pb 7.205131858268653 11.985102555849346 11.258978173925332
Pb 10.151599735313082 10.32138348211474 10.006656258908887
Pb 8.751740000381188 7.537202446812139 9.7950424282926
Pb 6.239008439785527 9.678300007122862 9.27879450385515
Pb 11.941778791094196 6.730134056272296 10.391584617638667
Pb 9.80229754241179 13.574853014152252 10.814987136221907
Pb 7.149888145789862 8.98245040102556 12.342946202168005
Pb 12.653799070779868 9.155832285820646 12.346727506417828
Pb 12.634046171022975 12.08879420551151 11.423481903182761
Pb 9.970591850984253 7.5000632144551505 12.891450954276728
Pb 9.839707987563584 10.945894983870998 13.248891324633814
