14
Energy = -44.79879389 eV
Pb 7.788527332008231 14.254776867166795 12.244474004754323
Pb 10.870030798824478 11.16579332202673 8.847642252549
Pb 8.925873759486265 11.761057025179008 13.74258565995482
Pb 12.997245081233435 8.929672636882918 9.598545500731062
Pb 10.485154755285166 13.809191029721049 10.791180058984976
Pb 8.2070321823999 11.472540665555586 10.566055130645937
Pb 13.807262750467425 12.045407868066908 10.13963238607072
Pb 13.803438066271422 9.12690736600219 12.763086805810573
Pb 15.33550627793217 12.001763318994609 13.033849536504796
Pb 15.957175693356447 9.869848457161748 10.624280759965123
Pb 10.632122205506153 9.612137253309115 11.82552409304401
Pb 13.32805728444886 14.394471547001393 12.413680390890798
Pb 10.557782079038022 14.586759279808023 13.959943500306856
Pb 12.241571040070813 11.733718492494138 14.167851464737723
