11
Energy = -35.28884658 eV
Pb 11.896683862469677 10.04579655106164 7.804377641736727
Pb 9.12143691827064 10.721683796681972 6.436108319355982
Pb 9.166438739386457 8.1255719997848 8.211874762130305
Pb 10.167816990376208 12.651843938889993 8.67698017438511
Pb 7.431430181654967 10.706713841652473 9.114149216798353
Pb 11.368910465306515 8.546558691515676 10.788524125574524
Pb 12.617746281096153 11.681298133862759 10.42382456746715
Pb 9.494704639562439 11.291959388815199 11.697466543840951
Pb 7.987075417727752 8.304450885604961 11.133209266890658
Pb 12.217221501721125 10.52823587025211 13.315767033124684
Pb 9.799678299902228 8.665030199352861 13.666861646169567
