12
Energy = -38.47322637 eV
Pb 7.590008695010664 8.443492189942809 6.643842834456012
Pb 7.811220401314761 7.846080461301845 9.742639923568175
Pb 8.221034190564719 7.551389028241073 12.7834511514446
Pb 10.136642714723923 6.647178641307298 7.528104447392199
Pb 11.99299542140771 8.865791339712795 8.960959872333579
Pb 10.592722862348435 6.693902674372715 10.808299137527078
Pb 8.347112261688354 11.548468336944449 6.259577571005843
Pb 7.329225554678338 10.970247209054168 9.098580346295389
Pb 6.612740689854733 10.062704061843862 12.00636547520141
Pb 10.670884339027907 9.409420573839231 6.079385318563975
Pb 10.581803222052391 11.688685435294817 8.559543864164747
Pb 9.883015647327907 10.042045836287823 11.298656269903997
