15
Energy = -48.86015109 eV
Pb 8.358971777347193 9.036612463121777 6.290841674669281
Pb 11.113351708778973 10.535041508888378 7.4349504795488
Pb 8.470297145831475 12.16523030653003 7.10057215770133
Pb 6.704817930937316 10.123809214392418 8.853765731224966
Pb 10.979202759602197 7.418289928248281 7.287777800729194
Pb 8.241239539408893 7.222733685906203 8.97028524539577
Pb 10.977193028154359 8.556822759307417 10.203483655615615
Pb 12.692023337249378 11.516016218170947 10.241012277555745
Pb 9.309471452296377 11.691165566260166 10.071627938381733
Pb 13.578508430559207 9.005482813536215 11.87269593839705
Pb 8.084049750793731 9.098447606800814 11.654618586152186
Pb 11.032988684915138 13.741635098161174 11.685889363479474
Pb 10.799763462577026 8.762833294026168 13.473394548384748
Pb 12.472229813819299 11.53157157124909 13.565310616592683
Pb 9.24440824215546 11.652825029826225 13.352291050597588
