13
Energy = -41.73893475 eV
Pb 12.313842811960512 10.867961656813158 8.177497084751865
Pb 12.780735105202272 8.420526955100385 10.267727009312342
Pb 10.095530927839741 10.267448422261694 10.507702391196192
Pb 9.892626863481757 12.977867982392478 8.693886046207952
Pb 14.577086893320246 11.094233508134606 10.499330272401554
Pb 12.901582251704946 13.737487031221097 9.586754858783099
Pb 7.821965501792535 9.5823245016358 12.698011007025267
Pb 7.838653845454359 12.37655579136149 11.31086735196326
Pb 10.560379787461004 8.0923463451209 12.799372623115342
Pb 13.057025060114626 12.937616155602363 12.811151530383922
Pb 10.411379874404393 14.28273427239444 11.596879363946963
Pb 13.285092073666421 9.755182720833638 13.160418600545555
Pb 10.28967579960449 11.502222584524247 13.739618208802778
