13
Energy = -40.87864303 eV
Pb 15.583144762529402 8.837999413438615 12.450957919782287
Pb 14.479831241702671 10.70069616975885 10.311769010319185
Pb 13.96129734133261 11.098755562126957 13.756623574296384
Pb 12.770074342597603 12.808668987584948 8.734227661495343
Pb 12.623114213004724 8.382511605355841 11.968344605751213
Pb 12.689158056042315 13.276374604342898 11.834522645160813
Pb 9.911507289490237 13.934834474546252 13.228838380513432
Pb 10.797153290507604 10.903001142283813 13.534512788782536
Pb 9.989563628809574 13.854200900897478 9.707205312029053
Pb 11.002067628421408 10.44562081209473 9.559647103177035
Pb 9.531009704856155 8.748502212279018 11.645369634399811
Pb 7.539435135647786 14.527521565771956 11.362607476520111
Pb 8.133486477015463 11.540611352828124 11.377191286782958
