10
Energy = -32.31082878 eV
Pb 10.131375186732996 12.648545515672842 7.497906532284525
Pb 10.596247357558093 9.694483270364389 7.849388110098213
Pb 8.814916162398976 7.717275260616761 9.638804548925144
Pb 12.640072338816196 11.445324943101115 9.645899622018126
Pb 7.582869982351718 10.54685374183555 8.673489926036117
Pb 7.979435426581972 9.97438667321064 11.839545838695726
Pb 12.156488564222032 8.305971042082021 10.282758092528573
Pb 9.628331410177125 12.332122987981183 10.43788472696795
Pb 11.34045584868936 10.56668748432023 12.481702827035448
Pb 10.03980553254876 7.678346890892479 12.562617585487375
