12
Energy = -38.96388049 eV
Pb 11.47654746697397 11.336459948053955 8.192822193745725
Pb 5.955763362095611 10.122025798160392 9.089938390970003
Pb 6.966304600892783 7.20948454202862 10.06118668458678
Pb 10.474605883098153 8.835456028435607 6.411111283232551
Pb 12.095962661960343 8.337873630859566 9.226202951830995
Pb 9.641676781300115 6.326800629657411 8.367399540807094
Pb 7.305227780941767 8.138575653472364 6.9257102222026
Pb 9.927530486415838 7.331500000418624 11.483539297005366
Pb 8.824326533837361 11.006498997803401 9.664364521733969
Pb 7.701981513115905 9.586250857491981 12.121193325609052
Pb 8.29066000581184 11.205914316500264 6.662181964215536
Pb 11.111392923556705 10.33514020634953 11.566330537908083
