18
Energy = -58.23599569 eV
Pb 9.674401129151388 11.593888481842795 7.627012847299227
Pb 8.973476367575547 8.394405449623077 7.835731368879966
Pb 12.136308588183617 9.379630978439659 8.238831286938453
Pb 12.804513236512138 12.705260122550206 7.584270112060292
Pb 6.863699206353245 10.60951470475532 8.838594348060372
Pb 13.796306855642412 13.907027190209064 10.291504183817326
Pb 8.116112565180302 13.333008708453582 9.906722020081773
Pb 10.635171449803345 7.002648018653042 10.128469744622656
Pb 14.815515960779402 10.98284932026839 9.37897685622654
Pb 6.570991966997037 11.320952847303662 11.946321038985229
Pb 14.406999316730529 11.71911177714012 12.460904375100796
Pb 7.940392370085967 8.467673168060788 11.185681072411402
Pb 13.15286409955058 8.764744306345428 11.371273603750607
Pb 9.250107191217568 12.888266239431086 12.889019102070021
Pb 11.43977814841063 11.755953616401271 10.515416118307856
Pb 10.517492740349175 7.652685952439725 13.199735083094277
Pb 8.500898352981894 10.042620537474226 14.153606764404534
Pb 11.60568639853481 10.680474524648448 13.648646017927959
