12
Energy = -38.11213219 eV
Pb 7.994060471283658 12.282023808403485 9.443430833137567
Pb 7.923511304566942 5.890187296265856 9.488690480753283
Pb 7.513442332174261 9.134850522841598 9.808268472588352
Pb 10.740944726108985 7.190318140682312 8.52930624929133
Pb 10.589546568305494 10.880044896455699 8.396078380386054
Pb 6.095984796889414 7.537977400269095 7.210192666340288
Pb 6.207391737443621 10.682153192544448 7.324008030282222
Pb 9.723108387441568 7.488011557020385 11.599330608891616
Pb 9.810589899983313 10.84233728297774 11.572902565445917
Pb 8.720913545179334 9.203968689265153 6.19099399635705
Pb 8.774497539851385 6.059010895427403 6.347775271046418
Pb 12.264277123566988 9.167383885051999 10.447290445479647
