16
Energy = -52.26470044 eV
Pb 10.591822011305087 14.445186859398396 11.998192926460645
Pb 8.421925744363028 11.482018129440943 10.242581075595295
Pb 8.667901818186099 9.141183976170057 12.518382094486075
Pb 11.940712405838687 12.809421146823237 14.528912371664632
Pb 13.780299944401147 11.973821234594348 9.098297039660334
Pb 9.948155351835624 8.200469389418885 9.701867632245332
Pb 11.133728264789523 10.460170357003031 7.824264723069478
Pb 13.290711422558918 8.76852885396264 9.678117915281996
Pb 14.002240747215112 10.192244388833611 12.743812625501832
Pb 11.314154336267556 11.100569129849903 11.3895526600271
Pb 10.575566406209344 13.41842604725402 8.570123897331465
Pb 14.00380349003469 13.510287366522949 12.322817919147312
Pb 12.922900093470881 15.005812604010266 9.829335345633556
Pb 11.80385044043603 7.791440299976385 12.367483898638149
Pb 10.963440207744423 9.803900748871838 14.75574330171574
Pb 8.827376697362363 12.172935216190078 13.601452970794108
