11
Energy = -35.35853321 eV
Pb 12.026562282381297 9.999787682313361 7.696284103739145
Pb 8.943517992089143 9.142216051407011 8.247966865138743
Pb 11.033153017270978 6.986151312689382 7.43734037575325
Pb 9.444867777618875 12.341750003453518 8.16855333973939
Pb 6.516210311134757 11.092383935887932 8.280263695074996
Pb 9.139004950537556 6.379938245967277 9.923451527064413
Pb 11.2272784358654 11.174293470054868 10.581880421004625
Pb 6.565937979346336 8.732398814491987 10.415172796200764
Pb 12.023578989483022 8.007370021949534 10.373956825038185
Pb 9.329364575403574 8.78901643155485 12.04837126364815
Pb 8.04048835504384 11.644658696405058 11.116723453772844
