17
Energy = -52.58223603 eV
Pb 12.469545386272946 17.412948278625052 15.508009242993307
Pb 14.38678278576658 4.1396908509402826 17.560553682136877
Pb 13.353585036128672 20.69429281926394 15.738505607849696
Pb 16.075762361844383 21.187054309477166 13.73016303752194
Pb 14.665525930655852 15.866217258588522 13.369720088089034
Pb 13.606853549328067 19.058184505264368 12.74452514631005
Pb 15.058477025289571 15.524519482447129 16.742938554831643
Pb 15.194952750468259 6.814416521455143 16.317832812750805
Pb 15.56691016875613 18.35971347882549 15.24333730298396
Pb 16.895297456064522 18.205628656601483 12.276354052747061
Pb 17.794364558097488 16.033677203227917 14.750344186384313
Pb 14.151210218655548 4.707947594098474 14.364327961683179
Pb 16.536674966184567 3.239908194335231 15.576122036143886
Pb 17.531512931020277 17.653807379214893 17.739432699737613
Pb 16.47310121732448 20.842217175393326 17.13017751275887
Pb 18.66185035285211 19.316969168682387 14.97902687546734
Pb 14.243314064565238 18.503764375818303 18.21084330032102
