10
Energy = -31.12903365 eV
Pb 12.779520112401567 12.073147750338162 12.792175129058174
Pb 8.961592859470052 9.684525881073018 8.959150757590551
Pb 9.109795961081893 12.879783406602003 8.623104906224205
Pb 12.056449196279779 9.918899212572716 10.286238972976703
Pb 11.503564046326643 10.937792139502655 7.433087650065148
Pb 10.245910035899911 10.803610626239726 14.318016480093025
Pb 9.692953996428162 11.827920909902632 11.464718291981228
Pb 9.601767624976585 8.525508447866477 12.139190781573419
Pb 12.151533077342735 13.22218303363801 9.609792709305289
Pb 12.64684356205601 8.87655906452825 13.124454793395454
