19
Energy = -61.58141202 eV
Pb 12.268490595605734 10.872824320985481 16.886658016766695
Pb 15.430602338579778 11.571161829817537 16.87412232442399
Pb 10.60372115974199 13.796344243446152 16.888848314107232
Pb 15.639590860800379 14.786315737746746 16.883545818492696
Pb 12.753755901386658 16.18391740481686 16.96541460228249
Pb 15.61913358867293 12.762654385055399 12.060363985732966
Pb 14.007596912980267 15.642556945498757 12.031264918936971
Pb 13.825673254565237 10.556854713363952 13.926173154472984
Pb 11.206878343293788 15.333877046179895 13.945867248149975
Pb 10.966003335229843 12.090921068911214 14.13770647053284
Pb 12.424770432674697 15.840347725166206 9.084053285213285
Pb 10.231766989274606 13.467803230880527 9.016650747366803
Pb 15.374379979171497 14.506359582530166 9.179105318972505
Pb 11.78263339613994 10.669221639135364 9.065792073232094
Pb 14.95713534139981 11.280357329691883 9.14006640650376
Pb 13.311854224593333 13.390850105651618 18.604195912940913
Pb 13.678540125631775 13.590954938925643 14.809033162677517
Pb 12.653761778527716 13.000412991560156 11.001459363285429
Pb 13.017503466895551 13.162171304153276 7.402732381673571
