19
Energy = -60.95635126 eV
Pb 13.778988181400463 14.27474229605161 8.327572029953616
Pb 14.446957835233661 14.086902470715986 13.984362951888011
Pb 16.722420416751408 16.53563464906832 13.702883311821541
Pb 15.422536329971823 14.588867071686666 19.593791087560763
Pb 15.036674907575401 17.473558230512822 18.50817060592974
Pb 15.340663133387975 10.998666823354313 13.803518927888533
Pb 14.07588677641458 17.371117150459902 15.438678624181428
Pb 14.954973521331699 15.423078858727921 11.000275140637626
Pb 10.566769686143743 13.28283473801313 13.558868840907301
Pb 12.132379680302751 15.989931218944271 12.869475011596704
Pb 14.922752409660896 12.216255882672153 10.699985119619685
Pb 12.159735699475966 16.533163568280195 9.762839543792575
Pb 12.447077475748161 10.939810418922251 12.476312697305787
Pb 15.653651428165892 12.42431463916188 17.04000801505612
Pb 11.719727040624234 13.4517977345618 10.610944180438137
Pb 16.694967027791314 15.531004716199769 16.794713870568245
Pb 13.248226307754159 14.858324974351065 17.268310314325962
Pb 12.686870982618137 11.822437710573714 15.603645464194543
Pb 17.63427712604617 13.621337195293725 14.521188507686832
