12
Energy = -38.51511108 eV
Pb 11.752214691533561 10.890737518675563 7.451725295050308
Pb 14.42159916359864 10.260198917335389 8.96833741761124
Pb 11.559495166098742 9.358796476380252 10.23309719509811
Pb 10.255513776305339 14.230999709259368 11.372837874902867
Pb 12.708622206653432 12.749417354903935 9.946168093035375
Pb 9.476197622297901 11.940773587183925 9.26418417877748
Pb 11.652370071296875 9.111568159717642 13.432490130961733
Pb 9.11575492343012 11.186467438149672 12.35852211843184
Pb 14.210156053518588 10.466958362604883 12.053303083640403
Pb 9.435444108608554 13.766369451186135 14.320632026970285
Pb 12.237159331470464 12.46097730111847 13.599280116118072
Pb 10.02695971012581 10.880985162608896 15.38556493644653
