14
Energy = -45.42053604 eV
Pb 12.741850677880157 11.73132048893854 15.060866404179814
Pb 14.412694257590442 12.68809331863109 12.615662656582193
Pb 11.345748481768396 13.974385919411104 13.068503325825017
Pb 13.974185979259158 9.444190743896922 13.229523531493163
Pb 9.619995512955834 12.012556744829512 15.02992507871167
Pb 14.33934698787301 10.35865418984647 10.23690326676853
Pb 12.004371320406026 12.411955619130415 10.388335993936474
Pb 10.904024563364736 9.22062429808731 14.046117238451686
Pb 9.277628490336657 11.407126066789575 12.0193525319768
Pb 9.266843828794276 14.080865367914951 10.085719932505887
Pb 10.908350315436534 13.278473720875159 7.5840646721925795
Pb 11.965868711202779 10.246952636264893 7.889034680040908
Pb 11.291085739641739 9.076174877021128 10.835547810528233
Pb 8.947120302068337 11.00766268267872 8.853223580470551
