18
Energy = -58.26044693 eV
Pb 10.820018261570489 10.611260639807664 8.696500403025475
Pb 13.295371300762605 10.140655705763626 10.596120515053848
Pb 10.318978491058951 11.57928900457196 14.22989015300064
Pb 13.577334443488112 16.53262242352544 15.074194479710838
Pb 15.50480099850285 13.23675147766402 11.061441540179267
Pb 15.030963621007718 14.013406641301826 16.331764501707923
Pb 12.459432318001335 9.212078529954033 13.528818397819764
Pb 10.964432721740812 14.910892933479415 13.613064331819674
Pb 13.501702677021711 11.179026506380483 15.889206599865378
Pb 9.760472042434182 12.567893918631809 11.053800874175472
Pb 16.263650333089842 15.360075337732901 13.712834563759758
Pb 11.858475868724527 14.03709539754477 16.536091121697726
Pb 13.611732720100774 15.841487895230328 11.911416793058365
Pb 10.149211954211399 9.32089063916214 11.443666691558812
Pb 10.774025456074144 15.502160581304294 10.460900479951025
Pb 16.123201103324632 12.052052559051818 14.049118142982062
Pb 12.61439629403072 13.203734234899223 9.337502260240893
Pb 13.1269926698529 12.603440663745797 12.947220307033875
