16
Energy = -51.94942235 eV
Pb 12.243301858944598 7.305496424452061 9.324534180371407
Pb 10.001361590183228 10.92399183628943 7.0177102967344585
Pb 7.912683167822847 8.63405405707997 7.684644046880821
Pb 11.636558011538098 13.35971550741155 8.607585904380324
Pb 8.673870261936532 13.742301452349892 7.4073143537408255
Pb 12.82532164620273 10.490327965992261 8.89913101243408
Pb 9.101346845497952 6.458862246143302 9.745526105308882
Pb 7.383899655887942 11.42763057853807 9.08632127469707
Pb 9.131342139915509 13.841297969000905 10.589142609555921
Pb 10.00581765334924 9.559400331146026 10.10800353596662
Pb 11.862866436925692 12.24919781571533 11.788856186653717
Pb 13.379699819854336 9.190748340478242 11.847691040626462
Pb 11.220913726520953 6.783040406867649 12.333316770415307
Pb 8.50570146579051 11.331274957537373 12.322801814324045
Pb 8.27718196472451 8.082576053995147 12.475098771586225
Pb 10.89761953776827 9.6795698398653 13.821807879186201
