13
Energy = -41.26030764 eV
Pb 7.66872766279489 12.317117893048003 8.550993909936405
Pb 7.007370112262533 9.1209777350777 8.91757343669864
Pb 7.625132414600525 6.04823877249939 8.756786741201237
Pb 6.826989124650096 10.245062591018947 6.132645095785104
Pb 9.186144746256588 7.994924312408196 6.570333966568901
Pb 9.502150250647803 5.526201392276783 11.211707363097196
Pb 10.761227732965672 12.568656367267934 9.215460262777263
Pb 8.885666944305619 10.751794289198036 11.214995296235733
Pb 7.509204616153274 7.843056035347744 11.73591557207496
Pb 9.827249785243945 11.257671891746934 6.34407558035911
Pb 11.060274552892354 9.590552330390906 8.8808404086355
Pb 10.997747328684891 8.237862892711947 11.707516641858135
Pb 11.103132804827494 6.458901785150466 8.722174436629109
