19
Energy = -61.59336298 eV
Pb 15.245510087792834 12.323818387402733 8.401881220612335
Pb 11.620874446269449 14.453838852515943 9.925471681207283
Pb 12.544956166221942 13.763342395451478 17.683077937483603
Pb 15.496845999287778 14.523341558795938 14.098308297416494
Pb 12.317080610846498 10.212428039399919 12.355946777832203
Pb 14.919645573155671 9.695845593901527 10.224212789695732
Pb 15.071495002464129 12.110944007004424 16.445520689853122
Pb 17.03027995095568 12.108268663810227 10.937315457020002
Pb 10.332264337670054 14.983977933368486 15.542665904422076
Pb 15.51089584461343 15.127544876893941 17.267639379256057
Pb 15.424004449059002 10.786334014231457 13.409292409258947
Pb 9.72624018285577 11.905196040494827 10.788291157924956
Pb 13.116290052384567 16.530269763878973 15.970863303366357
Pb 12.317397040904392 11.188176941346743 9.031468143237626
Pb 14.018660070330379 12.908550196949202 11.33852610955648
Pb 12.662455948939774 12.893956537870064 14.506674006986701
Pb 9.799797494681552 11.770939450107347 13.973481764559935
Pb 9.568457905182743 14.624406412371487 12.430816613530434
Pb 12.630479987783417 15.744034168808755 12.848345413524957
