19
Energy = -62.04683812 eV
Pb 12.365975461980637 11.935013614623228 6.576809026371913
Pb 11.98533780530884 14.793823853430371 7.919311206675298
Pb 14.469357201445389 12.899009638070334 8.895425210662857
Pb 9.536574842451165 12.522944431567977 7.984338314282228
Pb 13.997848498619348 9.772146803338142 8.074782121164061
Pb 10.7416708924063 9.656678365938694 8.534068638076237
Pb 9.471241252463937 14.702340735309738 10.131165676902814
Pb 12.259339186171351 13.79293957402768 11.004870082964038
Pb 12.843406807301283 10.677749274881245 10.799801781336344
Pb 9.781487676576655 11.514570765615064 11.080129335330405
Pb 11.957748820951121 12.065694210205573 14.274729078577517
Pb 14.38712625150401 13.921483435918166 13.562039612539483
Pb 14.731855236649 10.757091200873457 13.490609529263415
Pb 10.067397227163479 10.238603594754078 15.958779112447036
Pb 9.764118945644089 13.405014908816641 16.07752788491873
Pb 12.713295836360476 14.712882458307417 16.320730089222977
Pb 13.223063533095393 9.519333180672845 16.150329253888778
Pb 14.872080574341844 12.311278001101039 16.423792007798408
Pb 12.00077352527714 11.971101528259599 17.910461613288913
