21
Energy = -67.99687639 eV
Pb 8.580642168400901 12.026983058458656 12.625459740953204
Pb 10.539232032303094 11.951673601909333 15.804667177178441
Pb 10.354597637251164 12.131559644155162 9.34274398417951
Pb 14.270283474127188 11.961041964123412 15.696601519600373
Pb 14.084949743293775 12.145272383609552 9.237655789822224
Pb 16.04325858738309 12.054465174597745 12.414903300469064
Pb 9.453128645892273 9.38419691557163 10.90085545791243
Pb 9.548447195572754 9.298784121489373 14.153579026914752
Pb 12.220374088891466 9.452564885197932 9.181377892618448
Pb 12.416499119285113 9.26962844469409 15.701830517181934
Pb 15.086872222246358 9.408516459701259 10.728983735974232
Pb 15.183205732332343 9.314230794770005 13.983224411665535
Pb 9.499285573050571 14.753396901381842 11.07691430899468
Pb 9.589669915611234 14.670418094718524 14.263649722625411
Pb 12.21831963330561 14.82350373976803 9.425287135224917
Pb 12.391800185841964 14.647199554690566 15.772154152084182
Pb 15.024036259160342 14.77854144483733 10.93481647073171
Pb 15.113277343413365 14.68723003977364 14.116905480815275
Pb 12.301709729608296 16.19401691160926 12.63862253854619
Pb 12.312366332723105 13.055528932120762 12.555461081437768
Pb 12.316160448000405 9.969666115226806 12.457777157104204
