28
Energy = -92.09574021 eV
Pb 13.579420564650837 15.246441264150247 9.014021602209867
Pb 14.18206641311336 12.228038146005884 7.980027391406931
Pb 10.758397987684736 14.584832831950902 10.698645518019344
Pb 16.214527744354402 10.597532006009342 9.789863263154876
Pb 12.222290640180319 17.501071283895122 10.847916138269886
Pb 16.395002466107602 13.83093054498796 9.783617774081085
Pb 15.471430490960346 16.825443891774334 11.44703262537895
Pb 13.169780354921032 15.009239088927169 13.254595793102785
Pb 10.414234175598912 11.283615348036836 10.929719247015385
Pb 13.79555585710988 12.329722807834054 11.279451293775125
Pb 10.503793634149547 16.766401633578205 13.598837160246674
Pb 14.526694972314585 13.80674212210819 16.231874241597062
Pb 13.333905900158348 18.547940085965852 13.566747425484767
Pb 12.884921713221857 16.75594635699261 16.168269998493898
Pb 16.325621093645974 13.862927856766097 13.268459350545395
Pb 15.803023400599555 16.63885039319658 14.764002779881992
Pb 15.377932194234074 10.987451240142331 14.621100663208098
Pb 11.12087501285723 14.102368040908326 16.145832418719117
Pb 14.868181707167832 8.79490430020906 12.125087409952817
Pb 9.19860723788299 13.366833443552206 13.412188793521606
Pb 11.93970862577476 11.253650165800138 13.92258948215348
Pb 12.685880014174158 10.765820563149227 17.01357708728275
Pb 13.11776497768052 9.580268445623839 9.515117604165598
Pb 13.608865284045214 8.273371396566557 15.022179248867712
Pb 9.37574601789261 11.43709940211856 16.168785368040826
Pb 11.469762902341351 8.202711968190625 12.415993973581893
Pb 8.791456325418759 9.960124042931877 13.337019104874619
Pb 10.581522021657605 8.505650905064558 15.739187878847527
