23
Energy = -75.40749514 eV
Pb 10.250263928409613 12.43611432229822 8.566971227038973
Pb 11.297185268224196 15.35047205671306 9.425957764874342
Pb 13.689669998081019 13.085171649823657 8.168537496718892
Pb 7.928572020534493 11.184735024789513 10.975176215115917
Pb 14.299464232283402 15.829373431106099 10.296318992935573
Pb 9.109644007470935 9.483022903542631 8.675892150871487
Pb 9.970097905180832 8.224619351613672 11.427851609261841
Pb 9.37642279021086 13.55201995253946 14.528189251910936
Pb 13.001284214248614 12.841472902426391 11.240505633537
Pb 16.222844239760228 13.333345223002452 10.515416619977493
Pb 12.223632451490843 9.602590685004378 9.0153465265879
Pb 14.982148644026116 14.678572637956282 13.267755361635453
Pb 11.743246205041585 15.569358389431926 12.770374835360782
Pb 15.154721377231123 10.391825277276835 9.986857260726184
Pb 10.961386849123999 11.148603760840393 12.850305626196313
Pb 13.282218170718627 8.642593920550192 12.134454543528701
Pb 9.058476495821445 14.207946674388609 11.357327120702713
Pb 8.162924850621074 10.106800032780745 14.091243258942837
Pb 15.467713833242556 11.302744972036063 13.109423756873104
Pb 10.821755196056523 8.167260144952214 14.518763715425598
Pb 12.649408680312435 13.304516509877242 15.212725433432448
Pb 13.405583398869524 9.989185707792563 15.242164469804921
Pb 10.46568480160509 10.992260781080072 16.1476698597032
