25
Energy = -80.89557568 eV
Pb 12.56138510131281 12.066003325739546 8.373933147925946
Pb 10.416121916842378 11.218124445833357 10.681284859857117
Pb 10.845132471047803 14.415121498408347 9.803410410867428
Pb 14.18616008294205 14.793276137074189 9.173663428463056
Pb 17.262634548504277 16.529485040377327 13.080870120473316
Pb 13.443944946450117 9.785516841910132 10.745949162241486
Pb 11.00027597606766 16.400730566147487 12.532508780167834
Pb 15.60006130595274 11.810226208380024 9.355718647489544
Pb 16.77306754517989 13.97028699121729 11.397270361866328
Pb 9.852005153094417 13.488994694378361 12.824805219453186
Pb 13.242308321459339 13.060407649824423 11.655012754061326
Pb 14.215291836807362 16.615114645856394 12.454542818675911
Pb 13.761837044067443 8.670650200346952 13.980435528125266
Pb 16.354663331524545 13.77268854592989 14.706727946566499
Pb 11.976404438904904 11.215994451979435 14.090327383970898
Pb 12.830478706771613 14.43488639475545 14.746261151252082
Pb 15.465306571211187 16.88636457556203 15.644928197209651
Pb 15.902130003849365 10.998673603123143 12.730057358372777
Pb 12.398457981206784 9.154909969589735 16.789211529581507
Pb 12.295238289153108 17.748403339825433 15.231176240146837
Pb 12.102440014379312 12.130623649519933 17.44161087155579
Pb 14.95128642595415 11.051462099008722 16.075441104296083
Pb 14.617835462995462 14.215329218868648 17.793591196065254
Pb 11.313684576536515 15.233461826389311 17.469403643017277
Pb 13.567993330090712 17.269409462260082 18.15800352060264
