24
Energy = -78.45377444 eV
Pb 12.26432737692963 14.281736237929003 9.301103930836351
Pb 13.051473364995577 9.388633636614367 7.214674586465386
Pb 12.158979904222432 16.44165082389201 11.790240050110636
Pb 14.984217979164063 14.443854939582835 11.167255101426207
Pb 9.77086570922883 13.764268656811804 11.46362319804817
Pb 9.453749579396456 15.901884014968774 13.803432639407546
Pb 14.758919075492157 16.271793515918336 13.871224440271181
Pb 10.961276328520471 11.362719047664335 8.785773348892405
Pb 14.440156952743195 11.8748349315731 8.711458681467859
Pb 12.024102564202733 17.27824100937224 15.150077090307308
Pb 11.741588526197928 8.234563114738995 9.807143883299483
Pb 12.693305807645972 11.659822471087049 11.62093396519293
Pb 9.998238947543781 10.060107895555213 11.772824848636985
Pb 12.245969711840223 13.886282483076737 14.00454398672913
Pb 16.121060476304372 13.431659092516982 14.18323113973614
Pb 15.805875115487632 10.994557146855984 11.948067255107862
Pb 14.911777891612726 8.778698301236757 9.743734979884357
Pb 10.518904515100571 15.010167358605012 16.78295322073703
Pb 9.175281113190103 12.70499653153274 14.745757206426441
Pb 13.39651550150067 8.486352138158889 12.57904228498765
Pb 11.252005175324896 9.891562486318035 14.807489583765886
Pb 13.995340572510031 14.497664944272316 16.639822586201042
Pb 14.270706529844542 10.902930600305181 15.14224955310733
Pb 11.664520711778968 12.120041799118987 16.9926890591531
