22
Energy = -71.25502487 eV
Pb 16.47401373961462 11.1429960449405 12.078496960419438
Pb 16.52370850416977 14.087918732188198 11.226554776272796
Pb 15.80739559794951 10.05520563596528 14.986071360502734
Pb 16.085787669083476 13.390468165528008 14.556917173948868
Pb 13.212778033461 18.329079067546854 14.27482685396074
Pb 15.679588471898738 16.500409613410454 13.075293251585832
Pb 13.317092908764954 15.279600807815413 14.903658622639048
Pb 13.988783781031113 8.951460472432379 12.292665649735206
Pb 12.983907374851281 11.930633838959244 13.407762194208495
Pb 14.093828218879379 11.902564173900199 16.903003858188086
Pb 10.841613736877978 8.942026227101215 13.265590808850027
Pb 13.956227437644227 15.649537375291237 10.109398477036176
Pb 10.246501798390518 14.302626140917791 14.053734164062336
Pb 11.40665454408887 16.68084250039636 12.183771187954854
Pb 13.933226991887983 18.563295026280038 11.27454394606837
Pb 11.54686619619901 10.336566531232851 10.476254047121103
Pb 12.896500550485834 9.0925924646555 15.663184306994658
Pb 11.250067890797167 13.739915219768577 10.683803442644978
Pb 11.632530385976066 13.949354699965234 17.036616186783455
Pb 14.08942014432008 12.244487526945544 9.934767671448732
Pb 9.363612172568377 11.705806824059458 12.457848714907541
Pb 10.46413400727331 11.26096710923648 15.692579551030056
