25
Energy = -81.59690322 eV
Pb 11.138666126064546 11.598286233074798 8.797573443248442
Pb 13.480267067758975 13.993862107922075 9.219688603255518
Pb 11.062151329000052 8.898886579594926 10.539915489939785
Pb 10.176030425115233 14.172444184678234 10.67478669856109
Pb 8.878285922245444 11.209262575652685 11.068279539964477
Pb 12.12066851757449 16.795687980118537 10.393260844581839
Pb 12.495562784062965 11.633224163308006 11.710163470391176
Pb 15.37575817542448 16.3870987017126 10.455217015822017
Pb 16.175322448797676 13.275788789615063 11.038349723084886
Pb 13.361693955113846 8.315951966554183 12.747729527674672
Pb 16.35470983179126 15.933033524712203 13.646073797560184
Pb 13.526543293894768 14.637647025973692 12.85931996289442
Pb 15.916156701016346 10.292970924888118 12.107909954719075
Pb 16.75630975620601 12.48029206843041 14.261050508939965
Pb 10.864613174027939 16.336519886372002 13.562880531579784
Pb 9.542603547363383 13.026022366946625 13.749093191961569
Pb 10.179598985321556 9.597625883479793 13.617605988490107
Pb 13.846504994983981 18.075115970300978 12.72911904589606
Pb 15.536949112154378 9.284818214175841 15.124643725680732
Pb 15.189019424588384 14.319052040387026 16.385432000606475
Pb 13.483917958619525 16.910815876845206 15.637609625159962
Pb 13.48741287223683 11.81563316826977 14.821832765815284
Pb 10.527725559003486 11.364436334500377 16.359131653070833
Pb 11.647781814550404 14.40341011166396 16.221768329510176
Pb 12.547304007694699 8.913671105433583 15.943122346202381
