29
Energy = -95.3840659 eV
Pb 13.794528781223626 9.458383831930396 16.1659802450216
Pb 14.671933691317149 11.540182034810401 18.575111037233725
Pb 11.497658228234865 11.182001025432783 17.888613218430766
Pb 16.534601017710898 11.365127305347965 15.916288193184311
Pb 9.813521707933099 10.910676048302749 14.912995488723665
Pb 12.07259420939028 9.756106161870722 12.965320501820948
Pb 15.297419260277943 10.5891118530682 12.971691233951235
Pb 12.751119290861837 14.144795229285318 18.383485636874727
Pb 13.230264544198075 12.36516586442717 15.272361326686454
Pb 15.183644055397206 10.274885542411656 9.318958029904511
Pb 10.264147326168176 13.969387684760333 16.18696659979515
Pb 15.654466565183949 14.292203042350145 17.00213215837343
Pb 11.726117188732257 10.201322519517277 9.780727010673674
Pb 8.94550096688222 11.184074159351757 11.380387658534609
Pb 13.85739493085961 12.885930259042171 10.727901748250005
Pb 13.113775136829142 12.045447800460792 7.41188749731187
Pb 8.090818653575212 13.399859040327131 13.785353349930638
Pb 17.19977902680932 12.278256921278203 10.869264437122094
Pb 8.358406165443082 14.480619863943426 10.825252558521651
Pb 10.385207361172784 13.14953429963653 8.712290209109748
Pb 11.205553397765268 13.09008300163573 12.652686838087437
Pb 15.76108044018275 13.935958113829237 13.521972435368863
Pb 15.999449337334946 13.212603293449936 7.967355689224238
Pb 13.121449534607734 15.554280700678742 15.215217981210431
Pb 16.251013210429843 15.367386426764213 10.397855154362096
Pb 10.20843384457519 16.10303983819118 13.201064344492412
Pb 13.451662267090104 15.310807168818616 8.403933468232733
Pb 10.778109341223082 16.287362342604858 9.958898136008917
Pb 13.457507505012007 16.2561405900595 11.812179548629624
