27
Energy = -88.72272386 eV
Pb 16.660741785434382 12.548334703264851 13.224737326067592
Pb 14.522758430584517 11.575568039368225 18.21284732194105
Pb 13.97703655244935 8.912488690538591 16.31218725667069
Pb 15.24450583623829 14.439253170983903 10.929602963828685
Pb 15.666026047463284 9.308358646254442 13.303450570525245
Pb 11.528769055596092 11.04378192746306 17.44284522511455
Pb 14.442431828522947 15.302140295477184 14.099183434641546
Pb 12.58260810345163 14.119358889433256 16.740082156032535
Pb 10.914327695663705 9.269184711688391 14.862529405265992
Pb 9.682428916323417 10.741621498486843 12.364939170854894
Pb 9.834380949454669 12.6185263176124 15.222516970497372
Pb 13.43982153093941 11.70712277762481 14.42268601779407
Pb 16.640509801595666 10.642362396433626 15.990769131604203
Pb 13.174787114839027 16.800349895240878 11.63522575663857
Pb 12.58931764313018 9.034647292101774 12.122345681274666
Pb 8.562970698275805 13.992572890047114 12.464498472253439
Pb 14.795097182168554 11.12698737523251 10.717496105536842
Pb 9.990778882580887 16.810731869119184 11.41967986228457
Pb 11.709019503994346 13.628082463013248 11.093989744182426
Pb 15.974884767807584 13.785213352431294 16.3610860523746
Pb 11.044371292491856 15.677602846072144 14.2281767553958
Pb 11.706211229766565 10.557242000128646 9.338690961408645
Pb 8.586429036796039 11.959213050307326 9.703352411013949
Pb 13.713784676268572 13.093538714855436 8.326810413073023
Pb 8.642784151204593 15.134943477687894 9.1344910312113
Pb 11.807091271597407 15.983931755988825 8.622342589936531
Pb 10.656640345153228 13.203321432416725 7.55313226933445
