26
Energy = -84.82020653 eV
Pb 13.985205385896126 0.3421925683618473 17.84127815273286
Pb 17.916279585457794 12.765769940345283 12.606137284958939
Pb 16.000763769777944 18.70842911988479 11.902421706772293
Pb 18.96649774816219 17.47687555827862 12.931790653860496
Pb 12.156267055523697 14.972560116498425 15.948409623758101
Pb 14.377358919673918 12.762278054050261 12.098990308993837
Pb 13.739928142269088 16.91015712980826 13.618998502416753
Pb 15.328666310032078 14.362893150735374 14.916207588111646
Pb 16.014433195594734 10.281720101645242 13.033788617599827
Pb 11.901926777524672 15.392326240514327 19.26015899315829
Pb 14.403372468118741 16.77772150876889 17.469532741609072
Pb 17.071681682758832 11.630005812743576 15.649370177429157
Pb 17.04656290367873 0.7505898338986667 16.890211990806392
Pb 16.32482948766612 15.502783877735412 11.922842072494518
Pb 16.63779021965319 17.700407035144277 15.220414686331138
Pb 11.556651253006272 18.058281696578888 17.25190084775825
Pb 13.746186370812257 11.649174454053268 15.045689682554984
Pb 19.55710370326298 18.97939355896657 15.772337938546828
Pb 16.395889815995407 18.313214465397724 19.53310850469635
Pb 14.579746292847707 0.40899041878270337 14.552143605251617
Pb 17.079168873185417 15.196584341080625 18.10092351696391
Pb 14.843941370490748 15.593443568799003 0.7917945250176154
Pb 18.520922031748178 14.77893693922612 15.023455101446896
Pb 14.358070840035165 13.392099275415735 18.083574778342637
Pb 13.091061463686165 18.259230945966937 0.43019749665212165
Pb 17.803500410804872 0.7197857941253322 13.6596837866235
