29
Energy = -95.09198502 eV
Pb 14.865995412997329 15.083992111663763 17.60645318657678
Pb 11.99501487596183 15.413721399955154 19.1025590066726
Pb 16.809182918748224 14.63349965887462 14.788735730998454
Pb 16.47260205425765 11.968183459984404 16.668817865752562
Pb 12.728216296859019 17.427575687217413 16.500345662562374
Pb 10.042723327261108 13.144993855212144 17.968690999293827
Pb 13.892532665066263 9.731656489282138 16.61847122126751
Pb 17.09361921635289 17.17789439827861 12.96721697714525
Pb 9.758336256743647 16.1807437601459 16.96452509422323
Pb 13.36377949878242 18.458766956771893 13.046745223374188
Pb 19.478869656538595 14.743021350413244 12.940355763868098
Pb 18.144089369912823 11.808327779208696 13.6586835707097
Pb 13.186554599807183 12.451214216743725 18.478354248444468
Pb 16.512452273408286 13.906388662646187 11.530338033145116
Pb 18.467678407988355 16.038556132189974 10.332341109695312
Pb 12.167608106658243 14.238957978745331 15.81843441949099
Pb 14.436670767578159 12.025170525729061 14.162040456239762
Pb 10.543994459697732 16.79789744536411 13.870404315621261
Pb 13.851883639180237 15.350017307755037 13.13342873854369
Pb 15.039586239412307 17.046665197587593 10.458476719998941
Pb 11.644744506994098 17.18464321592097 10.757875452431978
Pb 16.404107947902215 9.21523624328307 14.608793645720299
Pb 11.388045344259874 11.037012474195027 14.959937393693139
Pb 12.480791188958618 11.373723970008767 11.653409319391432
Pb 13.397671239238898 8.791628488673826 13.554016238644854
Pb 10.802349023746476 14.10512676820804 12.198005089022331
Pb 15.659062829394886 10.405151060604135 11.676541800613494
Pb 13.351011703625662 14.24160028229352 9.959125652779571
Pb 10.34489169371163 14.986582997839104 9.200701919799519
