21
Energy = -67.49709452 eV
Pb 14.255104920445273 14.424476851198987 9.062220308209632
Pb 16.075215466016967 12.352375808649775 10.755406419012367
Pb 15.278453661247548 15.2816377878933 12.06172632636844
Pb 11.004749310927924 13.458221523053728 9.15976099581741
Pb 12.347606431556404 16.162321648733194 10.968081670384096
Pb 12.230254364422994 10.527847434848313 9.11766285133672
Pb 12.95143472146786 12.825376744256154 11.661623980872085
Pb 12.863255865194436 7.498314953257709 9.586052862202639
Pb 10.166068114467834 8.332091862764088 8.06760615396921
Pb 14.224216420883078 9.746498923714663 11.656238189296026
Pb 15.064787326532734 12.549014880165862 14.110225366484528
Pb 8.931121263958342 10.631528633063645 9.824812141163537
Pb 10.488873329422285 11.039093132177866 12.813154326091743
Pb 10.403735421883791 8.225788203337657 11.290755374626743
Pb 10.037580835537415 14.222036104400736 12.429865284127763
Pb 12.783795651444786 15.239737115969596 14.185685538085362
Pb 12.882612730454394 9.946894741439626 14.720795403413987
Pb 7.921588713314841 12.509210585380828 14.169739378664802
Pb 12.784767193231211 12.695783627957535 16.397372768397354
Pb 10.037104004630981 11.04697333207516 16.011569394906083
Pb 10.06103778496808 14.308678030507867 15.770966606842647
