27
Energy = -87.13876319 eV
Pb 15.619896890664629 7.96812210221371 12.520074406579822
Pb 16.0561718102874 10.867600781944338 13.716192025878634
Pb 16.73168826521481 13.06477517743262 11.481467802489977
Pb 15.255995368449023 10.388738075633473 10.501394439568703
Pb 14.772370373553395 11.326809188231904 16.74639594545167
Pb 12.57314097293237 8.948393634402791 11.838189494749837
Pb 13.65827225828854 8.940331602248131 14.881053836479609
Pb 14.210137939075313 13.942875722886571 9.600604576977862
Pb 14.28168086343171 14.27676794287685 14.528681598971552
Pb 15.720979489906664 16.03328710798072 11.740438851257744
Pb 12.377908622003874 11.149815458312178 9.301285647983585
Pb 17.093002092189977 13.457051401679966 15.712160378138256
Pb 12.797721340205959 12.369573798159069 12.411365097020484
Pb 14.331989706381774 16.980944891790756 8.972531615362366
Pb 14.80754883729323 14.244065820974468 18.028366178448255
Pb 10.780934674446575 10.407730476085973 14.397541769979819
Pb 11.94582689164941 13.141255747973743 16.560780131571693
Pb 9.668758605166765 10.818236793593629 11.114510133148142
Pb 16.000003515604114 16.505452951666904 16.113623853627672
Pb 10.57469267714143 13.881914655607748 9.861903359886186
Pb 13.89561886272127 17.622772447592162 13.867802725393194
Pb 7.7142955329789675 11.216174894032436 13.721851344225444
Pb 12.445365903228431 16.52880897448176 11.256496412631204
Pb 12.778951176733596 16.30256236522899 16.615994322455336
Pb 9.792899901530822 13.498638724495475 14.076636097755255
Pb 7.753510609408235 13.362647936006235 11.407187420594829
Pb 9.542783584176618 15.936798091132598 12.207617298036702
