28
Energy = -91.51667463 eV
Pb 19.08184188754056 14.312841525252884 11.827526749642274
Pb 16.04943990820685 14.33994699883429 10.3929716217722
Pb 16.987510418214335 16.08077614471455 13.288430224294338
Pb 17.980922222739462 13.157132980342165 14.751805750487721
Pb 14.621971684799654 11.328314290774573 10.190124623183273
Pb 17.62756950043838 11.648692182604323 11.721380736777974
Pb 14.418198850545714 17.390609686414574 14.734754529891458
Pb 16.187751433245612 15.238367357498655 16.41515919172227
Pb 13.9973415216836 16.614078929264387 11.561061254855112
Pb 16.277941776588456 8.92675273039069 11.628631510133392
Pb 12.782157128956761 14.060843057455687 9.65883630928301
Pb 16.088023195705855 10.313266748827626 14.527074920811605
Pb 14.970854316863804 12.308280085680861 16.92875409014718
Pb 14.62199212825418 13.627372278605096 13.727207306446497
Pb 10.860862804177522 16.433973983888894 10.797082215389164
Pb 13.304691826386092 9.339353633477582 12.528773611638979
Pb 12.959061018050106 15.116801569598463 16.51500250924799
Pb 11.302154741732592 11.043966276956722 10.595776994595214
Pb 13.170951591766363 9.942976185433528 15.72891259958904
Pb 11.225992128606174 13.334099431500814 13.223609834163799
Pb 10.335740660285644 10.057210195724288 14.190496676441485
Pb 9.477337174494409 13.684889178054965 9.997648171814125
Pb 11.309046726637378 16.958137349593596 13.925191237604357
Pb 9.689955435321899 15.055078829080365 15.958543389977953
Pb 8.31894184926364 11.652877474966854 12.061682060737299
Pb 11.154701189209145 12.208377545536798 16.747721946716158
Pb 8.330032811174867 12.333796883447928 15.156859860569302
Pb 8.47686190769186 15.101034304659489 12.828827910647334
