23
Energy = -74.21786337 eV
Pb 15.16251180680368 16.159693774982127 14.25026133306425
Pb 14.711776045316912 16.726446649723815 11.125761504896282
Pb 12.416956664451284 15.32432574766404 12.79029035982697
Pb 13.11287579031264 14.710809307574655 16.286282009116206
Pb 16.348535782652384 13.555151046645252 15.930778293766174
Pb 16.50513201422697 14.228348823749934 11.839965511378436
Pb 9.483358100910609 14.823781489844464 11.200016033979413
Pb 11.813941930276824 16.294621103091213 9.709496269410476
Pb 9.955780051763215 14.127157433873844 14.52672335458113
Pb 13.955072777514422 11.784013743444723 17.582937322862
Pb 14.28046541915555 14.008656258106974 9.176735583796304
Pb 15.98511316179034 10.289016096202149 15.736576220517664
Pb 7.916408825578578 12.550204490939342 12.47919996211119
Pb 17.334757156008312 11.633923835371176 13.326526185350573
Pb 10.97509810497994 12.13955157556014 16.73373538300475
Pb 11.006209807062943 13.480389062570165 8.560820845731513
Pb 12.75507063119196 10.981897310188542 9.169121982755616
Pb 9.975432284085027 11.047276676511558 10.64780127735955
Pb 15.290548874533478 11.27552429899012 10.92983614110064
Pb 13.88190733906856 12.265450249886703 13.937825832628906
Pb 9.978060202289274 10.71635915143133 14.02919323863841
Pb 12.578939399912711 9.617434335109312 12.219405288904127
Pb 12.720662860596368 9.495085594308158 15.492684781387554
