28
Energy = -90.31654961 eV
Pb 13.691242512686255 17.382076472287356 18.773945097354197
Pb 15.872938576107517 15.418860730072007 13.957577711362134
Pb 15.593526701862045 12.324287097216473 12.812699470087527
Pb 17.608742300832958 12.194143318043471 15.623711038117587
Pb 13.897569720237888 14.672722769158964 11.064386299101638
Pb 0.27601222460554475 18.784981153063114 1.7808652942256051
Pb 17.003045980991043 14.566175010092351 10.557124476995604
Pb 12.621432888094684 13.85081966096651 13.803461427780165
Pb 18.873145597861438 18.60791553775649 15.268073736265254
Pb 18.5726461173803 16.918315434713936 12.454919115562932
Pb 18.76360055350872 13.535779550933862 12.94526570793042
Pb 18.14523089345242 14.68750189849536 20.719150578751712
Pb 14.336841205590579 12.300860173785896 16.038666647225185
Pb 13.278570323137478 13.992778070418426 18.60613458139061
Pb 15.068548755502032 15.078632958788402 20.970254068539717
Pb 19.666461967966008 17.41117124990973 -0.01635586910104001
Pb 16.625963113465094 17.824524703931242 20.439174869162063
Pb 19.88251970510211 15.448865646346944 15.174650433635442
Pb 13.707603398888544 18.834550171280863 15.949091606838772
Pb 12.29052141783762 15.916247787753962 16.173234579471785
Pb 13.029114729189855 17.229400663912024 13.156376245476347
Pb 16.322567776646256 12.473599403630077 18.652925945938023
Pb 16.25179429025761 15.563539815045592 17.511521727013502
Pb 19.312369339305448 17.117767891665405 18.036045811210926
Pb 16.057190023156565 18.982117887138454 13.777643799631404
Pb 16.566421462100067 19.170329091698576 17.50261377193439
Pb 15.596714733575881 17.431427845559956 11.014055703665173
Pb 19.325206190783785 13.799502755245685 17.920152839715207
