27
Energy = -88.54786539 eV
Pb 17.124752972937774 11.638843069672753 10.052214998781155
Pb 14.379187206038331 12.525855775466237 8.437381960213838
Pb 16.03129339822988 9.584751073577333 12.676800663657707
Pb 12.618740006789428 14.882272714059807 9.882740389389317
Pb 14.572138125480919 9.632938412257088 9.659585871643438
Pb 15.996227484365845 14.843366024609566 9.889871993844706
Pb 13.610049809367323 10.161275596178465 15.107160621589841
Pb 11.695783447404796 11.57368754265168 10.157209195652776
Pb 18.495842725381923 11.580811023813926 12.911280984113366
Pb 9.943885494015337 13.788097474878915 11.776280011944259
Pb 14.355325806424169 12.569161340474292 11.99077290875634
Pb 12.790092345593697 9.037459147052848 12.191060095291684
Pb 11.507979599875158 16.826325563633624 12.291835238063056
Pb 17.256688534105518 14.465546208009567 12.92813672582569
Pb 13.324647946219782 17.69051101731141 14.921007323808393
Pb 8.675210730229068 16.155126177366494 13.471258618897634
Pb 12.434900833501668 14.307670829357216 14.673946161051829
Pb 16.377281605313165 12.043229265630483 15.230346309308748
Pb 10.603334899857892 10.9605137849707 13.443378358307461
Pb 11.058656542548945 11.270069077789634 16.628003451328997
Pb 14.7561135923038 16.48343114168653 12.334746915473579
Pb 10.312994280704485 16.6861208088542 16.13546576247547
Pb 9.075411329755852 13.530542613455443 15.22110620341613
Pb 15.69392905482856 15.402680326445468 15.665803601366088
Pb 13.185154988708337 16.08676434983234 17.65984246463377
Pb 14.009822427517948 12.883005164179304 17.301915631144663
Pb 10.797465667653338 14.072855331938815 18.04375839517328
