25
Energy = -80.73508386 eV
Pb 12.254939610257885 11.897196215545863 10.501797099517434
Pb 17.103314200266244 13.618303727675526 9.650293690519515
Pb 13.630713258122153 16.90233662881774 11.977324464115425
Pb 15.020086799161925 11.318815421224276 9.30216932094019
Pb 14.199320978966597 10.369877856546113 12.553320743122043
Pb 19.704542638971123 12.840821218205114 11.277744190027192
Pb 10.619471068354617 16.217828607540962 13.160010646641195
Pb 17.298491789126285 10.90802581400168 11.629866725521232
Pb 10.935942959646084 12.947061376377738 13.245452956353743
Pb 14.510452902464843 13.657187209554678 11.86693945370607
Pb 18.989919696489597 12.511655988979827 14.307508468621238
Pb 17.381232031346602 14.858744976932623 12.674700723159496
Pb 15.835461446890575 17.48288318295408 14.173749657459382
Pb 12.666136572448723 18.27437123754601 14.831552205430919
Pb 15.885559618022564 12.272048158170794 14.579815361909295
Pb 13.189069592392576 14.975160161530539 14.910628464303315
Pb 8.376401042614484 14.283293439739321 14.921800753583465
Pb 10.210000239582586 16.67196645083266 16.320297270019367
Pb 9.38328328828877 11.330486999525958 15.52513558668914
Pb 12.62267719857769 11.480075117592921 15.614174446340245
Pb 17.27887411725598 15.139326855979736 15.940610543181144
Pb 14.801243935237467 16.955911199235516 17.163880340090724
Pb 10.557470353353704 13.53654500280048 17.301877087625808
Pb 12.435474466134025 15.569684935387583 18.645535765318883
Pb 14.672067625153252 13.542539646427553 17.485961464930227
