21
Energy = -68.42394456 eV
Pb 14.222861438130307 11.813032773717703 8.66160171333429
Pb 15.609365412324964 9.766939636803425 10.597640064619974
Pb 13.1541922692417 14.618057059290937 9.88505492995394
Pb 15.756209112646646 12.876148365238937 11.601337393620904
Pb 12.367359992869668 9.174883497422048 9.506448355381925
Pb 15.468994482870249 10.260363456205848 13.782852712272307
Pb 14.704920635572101 15.551736499591188 12.840215090186055
Pb 11.111883670525469 12.142236007473928 8.5322361707987
Pb 13.663509015067703 7.982604325810697 12.425306360905093
Pb 12.561407035370866 11.516092143758273 11.834611987924196
Pb 10.615677897941746 8.285427596334381 12.286246835313118
Pb 12.346146992207359 9.879676308911296 14.916998474799874
Pb 11.886076574353659 16.666761829025937 11.957147537724472
Pb 9.096632803006335 10.920888289374762 10.761253039289622
Pb 14.163066783192106 12.93456296430949 14.886235768176947
Pb 12.405116304953532 15.572736932500288 15.0665921368805
Pb 9.847234362348928 14.338149023776733 10.608582848005739
Pb 9.122293141116016 10.291801015798317 14.041300965843154
Pb 9.53426541120608 15.676392541765239 13.779699921022218
Pb 10.661981324759982 12.90220441419585 15.436183255284792
Pb 8.08841537362287 13.075924557071131 13.130870846820377
