23
Energy = -74.111186 eV
Pb 13.542195333691676 10.305181017191313 13.149088178786279
Pb 13.244028856116035 16.339023351461076 17.403181688856144
Pb 12.779839749287891 12.895726773505299 11.494630663275256
Pb 17.701925771655425 15.881509675562988 13.406393813094724
Pb 13.757096870047352 12.048430849634292 15.875359770514564
Pb 15.842468283365621 12.73746217534051 12.854983438493216
Pb 16.325337934115122 18.741915007889595 12.525122557243892
Pb 11.049583799402216 12.103820793812309 14.051334533332712
Pb 18.28506546478463 16.368482727143473 16.528263931608638
Pb 17.673987847716965 19.398201518312526 17.713922832317614
Pb 18.734701359890842 18.91533486819483 14.59909248345335
Pb 18.127726187129586 14.091496880258742 18.647332361291
Pb 14.408868813146503 19.263288502994577 17.79539590542828
Pb 16.818830174564273 11.45928386720306 17.77498086169103
Pb 16.127615993232627 16.81758548049247 19.10107593024822
Pb 15.969215018465862 0.8502273418886928 15.223693571603151
Pb 13.763594190763559 17.911911045041848 14.619908891758216
Pb 14.69468717815432 15.600561177494557 12.031531704494054
Pb 16.321304068208292 10.320645970391523 14.836594127187585
Pb 12.27272414825697 14.993531706363633 14.045639123514835
Pb 14.67092301177336 13.693497466127276 18.620979831868926
Pb 15.421379274602558 14.948748580266853 15.515623236226446
Pb 18.460798590010462 13.031037706143461 15.455334617719876
