29
Energy = -95.57486537 eV
Pb 16.737880237748644 12.96002152327762 7.99587234727567
Pb 18.02262604091552 13.93576434788253 10.817217463167468
Pb 17.414863426272596 10.774360427080891 10.264755524631267
Pb 14.44079534576651 10.639029085129355 8.82772196129958
Pb 13.556320884378842 13.73388803939254 8.158038352152214
Pb 15.678908059971995 15.697039156076602 9.565957236067838
Pb 17.12448775803839 12.093100513649242 13.396942675504656
Pb 15.144314848434556 9.38018925624451 12.233622816585187
Pb 14.591724739443098 12.807793505253947 11.10670567616121
Pb 12.043523205198463 9.831584703763443 11.419471484828167
Pb 15.732566220729861 15.24674432712441 12.989999461598297
Pb 15.677364480997747 10.004009355876473 15.366284376262527
Pb 11.07549061388191 12.7460591868691 10.14133444797291
Pb 12.627755400414362 15.592178495655519 11.362548697346035
Pb 9.286508168444325 15.407616865778705 10.889008321693707
Pb 13.305623457717834 11.962978944243483 14.050470450515446
Pb 13.395598589799546 10.821886571334563 17.338127511093017
Pb 9.541007400176987 10.105526467563463 13.462579915626792
Pb 7.977095760133858 12.577500744856545 11.750859597049905
Pb 15.28256481277857 13.498603303128764 16.038305679502166
Pb 12.411872253899936 8.939569468413124 14.65869784317381
Pb 10.600846763353802 13.585036664157164 13.461801666083023
Pb 12.362781515272568 13.778833245702614 17.55043054708383
Pb 10.419384675766224 16.97796925120612 13.542455417590649
Pb 7.746594553804731 12.41178700696359 15.061476921842093
Pb 10.311698886392616 11.291992493353854 16.59441760588235
Pb 13.032358240491284 15.857648970109452 15.088850811485214
Pb 7.627660517694796 15.292949972202031 13.729379099926188
Pb 9.692650409383997 15.048731381175092 16.301940971701363
