26
Energy = -84.18491836 eV
Pb 16.342573724638807 11.175382597391598 12.0192264433708
Pb 15.993914706443222 12.270606241800499 15.022692197767658
Pb 16.95235698286531 14.628590377623041 12.797241888455503
Pb 12.8985539599232 12.150475336069938 16.164855773377234
Pb 14.458489787306531 15.073391824904155 15.348465634551712
Pb 16.176086386663883 16.47914526196096 10.195059485539971
Pb 13.4861460905136 9.349383504876432 10.822680044975238
Pb 14.0512306148321 9.757191144496016 14.124144165638787
Pb 11.401257057416107 9.242524172067245 15.976535264453961
Pb 15.987214524027378 13.515721434464297 9.50674632387002
Pb 14.286551303570425 17.039169229758492 12.520436283484802
Pb 13.912094363938909 13.522570259427132 12.370266773216931
Pb 12.409132975960551 17.469989924970147 14.941552710457088
Pb 11.306841835144267 11.8277461330951 12.901837447853648
Pb 15.775074291951507 10.475422465601774 8.968964624930663
Pb 10.891077116941627 8.429195572014546 12.783055427168515
Pb 10.87559445346409 14.75606818579428 15.442737174234402
Pb 12.989465733364755 15.420027039101447 9.636637378153894
Pb 9.270506802427104 11.792612963520924 15.655670138764028
Pb 11.042040887487456 16.138663488400358 12.347018119088236
Pb 8.512794006942617 8.607075243935649 15.094816264710717
Pb 10.412468556098206 10.308516638674176 10.07348525804402
Pb 12.993638817977319 12.094523179054233 8.886037167704684
Pb 8.256266117646366 10.575736440225716 12.644884728822504
Pb 8.692918475433089 13.880321668207573 13.12382539093657
Pb 10.200255215310586 13.594494460852994 10.205672678716681
