25
Energy = -81.96393389 eV
Pb 11.414275998699882 13.617587299024237 9.014884306343665
Pb 16.535019958453866 14.558518017813174 10.359764730236861
Pb 14.056557170106307 15.306766021976351 8.332117371721758
Pb 11.651224356384459 10.795771885072957 10.8554778638385
Pb 14.440701723906537 12.153416632126612 9.607088017883163
Pb 11.661860334392419 16.668477694996138 10.244370764114016
Pb 14.725776902578842 9.985240767927756 12.377603743922698
Pb 9.57963675886053 13.459362192059466 11.841466068837022
Pb 14.905765919837139 17.360116272617997 10.61121336179176
Pb 13.386945970853787 14.432583804591985 11.609632362784716
Pb 15.724632065762274 12.81956781934276 13.559526664684707
Pb 10.535151066212228 15.542353808623472 14.29485263830304
Pb 9.270760455525417 10.409522995605593 13.20872304971521
Pb 16.212630760540502 15.970345248634104 13.396712216710233
Pb 11.93044188496846 8.699539593876572 13.464473117933522
Pb 14.211033677355186 9.007500377936983 15.595702415564798
Pb 11.379276428317207 13.763162951800307 16.98176673009809
Pb 13.138791738051449 17.240197440263653 13.339905160576189
Pb 16.916238655040953 13.704443525793486 16.387309299676012
Pb 16.8606746643021 10.690934172494094 15.667199414757444
Pb 12.142848286054829 12.332824582560164 13.90582037488714
Pb 8.978377935081499 12.925430947576645 15.144103817863972
Pb 14.239596143848493 11.974367908806357 17.155373535725513
Pb 14.061490224520355 15.18558199682004 15.859503011490855
Pb 11.039716491122677 10.395811612435995 16.18483553131675
