23
Energy = -74.46771044 eV
Pb 14.601445057813574 10.184108482077562 8.836676980296367
Pb 13.756702575137707 8.81435197206941 11.495972416799777
Pb 12.580111054790068 7.835726380382197 14.169725098537352
Pb 11.536971635844575 10.672327090362023 9.472422352793313
Pb 10.498835994433286 9.436355289683249 12.368221287495171
Pb 15.898602811522723 11.51139145260484 11.453748527780862
Pb 14.927140148165085 9.993126792508024 14.349259875093995
Pb 13.941238584218743 13.219525734780998 9.22790641450058
Pb 10.98030017801748 13.55501330232074 8.197621431858876
Pb 12.483149979916048 12.458109392123381 12.678918224525086
Pb 9.088243173879698 11.880384659041422 13.918751561716848
Pb 11.698649438221917 10.545095999554777 15.507158018338949
Pb 9.037693045420639 12.442448825250116 10.749318413384646
Pb 15.171393618057655 14.8554926960118 11.876652511473257
Pb 16.74052622515724 12.680633026665122 14.244477078715194
Pb 14.196675079221828 12.555549352368653 16.493766860652183
Pb 15.466041294656309 15.330391577437776 15.084629938086074
Pb 10.904148486310506 13.799580830743144 15.72424973292515
Pb 9.187736863169162 15.504736754806672 9.760508992547432
Pb 12.22243953327785 15.802350046552624 10.536521700577127
Pb 12.65658439528524 16.25854332200662 13.773343556384214
Pb 9.697355483690396 14.962551920723339 12.884532807425773
Pb 13.039959941946478 15.585361370740568 16.958437130171642
