20
Energy = -64.83914668 eV
Pb 12.157644764344237 13.170514369940314 8.894779669619913
Pb 13.3296754122024 15.805145522197698 10.292210259207716
Pb 13.878017328742802 10.321749468950095 10.059411303997582
Pb 15.321578815393186 13.235410535317996 9.947872342390477
Pb 10.992999095781787 9.694267580785203 11.840667205866172
Pb 9.135808115905663 12.133596846508404 10.364295499507188
Pb 10.293824469279793 14.981072009674211 11.270684752113917
Pb 10.902717087370478 10.302719134753804 8.674784803436621
Pb 12.882591566454987 12.723326223132087 12.502458340735565
Pb 13.984112404207275 9.206287397852225 13.084012668669235
Pb 16.223022795684017 11.940381277995407 12.860524511490167
Pb 15.65408388274759 15.190561608026742 12.46807608704899
Pb 12.70317306917407 16.145957211303926 13.564211101939206
Pb 13.448546126153872 12.16335481348857 17.61374234478113
Pb 9.448910449105211 12.219533341285597 13.55834544690179
Pb 9.62410373319405 15.429187285974944 14.28872986221512
Pb 14.98021068723887 14.019316981652025 15.405639037067152
Pb 15.131169599169084 10.619814443727144 15.595409306676066
Pb 11.564055100215148 13.726211943913784 15.870413475443465
Pb 11.775099631765489 10.402936137649245 15.275076115022447
