23
Energy = -75.41830163 eV
Pb 11.255346930734262 12.188305811839266 16.091180771808126
Pb 13.55316792482847 9.821983084649867 15.865591566672562
Pb 14.52955579993749 13.283877801625788 15.05931335404692
Pb 9.04608024662115 11.024739136596477 14.030040626162734
Pb 12.092947206106338 15.154093912068667 15.788744670506254
Pb 9.75518520597844 14.475165295388194 13.789961877173255
Pb 12.921557023509258 15.525263634130509 12.781347700887501
Pb 10.999605092080012 8.45059351727673 13.621307806547604
Pb 13.387637641934917 15.07375467657022 9.660270802192612
Pb 16.084119866805445 10.71913538402097 13.898502116807101
Pb 14.181529319604369 8.15285458027677 13.195665872302309
Pb 15.297621180512586 13.279897090309824 11.738533148575977
Pb 9.919229637983184 15.430273016862627 10.406432521186805
Pb 12.805166031237425 11.176331028834236 13.0305367245963
Pb 7.810782543485724 12.911791833295698 11.798346528844185
Pb 15.375928869294672 10.005929890764053 10.814650205560596
Pb 11.195865834213482 12.579280484223883 10.779779029206296
Pb 11.265862330966455 13.805836739352769 7.676112560129871
Pb 12.282880447460144 8.646067708320881 10.538330754468971
Pb 9.105546820889959 9.917707132880688 10.920839545244931
Pb 13.916995654264259 12.00313524790648 8.716629659317345
Pb 8.508929055717172 12.68945196158908 8.721776699069114
Pb 10.888411876746428 10.533106989077412 8.131827612331904
