24
Energy = -76.9255534 eV
Pb 12.839527776791494 15.77321930743683 10.034634348964032
Pb 15.399783512034784 14.00694082447803 9.09404618415056
Pb 12.839682260546132 12.917233805111193 7.679059815713149
Pb 10.293942812376159 14.234194253340917 8.94251173044705
Pb 16.931068868183168 12.33372910923366 11.210655576204582
Pb 14.31401180403212 10.755106503276314 9.566526060806524
Pb 10.859372803742016 10.900191698637213 9.16053490867526
Pb 11.988385941626142 16.09410324165313 13.175854903583073
Pb 15.239763111720153 15.063402065496685 12.251946371807222
Pb 12.05139598751934 12.896428646791634 11.603660149229079
Pb 8.57785408153685 12.857168833648837 11.013388995398163
Pb 13.146059461919428 17.53392021681022 15.685228526342211
Pb 15.494688500181208 9.927350153656887 12.582429283556143
Pb 12.280890092262842 8.963288935472182 11.665093094895399
Pb 10.930197749024193 15.4363624470243 16.273281387599333
Pb 14.265757188434607 14.743441721226326 15.418204433720769
Pb 9.596616615798862 10.510856358089303 12.7123224669107
Pb 16.33779585857943 12.727120918901578 14.343883417254634
Pb 9.403933278537107 13.9052491982142 13.893634498287863
Pb 14.104169217014142 7.826914615734437 14.193313111826185
Pb 11.608901333989506 12.3859231851972 16.126673492616625
Pb 14.37743410698933 10.621428440554169 15.792253916734918
Pb 11.44938114768219 9.379031529832405 14.971937259614439
Pb 8.77406163921365 11.312069139917064 15.713601215396928
