26
Energy = -84.42293972 eV
Pb 0.16631171522137866 18.656802409181044 14.207426008883193
Pb 13.573232266105068 16.539527258204824 12.56821059201737
Pb 16.439477475390873 12.635366516891022 14.1434440489083
Pb 14.02214429085335 12.730252115119898 16.219216946213482
Pb 18.615463101482135 18.591767626959964 18.545275852183405
Pb 15.876369465128192 16.526125935253496 18.197124499191485
Pb 11.936542544253996 14.993319754340066 14.999407903033877
Pb 18.898064149264982 15.772798853069759 19.986492870325606
Pb 16.171712310929767 14.75159599001216 11.664741299689698
Pb 18.35200134406728 0.46038912429837076 12.97298660764021
Pb 14.818820466249477 13.371293874302395 19.637054750940965
Pb 19.31143937055272 16.30979789360452 16.14878273318005
Pb 16.699081431796206 17.91499397078104 0.8017314553435109
Pb 19.204590220874785 15.823864926230037 12.870246046028502
Pb 16.539536833295394 14.782123300678364 1.8735797338366587
Pb 17.26841014648252 13.78566337546858 17.091581917629465
Pb 15.014275731202499 19.57432358845965 13.707068085490812
Pb 13.519300903251517 13.202471359067774 12.985872887179701
Pb 19.797113968735918 18.440208191976833 11.110128871020839
Pb 16.237496967238556 16.003595310754736 14.668169136624496
Pb 13.992602136946628 16.267782736370382 0.6641377622443034
Pb 17.89595888533176 12.774105334283709 -0.2240420809929343
Pb 13.696650788053876 17.56642514797249 15.869907793196246
Pb 17.456531565233515 19.11669108977863 15.63653919216161
Pb 12.591169619410397 15.20227265986319 18.137781404319465
Pb 16.7992237286387 17.995111613903596 11.704879624249473
