22
Energy = -70.51312596 eV
Pb 17.877624318089254 16.76018543553035 14.166927508423392
Pb 15.723535383931893 16.87560158375327 11.68832806187132
Pb 13.669515601962813 9.937450548289075 13.28883750885588
Pb 12.830678977328292 15.61682381381656 10.864696078187077
Pb 13.370861964104217 11.82007081128784 16.09485554069908
Pb 15.910352013524717 12.838664465588433 17.325680146257607
Pb 15.372289718831013 15.319200873400847 15.429202294304766
Pb 10.69079969079779 10.33662512250904 12.219924966862544
Pb 12.961321732360384 18.32565614216592 12.74459197798662
Pb 12.720280237233425 12.17542750337748 10.648325715452787
Pb 16.54619239540231 11.519050784327318 14.620999761589239
Pb 11.368687473949295 9.594741640383107 15.394759487201043
Pb 10.085485558828417 13.551311265973352 12.141063011544993
Pb 13.718195688050917 13.706882821357533 13.305040391704862
Pb 12.534605712863932 16.951686558383425 15.75706218913522
Pb 10.538008716395229 16.479632265837107 13.276786273749769
Pb 17.419017790925164 14.116031848017647 12.703537362933648
Pb 11.149493225780473 13.94835375537424 15.420728540667378
Pb 15.85343117533326 11.793612644711718 11.327911091579477
Pb 9.117453196049203 11.736072364652147 14.632773708923615
Pb 16.531344292921446 9.06144067879028 12.819826542640799
Pb 15.376305682260831 18.516624606819992 14.664880126258826
