29
Energy = -95.46903759 eV
Pb 15.840630555654641 13.282777999636885 9.277051013074853
Pb 13.372227974761845 13.154952820026628 7.299948779240613
Pb 13.341584619882921 15.985320575331487 9.096190425950319
Pb 17.533638605310745 13.747192689386827 13.842222592319187
Pb 13.994982261475798 10.537910819038384 9.48620258935419
Pb 15.784033809000638 15.460101584343239 11.69319221714549
Pb 15.567019988433659 16.588638866562984 15.07988357475948
Pb 15.868284272839828 11.70229711056189 12.045435195157577
Pb 16.92822470316708 14.137733131561145 16.921677701720373
Pb 12.693888221790202 13.36334938820981 10.772268630312333
Pb 16.17288774491762 11.13968488357152 15.372498557866848
Pb 10.963943652787298 11.264784593899606 8.410386902989126
Pb 10.596196557608911 14.454094383447044 8.086745505209315
Pb 13.817293334679382 9.24524014695533 13.049530430049387
Pb 9.307196608474438 12.747782703473435 10.969462511496918
Pb 14.490310313712877 12.253271425888842 17.981338063741774
Pb 14.216435456122316 15.465032245896037 17.865790183397337
Pb 11.587245890830607 11.68848974711424 13.624396045438829
Pb 11.02196786209771 9.467023047081533 11.16612800187498
Pb 12.966424147386487 16.79910419370703 12.576647783392895
Pb 14.16777737802501 13.753557777308703 14.733049971616452
Pb 12.898304939867709 9.980297305430097 16.210094917988883
Pb 12.135329084028314 16.477615432212787 15.679491494919644
Pb 10.352253378951175 16.010081018686375 10.852898710074275
Pb 10.770929098280039 8.338912226155331 14.266370817904134
Pb 11.482441726656774 13.338062157439474 16.861189910927923
Pb 8.586258694734285 10.310706844642878 13.11200387062952
Pb 9.729004914438375 10.607100956039364 16.193855868855216
Pb 10.230516618564996 14.773577651184352 13.782117693454326
