25
Energy = -82.50773536 eV
Pb 12.056451614116455 14.57023632825739 17.644556536959065
Pb 10.16161042332925 15.444214502390313 15.220124325206003
Pb 13.284710966883193 16.54789417650257 15.338537347525394
Pb 15.146405280003036 14.092554232969643 16.84122335619365
Pb 16.463566528379243 11.522396176811798 11.591027126211328
Pb 11.496100684089189 16.23725244973311 12.294259664827756
Pb 15.434278186730056 11.142871990114546 15.147072238298355
Pb 12.787466656120424 13.301826323358348 14.500580488745248
Pb 16.45766391150564 14.098771123988673 13.86565337924476
Pb 10.175475655986425 12.20178995190496 16.265014850773287
Pb 13.184757473392311 11.579894614442631 17.60051831259702
Pb 14.763218230976753 16.661410704388096 12.478750072375929
Pb 11.526986415466915 9.175166931185865 11.198962761029765
Pb 9.386992731434722 11.513598669586436 10.40961060626877
Pb 11.881246486798698 11.436976930990735 8.39327628887749
Pb 14.377341211552947 9.750302075628028 9.624740023407172
Pb 14.972293472829357 12.717329881029691 8.639449986121502
Pb 10.523934674284451 14.36483777322393 9.669644135993273
Pb 14.476429990363108 9.171745610537759 12.73778403993761
Pb 12.952209452911196 12.388774419813025 11.38113564312819
Pb 16.39132545701769 14.662849270915741 10.74715481851577
Pb 9.558945621446357 10.61256308259702 13.412920674038139
Pb 12.315165837762653 9.771234692655835 15.0513802154877
Pb 13.478983119591257 15.589332347353213 9.64547988375774
Pb 9.100882427097579 13.798618249689826 12.655585734548177
