23
Energy = -76.03149731 eV
Pb 15.746049333492229 14.619991304813068 12.660501184366364
Pb 14.939113438874573 12.708420638009562 10.030175772359954
Pb 13.962428833099265 16.043645304775097 10.373844942358343
Pb 13.436413831839838 15.385024055413078 14.965963937439383
Pb 16.42318429826725 11.146611490218923 12.897089497190526
Pb 12.483360695684283 14.005379864738094 8.179766648065385
Pb 15.664149017054704 13.192512437595235 15.489919570547777
Pb 11.535052000619789 16.809380856902973 12.785677481388108
Pb 13.253374583388233 11.447763452869635 13.643759853126417
Pb 10.814830389207572 16.375878438439145 9.659866049245583
Pb 12.600770616085825 12.388012361363817 16.706780194401073
Pb 8.77549463116291 15.170424232521917 11.898569949393332
Pb 14.260515418548039 9.593726846412489 10.881402195047164
Pb 10.295352865041645 14.201047858288335 14.715247597921111
Pb 11.951717519566834 13.749916882666357 11.616193886904748
Pb 15.284804742804702 10.1554010175417 16.1101185187116
Pb 9.416267317275764 13.458202960425798 9.175491442240967
Pb 11.637990467583968 11.077624494559416 9.58329965628853
Pb 10.099990976940852 10.924270184274329 15.033666451098528
Pb 9.1970821146098 11.846779575134926 12.016846627826562
Pb 11.419810390679359 8.885648673289023 12.632665010351298
Pb 14.518348844147583 8.165882048625623 13.689815756727022
Pb 12.344989707075253 8.855599135665734 15.845494358540638
