20
Energy = -64.67654489 eV
Pb 12.788998219212544 12.810817384911575 8.154057186076267
Pb 10.220914144652319 13.831392517863504 9.806568191294037
Pb 15.715144379280597 13.557767289651325 9.040455081037322
Pb 14.638223729377094 10.527035536049107 9.41446741841491
Pb 16.08183119651726 15.336369381598079 12.028265227732017
Pb 11.37438739916514 10.799260215152419 10.427086846163412
Pb 15.400331241750182 12.181621989806038 12.117770007891464
Pb 13.206054907224845 14.221440478226743 11.063566264363539
Pb 13.674774937101052 9.504295628502064 12.38048517470455
Pb 9.046368423890955 12.551407705224575 12.48206451452277
Pb 10.483103617944934 9.950517078296858 13.507759427658998
Pb 13.437980268600091 16.664563372798664 13.385486815266034
Pb 12.477908288420256 12.60129488007563 13.825991701207714
Pb 10.590293241794368 15.420146699528315 12.77296417655795
Pb 15.0727549865427 11.11435611097317 15.251912150558242
Pb 15.103287719333107 14.432705980573113 15.122089937354211
Pb 12.132633089481649 10.046244221559277 16.248521736524992
Pb 10.010336546979731 12.50571800676336 15.950748814740066
Pb 11.785888602826212 15.358690274315226 15.919192838952155
Pb 12.999686669516416 12.825256857743092 17.341448098591535
