20
Energy = -64.97052261 eV
Pb 13.939572524387358 12.72836144512018 8.250188725299099
Pb 13.005726097218716 15.693200201874495 8.9435140574499
Pb 12.736426383307604 10.024918610035249 9.594233609937891
Pb 9.940540726195414 15.465827210706154 10.148474242316095
Pb 11.529652606801696 12.846993614452739 10.366135876371317
Pb 15.441649474850497 14.189360392949645 10.834784439581691
Pb 8.567756418611461 12.812252127803973 11.714887699728598
Pb 10.541290462639209 10.221627500285523 12.169762055815491
Pb 15.652275448608952 10.976871039301404 10.290684944690772
Pb 12.647632726681598 15.35433010976788 12.105455066136173
Pb 9.71400854582363 12.367043347250865 14.719201117952416
Pb 14.01464737545006 9.240056286046114 12.782014977005138
Pb 12.948073850622562 12.382650668686194 13.364446703475616
Pb 16.131714658475023 11.746964417176 13.405165040080751
Pb 11.952333445117953 14.838833360916388 15.365787213229769
Pb 9.463442398737156 15.4400244803617 13.289269221950637
Pb 11.622560223788712 9.487011443383771 15.195340500718553
Pb 14.84002621806932 13.439721239635707 15.927991951508327
Pb 14.626298861945324 10.218471410237765 15.951807607581483
Pb 12.152435477803047 11.993545019143799 17.048918874305283
