24
Energy = -78.39994737 eV
Pb 12.984827300106996 15.643106624295603 13.406856931827651
Pb 8.396821776264343 12.764867147251913 12.652422111241492
Pb 13.131279459795078 14.715468612855007 10.062407410099507
Pb 11.59075275026339 12.73735562859407 13.733570853193633
Pb 12.097967472982434 8.469687046106706 12.245253199781782
Pb 9.11827973248365 12.900255303266002 15.958937783371915
Pb 10.660601462183095 14.245257252685072 7.78523665848024
Pb 14.56455963858075 13.094160078847981 15.33291677529127
Pb 13.725542930533381 9.65282137441245 14.801503816856032
Pb 9.98086634065711 15.326144369251024 10.77697588845124
Pb 16.60555168143389 11.209284551967617 13.446505779119612
Pb 13.118623687703506 12.03774660072772 8.10243100602742
Pb 15.543545494599966 14.054025064064561 12.161493190215722
Pb 11.779340225696652 14.665746257003775 16.52056680101042
Pb 16.463633562827123 10.615879241193653 10.22469628343636
Pb 15.491086999075943 8.388707576130075 12.334179555033899
Pb 10.120732168719103 9.971305541456195 14.462776360612063
Pb 8.03456258131224 13.121963032294543 9.161871696838915
Pb 13.834917476686533 8.964039688118817 9.530211603110686
Pb 13.720393958975245 11.357923039978383 11.704210555453272
Pb 11.867010093704135 11.460496546136685 16.860104807442365
Pb 9.70504005284047 15.496370529359364 14.125197839703135
Pb 10.778196399339926 11.969123006418268 10.446939887063989
Pb 9.955092604479741 11.192986716262293 7.506877110134265
