20
Energy = -64.59930191 eV
Pb 13.609183933425575 13.113920004602138 9.306441095435945
Pb 10.45796410929648 12.83757249518453 9.660011692160591
Pb 11.73060703468196 15.841097947873108 9.725905472329835
Pb 16.52368066326716 13.46215456963559 10.560238436009188
Pb 12.107967318090264 10.227701826920875 10.574488147539256
Pb 14.574759454977029 15.884779840630939 11.409510440421094
Pb 9.365113300271286 14.937195072123972 11.842298632022349
Pb 15.326956753981776 10.723150141902611 11.36571450075692
Pb 12.3466647244395 13.664675298379008 12.47041151793267
Pb 13.67444479467534 8.404435704037382 12.948980602139644
Pb 11.72674030338237 10.770236346310192 13.660833626827783
Pb 10.468991075470916 15.144227382839418 14.840888219480515
Pb 15.902737761747476 13.447380216961093 13.670807429295406
Pb 13.80162142291683 16.00395772442604 14.739290237058698
Pb 11.683106752478766 17.208091101089533 12.575061033977057
Pb 15.826831028939946 10.243606798961876 14.547532995994528
Pb 13.113547015742364 9.223805718133034 16.023925410025118
Pb 10.93238937163937 11.885191124283944 16.412567681037064
Pb 14.317578182067471 12.30833036916632 16.369233275088167
Pb 12.423694352199483 14.583069670229344 17.21043890815956
