28
Energy = -92.18451094 eV
Pb 16.499162406450626 13.2934429751386 10.446432601898985
Pb 18.24664323576937 11.815700125317226 12.772891979165639
Pb 15.22745164916637 10.427443149860773 11.130833257144888
Pb 12.016081733696156 14.562966528131195 9.731497372814637
Pb 12.40901541273828 11.36198551154957 9.763477013545572
Pb 14.761596169878716 16.020172687777528 11.074451237138263
Pb 17.745595361595974 15.35013961143212 12.717547847303303
Pb 15.251426195433174 9.811844821884518 14.388103170000258
Pb 19.35112298131306 13.772497358211067 15.208792926302435
Pb 17.869578627391117 10.914526229376321 16.000582434490383
Pb 13.789472899025622 13.083373521353915 12.230564239652566
Pb 15.936662364923029 13.316440555974497 14.682938442916583
Pb 9.23968714112957 12.162008253149937 10.193407323317018
Pb 14.464267277551745 16.482652782840322 14.236750638855657
Pb 11.55538682829686 16.953722563556596 12.295688889068277
Pb 10.690535038410825 13.793728011480997 12.70009844487761
Pb 14.839416627689634 11.558298531419767 17.27029899776298
Pb 17.383545322963794 13.579361231281439 17.79417344778934
Pb 12.343353712313727 9.909023462576549 12.666339592966024
Pb 17.2679157057671 16.242754006333207 15.928211466381807
Pb 12.238141004346684 12.228018720968402 15.182755799849573
Pb 11.425421228928602 15.696021468281659 15.370632630541895
Pb 8.941008644158767 15.614899122507582 10.537155498221841
Pb 9.307440345104277 10.960766535265142 13.307853036425437
Pb 14.372442291422113 14.819342937472548 17.150721338030102
Pb 7.290483958757068 13.54667310504493 12.46090333541672
Pb 8.573784952135654 16.2296785992906 13.73504219403493
Pb 8.855052610741279 13.419245414600573 15.445363994226298
