21
Energy = -67.30036174 eV
Pb 11.818709724967182 12.48907545663747 8.839283265151806
Pb 9.264436403928 13.047833139729478 14.19235243452187
Pb 10.636388087756895 10.0463325152514 13.949584886460148
Pb 12.25791836567012 9.68929896491085 10.552045996852195
Pb 13.149142636565703 8.03797482347267 13.255661195159707
Pb 15.519972264310821 9.533719647497549 11.301269324478268
Pb 15.907350047200808 9.461112889276249 14.423011916485658
Pb 13.263821712235583 10.031321071258605 16.029606204011394
Pb 13.559879039652078 11.388746469783982 13.098802558321452
Pb 14.822875275017232 12.607859981232085 9.788049047672159
Pb 11.904628649489224 13.25615280427519 15.90300996656407
Pb 10.490304416980354 12.767439644664128 11.492865706728873
Pb 10.600828986108514 15.948360586291223 13.319619860886862
Pb 12.219983902119365 15.592416007164308 9.921970378130746
Pb 13.544343366456545 14.495007250155405 12.771598165313025
Pb 15.47827010662128 15.946663262066071 10.613813888937242
Pb 13.223446028345741 16.44493742314941 15.341112108159425
Pb 13.085878892887669 17.797412782997565 12.206131077548962
Pb 15.860414871294081 16.692241400297803 13.645977288602797
Pb 15.033109978500496 13.217559500946708 15.500341632768087
Pb 16.48794515512111 12.902889769613394 12.450319075749743
