25
Energy = -82.02635005 eV
Pb 12.994839609897236 11.932243486271613 8.705744565080515
Pb 11.330765886714152 9.168779269338449 10.03270651014436
Pb 14.423071044253428 8.672852329094713 9.39253803572598
Pb 11.655427911010351 14.91871086040908 9.76150525407578
Pb 16.283725174715244 11.291770689878746 9.735407477997713
Pb 14.991160068116482 14.062711728557614 10.363090138727857
Pb 9.966868909652499 12.09026749787562 10.058999321997002
Pb 14.012569276508394 16.89058746120809 10.877672910006556
Pb 13.323825066144602 7.820720032230108 12.350347746658194
Pb 13.376128876429753 11.003845988130294 11.916420834370792
Pb 16.34098310602747 8.95241640243284 11.950750080923607
Pb 8.996240279679034 14.887308696836238 12.02380579186723
Pb 11.564696509208408 17.02279175648274 12.72120399803413
Pb 7.53673010678902 11.924233051958614 11.987255289650793
Pb 11.833190002007731 13.640923006803527 13.386047885395078
Pb 16.4516410677697 12.213263381508686 12.974730374726922
Pb 15.071114213344867 15.323488451274953 13.539897471741238
Pb 9.801112675273135 9.913172564177799 12.809258412349447
Pb 9.658583736187198 15.804738570805362 15.084102284012054
Pb 14.760212653202055 9.785726140897602 14.645617879860339
Pb 11.611661458752108 10.623864772016084 15.443675091662364
Pb 8.805803291771634 12.654917538195042 14.788763038752814
Pb 12.780133893078403 15.987647268033577 15.745003392051432
Pb 14.177348892074647 12.872062545565655 15.68323301603736
Pb 11.137704677621493 13.426494896245709 16.907761584380083
