20
Energy = -64.40785596 eV
Pb 12.074497508865013 13.299346512582039 16.743724436428096
Pb 12.315252393661584 17.232325590672836 12.942133660601787
Pb 12.273381323770751 11.20819881440206 11.152609091672426
Pb 10.271108230847215 15.835362477857506 15.546524658186454
Pb 12.506218708049445 13.775395846667491 13.65128193313449
Pb 12.561182065966612 14.634052732199107 10.627351015765578
Pb 9.590662308171613 12.802421137653889 14.662580489852418
Pb 16.473396463893017 16.211570118796132 16.299162719169463
Pb 13.331058016061354 16.407814585290883 16.088197407103948
Pb 15.103384933119392 9.905319042790392 10.544229679873869
Pb 14.43270323031469 10.353447713651702 13.776337414654348
Pb 15.342362740926774 17.857523535053247 13.807452371136296
Pb 17.196003144554865 15.226713493688136 13.387427919381272
Pb 9.86806880691351 15.20089690215179 12.385315012213036
Pb 11.406212477162137 10.25453734491251 14.283803765307237
Pb 15.244512202933876 13.38677784291866 15.34351920640212
Pb 12.633202689101267 8.199500475580864 11.837106018422304
Pb 15.23166396295663 16.326852366487007 11.03975469925703
Pb 15.44296171572187 7.5314030846764535 12.683300493803026
Pb 15.391275104113635 13.03964840907286 11.88729603474077
