22
Energy = -70.40193199 eV
Pb 17.762574578124116 13.733907916593855 17.393096381528792
Pb 10.29603853554159 12.616302088200012 15.639793325577093
Pb 8.690133660345936 15.234700168070638 15.749170306601506
Pb 12.413024439153386 12.275070620875326 18.23993086528647
Pb 13.9361555909574 15.638704832369296 12.052547396917308
Pb 11.315431548100117 15.154426601274206 17.463238243530807
Pb 16.960802296382404 14.854269019995499 11.00391253542458
Pb 13.069395241906163 11.10465094763959 10.022503387142152
Pb 11.90886974940517 12.907305123484301 12.302858943824024
Pb 16.665688971646052 16.680422481868348 17.44793303535776
Pb 16.33288530395797 15.132317222407536 14.604052490632931
Pb 13.59548939893914 13.229728077986483 15.245312067936162
Pb 11.08556154298236 15.587706244819788 13.922063338236253
Pb 17.06754330360015 11.862122126237255 14.638559028485151
Pb 14.66598370122509 14.542563931219776 18.402651910371674
Pb 15.041456524849936 16.052509627247833 8.917783534015216
Pb 13.812163283308715 16.650680820628125 15.653637551305694
Pb 15.479937512081271 11.492245097998023 17.403099417351598
Pb 12.491517226588803 14.232259669944872 9.337218225663072
Pb 15.163210907315309 12.505100473271433 12.1406055237843
Pb 15.385548039750173 12.818379169435328 8.837470358425907
Pb 18.916934901240737 14.154305659544853 13.374501425515804
