28
Energy = -91.76527032 eV
Pb 0.7227201452667499 13.598300296261973 13.146774487208045
Pb 18.96279786332824 16.54327761419328 12.209726260821258
Pb 15.763994594600701 18.815489450005046 17.62586410171331
Pb 12.598360602249615 15.953625231140228 14.00133317478119
Pb 10.556754377105609 15.139010371520326 16.582383643797137
Pb 14.438625063024775 17.034364579857886 0.41966178661824677
Pb 0.7357957134269943 15.361559845738894 17.998046496417864
Pb 1.539196860172421 16.24741073724951 14.853720918989351
Pb 12.047221872565752 12.598410239162458 18.198420969706312
Pb 0.8678283128744008 12.808197000371736 16.199837140531724
Pb 14.28900459934128 15.132427575659205 16.74876903723029
Pb 17.632609883426152 11.8930330680855 14.686599550984905
Pb 12.043025837480352 12.790300389871332 14.948943162605953
Pb 15.445767208217463 16.38910301965815 12.229575068499374
Pb 14.828793305000696 11.722099917292871 16.658052829875107
Pb 0.3565355123970487 19.132537948231978 14.181505049082302
Pb 14.86589753955339 13.634811590308438 0.09636276624551134
Pb 12.431201216113687 17.794276024672524 17.00390605192271
Pb 17.79488188197101 15.25044686306612 15.296746084218276
Pb 17.219390249986073 0.9135239316813586 15.320752631331713
Pb 16.95134661892176 19.132901477775416 12.452531553937186
Pb 19.02954676055174 18.27705423999352 17.324763552586354
Pb 17.353402461606933 16.113664848550712 19.171433940445393
Pb 14.747695937011736 13.151285884228908 13.495472260178444
Pb 11.784420709823344 15.510785982688674 -0.04389463476793833
Pb 17.31875944803925 13.70327085310495 11.838701720427506
Pb 14.45010994193209 18.81050452502951 14.456689111166588
Pb 17.79109640167911 12.869646653581613 18.06948857043022
