25
Energy = -81.62604477 eV
Pb 10.553321134299487 9.729663186912976 10.950999120754492
Pb 14.225719806541758 15.111477818326334 9.375325193413918
Pb 12.356398470379093 12.05900274527758 9.48436849655643
Pb 9.37095161492376 12.788176169399259 11.176812252119143
Pb 12.520490295436321 17.430626415031256 10.975247685627206
Pb 10.954835571486973 15.040747639442204 9.479875163710846
Pb 15.505654141659464 12.070340870187051 10.381098060906947
Pb 17.206303400630073 14.73975944855129 10.438995195761919
Pb 12.877562640537509 14.229883268528068 12.410551170765876
Pb 8.862069655949654 10.498444523762265 13.578727366182925
Pb 15.384422754557978 16.621949053944792 12.36177112742085
Pb 13.645101538572094 9.4409211082686 11.549604486153312
Pb 16.625175942470424 13.521535704115074 13.299642769475307
Pb 11.365594112269955 8.398101391302005 13.890980704200201
Pb 12.73687592707556 17.406837752551198 14.157084822168438
Pb 11.92370659532054 11.679439951057905 14.173311825104488
Pb 14.711774860985125 15.047714466652309 15.476047605675284
Pb 16.45255632703191 10.375764355284545 12.902884819139128
Pb 9.98885452747146 16.023119297338333 12.571733888570929
Pb 8.941658325416558 13.443954656537981 14.371361919146565
Pb 15.466404258930254 11.444967369203694 15.84129203589855
Pb 14.550920323908137 8.435686355225135 14.594908363615627
Pb 12.578012401028387 9.752063733779451 16.702493956485906
Pb 11.336002571440007 15.021461756323413 15.721628582041228
Pb 12.992287864571416 12.821016025890714 17.26590845199823
