29
Energy = -95.18570187 eV
Pb 7.549689201747831 11.741499448007385 12.300870803500283
Pb 9.758678557413706 10.500367053462742 14.72880060522623
Pb 8.543096999022959 11.98760210506956 9.276898635909653
Pb 8.265281389619286 14.651747532453573 11.084486241721583
Pb 11.530067051324636 12.600324162656781 16.55757517318706
Pb 9.84730872383977 9.530175680484575 11.242578589161512
Pb 9.291814908939758 14.007566637884702 14.318999208549457
Pb 12.2914340400171 9.293742354792297 16.68205786385154
Pb 13.347702653927362 9.054598123637891 10.629093280146302
Pb 10.737560180718903 12.50760679570627 11.714339286543526
Pb 11.83625459945587 11.295414654505304 8.735617298207478
Pb 12.015654793904249 8.00450873469997 13.713317142745753
Pb 12.933532837592836 11.02767298231264 13.83634138897623
Pb 11.045193608223569 14.656406668924527 9.325960514229752
Pb 14.120592960696726 12.385854373825063 11.114456575560753
Pb 11.24023620524978 16.453287620310615 15.634571651370646
Pb 10.853942442006849 16.73497997437394 12.34240284324264
Pb 15.176257070113332 10.856182759644815 8.227611724010098
Pb 12.749968102704992 14.365229416696891 13.61398887002893
Pb 14.292103694434335 13.9139773274059 8.311307122843088
Pb 14.970112258902793 8.779398245001323 14.932306508693221
Pb 16.50132726057511 9.85167893705247 10.968412373242483
Pb 13.791740760982226 16.14860660274191 10.986178605692695
Pb 14.653557689380548 11.610653618976876 16.501304953550942
Pb 14.274983795112185 15.326314482159601 16.245358933337027
Pb 16.380462164650663 11.706960103704924 13.574647418513623
Pb 13.68583509662496 17.60072493549278 14.003917259070533
Pb 17.037596063831806 12.861671025507214 9.900770277650755
Pb 15.876579951786693 15.093251472896243 13.419402763918121
