28
Energy = -90.90742934 eV
Pb 11.498141084891284 17.401730004607202 12.50423892111363
Pb 13.790691018728872 17.744486763252937 9.350549429039395
Pb 9.39140753106104 15.082493952797202 11.74218541357194
Pb 12.079907684682661 15.304043105211633 9.946580496813406
Pb 12.999765307572547 16.869400798620738 15.568679328633923
Pb 10.04633085362843 15.482668399776266 14.92164186780254
Pb 10.56387267762306 12.528430043812778 10.29806887747784
Pb 14.527567866035449 16.782439289363854 12.285369862001957
Pb 14.782660297068157 13.305843605541716 12.504385761843958
Pb 14.365536145524104 16.623484182057293 18.53962047437161
Pb 10.109041170726625 12.444586297076215 13.593654059540652
Pb 11.420685709390403 15.193970357861506 18.093775253480985
Pb 15.3893837958048 14.958931415350364 9.531099185854835
Pb 15.982812639655274 15.880247056152028 15.68377310678176
Pb 12.334905917531154 10.444475178427139 12.016774875665316
Pb 13.641858375086324 12.19733699422534 9.378633460068578
Pb 13.606207498197662 14.254391509408583 20.381534479696818
Pb 17.40616103961718 15.542085833475651 11.900591316112559
Pb 17.75695801166197 12.387052827330185 11.305062099830206
Pb 15.514031174031444 10.112423042168503 11.174124774583584
Pb 11.962099506265709 10.572048196366556 15.495127678528327
Pb 12.880877386543213 12.264855870761004 18.160734221577545
Pb 14.521688996937039 9.228269580387412 14.142480326523287
Pb 17.942184895459995 13.56218098895838 14.39711076466302
Pb 16.053137682732753 13.845796056652816 18.312669379294174
Pb 12.730626202922872 13.771459646346827 15.25769716364478
Pb 15.372487980225948 11.987864962900009 15.826867162842506
Pb 17.491167186638265 10.3891996773541 13.849165894884944
