28
Energy = -91.58699686 eV
Pb 9.29602230703006 15.176800168794768 12.280644333430862
Pb 7.603770378071708 13.002270343591135 14.44040261881929
Pb 12.27254426870888 16.2503043196029 11.125163582712702
Pb 15.784484412788444 15.848755167384702 11.574320891198893
Pb 8.750243870566294 11.866921803680224 11.70904227656556
Pb 9.226783659641566 15.348838924512041 15.781997186631832
Pb 14.118861634855397 14.67805076111918 9.001588108943714
Pb 11.004420459600917 13.570188530731196 9.758156087505116
Pb 14.120478641339597 18.069618448167482 13.052821289986836
Pb 9.233292894254305 10.186952772340307 14.795509389261595
Pb 11.174805142197474 12.950057071821053 13.895625126340558
Pb 11.6349645971164 16.719905736070217 14.36356480527465
Pb 13.916468589894363 12.781805556091081 11.813142994289423
Pb 9.541172399792131 12.415833883183659 17.087812782009323
Pb 12.499113258432752 9.065273417446845 13.502973824303798
Pb 14.18778825311172 11.480790083226088 8.570834831903777
Pb 11.628044438231136 10.458304632806843 10.21462759298595
Pb 14.86903312933696 15.695084896178823 14.948741383920726
Pb 9.803172248174425 8.750443331382563 12.008150812268704
Pb 16.872539125084497 13.028544105698684 9.938157251798776
Pb 12.280324536346104 10.960854576639251 16.330261544599296
Pb 12.240001309859066 14.371299404996243 16.861922954302635
Pb 16.91696995014499 13.355209953305359 13.40498869469134
Pb 15.031311178984938 12.750980715909003 16.07243658628335
Pb 14.628124443500994 9.163265355346644 11.01954150530835
Pb 16.907071900910214 9.8516758932716 8.929332667315078
Pb 15.3969196431049 10.246612198380193 14.160754521515052
Pb 17.594521039143423 10.488605658545724 11.890732066056275
