24
Energy = -78.36954627 eV
Pb 9.28111473107022 7.268616631023181 12.38831383060629
Pb 10.189784241178458 7.95911896656147 15.260504322203865
Pb 8.132928825487973 11.645144229320573 10.706007581967281
Pb 9.11490141913406 10.34216107550697 13.467104064072718
Pb 10.417771894699044 9.418888945143756 10.22441247055303
Pb 12.208628540908459 8.432226226722511 12.741268000249258
Pb 7.8381909282002225 13.993812251632518 13.050170552178587
Pb 11.676750484447208 10.853448197685944 15.381568431975452
Pb 13.811119740038393 10.07293455532045 8.871503841801628
Pb 10.925622089826486 12.583391624553697 9.014355226171675
Pb 8.682812544293755 14.908013218356922 10.046661714922172
Pb 10.872348330127911 13.285376642572801 12.15488180424042
Pb 14.570124351734956 9.793911009015666 14.436268423052296
Pb 15.76988187851881 9.167992557490928 11.394447793267213
Pb 9.754923038869412 16.55388939549205 12.607362083119813
Pb 13.635938333385656 11.602123058822954 11.577336903369458
Pb 10.462953112734368 14.348334374544498 15.054516050148443
Pb 14.10641169302347 13.430212525418247 8.611741639782538
Pb 14.018130246264851 13.146348098612279 14.375914970967726
Pb 11.899039433478473 15.714350579694994 10.100010751527678
Pb 16.570316726473873 11.808263500614077 9.71443583062969
Pb 16.795241512139402 11.839405354953591 12.934446952158659
Pb 12.789693400779226 16.019339041076847 13.262376988076754
Pb 15.371972704625367 14.458778899142889 11.480102135637017
