29
Energy = -94.49986391 eV
Pb 9.606796550298686 15.298007403815454 16.046665168283628
Pb 7.1677157590856675 13.788098020519806 14.888353785959806
Pb 8.075896035236955 16.03686027726293 12.907319700838965
Pb 11.22938671510143 12.427855393976365 17.088630220645555
Pb 12.61085462570207 14.88681378868055 15.008221754192986
Pb 11.198777342354834 16.08752910057649 12.24183585047347
Pb 10.813775613855634 9.750576049589045 15.187135466868359
Pb 7.564347268140449 12.912689932908798 11.816954437527166
Pb 10.118621514540186 12.885147095632677 13.879368209646948
Pb 14.294265389896143 14.51690670830289 11.581785947867465
Pb 14.45252941061602 12.922846914164863 17.116132872491264
Pb 8.94920579426041 15.154454737997588 9.664620321469622
Pb 13.354714428895994 11.812618632884426 14.275907532831608
Pb 13.404914940459447 9.915759561951958 17.070626165477336
Pb 16.156444363944104 10.458741556641442 15.311107772565778
Pb 8.88802318167493 11.757472034604934 9.089470400552859
Pb 11.366954903408345 12.95123140750834 10.746757494197075
Pb 12.228885628013346 15.843842084552792 9.19315695465973
Pb 14.210783821265796 11.285757676742458 11.198756660799488
Pb 13.776249773820965 8.49919717700989 13.9965574667222
Pb 11.188104910237568 9.723220390633628 11.844198250917925
Pb 10.91084681160503 13.503551188084929 7.415143995328215
Pb 16.72704119579492 12.792434042086601 13.122346398503312
Pb 16.91945819133019 9.61752916563009 11.825659360376742
Pb 17.069003746879073 12.457721815975917 9.963733198064071
Pb 12.246961194773784 10.368220744063288 8.58866823098256
Pb 14.154083938275681 13.058699939460272 8.333463977438962
Pb 13.942458888950265 8.105278310172658 10.707224487035825
Pb 15.71727359943633 9.824948449318482 8.638371733406043
