22
Energy = -70.66932581 eV
Pb 10.703694265373146 12.374628611206134 15.252140286486203
Pb 13.165465360671986 10.339758858380574 15.337362913045705
Pb 13.815116769109604 9.04109752285952 12.531276438314663
Pb 11.358696073103346 10.933729967552633 12.421800287674948
Pb 12.627712737288109 14.19857292983303 8.893741122701542
Pb 13.913337009793995 13.629969322585286 14.820675962444374
Pb 16.16862624471923 10.657016102835863 13.586764724538082
Pb 15.47417711115807 14.99907363467992 10.157058523456502
Pb 12.660897538863606 18.115024416264518 13.718611930381346
Pb 12.651856203113903 16.344959149910476 11.155193327183573
Pb 13.799073746516127 12.815393193744708 11.681899615335768
Pb 10.571431938539288 15.292169104280813 13.845858525649666
Pb 10.72722123903907 17.416210329064008 16.104266094747874
Pb 18.422963239975815 12.041404141611219 15.092870209859335
Pb 15.80077082341998 11.631882616263624 16.827173230413777
Pb 14.69251919823587 14.314650054717326 18.0562347879926
Pb 17.212561855292975 13.609301659133862 12.530570261462337
Pb 16.967926325371472 14.870512861140078 15.66184135767333
Pb 15.605277037227347 16.587166555146112 13.15826810519926
Pb 11.73927263885307 14.611686145619998 17.211589265566246
Pb 14.107090749356194 16.93024335342158 16.276368124776468
Pb 10.434822835442345 13.806672944205888 11.070425378209883
