29
Energy = -94.59815919 eV
Pb 16.834725866098978 9.82783487186896 10.043334300757728
Pb 17.23823603945963 9.943615301273825 13.060326785130512
Pb 15.443542519422975 12.284702076334723 14.427917295502118
Pb 14.32247085315505 8.818866240326559 14.679326131178223
Pb 14.365207986189125 17.650978278323713 15.695122174554184
Pb 16.70940744996489 12.793387987732642 11.488773654695231
Pb 15.119822573422036 12.137701603922801 8.700267604844878
Pb 14.983943331740301 15.57260643506159 9.604244103545593
Pb 15.480016061868902 16.38546592504365 12.846752310340733
Pb 14.92817162324398 10.646062038911337 17.163197935536925
Pb 12.267926901931506 11.921334531382545 18.422870343296395
Pb 15.079788078492065 19.612410217391556 13.451897482623492
Pb 13.107871504415025 13.558404125100362 11.694536944172038
Pb 14.355880784684574 18.625962937156736 10.661069060663644
Pb 12.347522313758 17.701835023775413 13.212717155122402
Pb 13.225758734012254 14.809701055382282 14.986598117659145
Pb 14.172021304019356 10.228227591341986 11.735010774748863
Pb 11.988575440464853 11.091823575057978 9.398509097435126
Pb 12.141841143596647 11.598635280908178 15.045521398829713
Pb 12.525508659532903 14.03981905637887 8.150335926726859
Pb 11.84833428574566 16.554425083933893 10.153027482725532
Pb 10.329951169392828 13.842611706264108 16.63879432325269
Pb 10.329284419959434 14.674384911373965 13.313961121938666
Pb 10.232048098974063 11.344313851352918 12.006776880479757
Pb 9.51669666182544 10.593619424168638 17.182888274922462
Pb 8.528261222752 12.158167691819571 14.571245523011315
Pb 9.928353668593099 13.846169961110082 10.080530210768023
Pb 12.232657973884669 8.83051619600649 17.176480306367047
Pb 10.476000480454804 8.966244172349363 14.467794430225801
