22
Energy = -71.28642468 eV
Pb 9.616903092607789 11.127538764976055 14.107451980626463
Pb 10.341012757480666 13.539061183586638 16.11040319644223
Pb 10.180778481159138 11.279465762198095 10.970824286740154
Pb 12.434419010785701 12.275527370111657 8.60480141369364
Pb 12.237062223966362 9.257776851988483 13.203998587026245
Pb 11.969809057430982 10.557014572380815 16.13549077000816
Pb 10.089060219266933 14.058906343174261 12.85588883844816
Pb 13.078233877024422 12.31661699335024 11.793365676493737
Pb 12.734645533435609 9.339768187641631 9.911463503684088
Pb 15.297225727956747 9.406984886451923 11.909553998125414
Pb 12.000128455985564 16.11342094679379 16.97489080976441
Pb 14.578727882944204 11.48132030174104 14.589350846475964
Pb 15.379495654540776 11.169375007212944 9.282667307971032
Pb 13.178679579946834 17.796097384918845 14.392669381712277
Pb 13.595597814422787 13.343097231159645 17.45957973747377
Pb 12.527901557853271 16.14538111964717 11.613487105467778
Pb 16.518348435343093 12.564597385639653 12.103710902588476
Pb 13.03553258900911 14.399691403789689 14.334846578571767
Pb 14.716718457034665 14.338444375854912 9.950078094311
Pb 15.205923436111098 15.835738259069817 16.49927605659168
Pb 15.582308655394849 16.03418467801568 12.761775411467909
Pb 16.255414151664787 18.17391764166181 14.98835216768108
