27
Energy = -88.44157645 eV
Pb 8.908749630224015 11.887977067448016 16.59579035664791
Pb 8.661353683731765 13.706691573045113 13.860743506734122
Pb 9.282223960697815 14.990325823566689 16.897003184924493
Pb 9.929824578952212 10.809258773582403 13.472283265244934
Pb 10.044657413512661 16.620760089108458 14.204305213811432
Pb 11.58987628900364 10.168350971124164 16.15680901490322
Pb 11.745423074317992 13.07534710716462 17.9135582784172
Pb 11.82800424015372 13.330534292192318 14.52547291229092
Pb 12.415641649844783 16.230825466096682 16.55792246555852
Pb 14.615962130439843 11.291305669271386 16.13413415990766
Pb 13.209455592916933 10.260225555666327 13.272631071800996
Pb 11.14266852370494 15.23284901445953 11.403711219800734
Pb 12.035160136668583 12.186567877273292 10.950973136498884
Pb 15.176375429556554 11.417845398935405 10.578397556856363
Pb 14.738586839914388 13.70124490647902 13.07563259686993
Pb 14.341102733168654 14.441169099594422 9.766340212288377
Pb 13.143365894533257 17.30231303652688 10.191939116406738
Pb 13.006688898216042 17.32246685403573 13.390625430799199
Pb 14.823724167397472 14.28343889028569 17.40229292612371
Pb 16.643873322479834 10.850139601368442 13.600102620260508
Pb 17.282120171899816 13.478076779522917 15.487401255936643
Pb 15.728804141666444 16.48235170064487 15.11291420932399
Pb 18.29641298158847 11.000676964478176 10.828184974092483
Pb 17.622190970495282 14.223042823113621 10.483052852065539
Pb 15.914293961014252 16.897158692969253 11.737314689786484
Pb 19.354122281891218 12.915415025934122 12.964747221510512
Pb 18.439482819016654 15.813786463119566 13.355862068145658
