29
Energy = -95.55577926 eV
Pb 16.769786817271726 13.130700611422338 16.03470244970961
Pb 15.655327685648668 15.76566708918134 14.052019698536265
Pb 17.432375849385352 12.950912453919843 12.955531815375942
Pb 15.67335076766065 14.524591686065348 10.726256336012172
Pb 16.334346004041244 10.33374065106197 14.550577805224572
Pb 14.070385892727083 14.606896739741162 16.80269087817315
Pb 14.199965283825838 11.254627452822584 16.873254500150704
Pb 11.940401221970411 15.774241486538045 14.592156229592023
Pb 14.88307468082081 12.726646153679392 8.142174903851917
Pb 14.128677939876285 12.848390742613269 13.77618874364947
Pb 15.335247434023 10.989493881902302 11.07238670374027
Pb 12.868743272228961 15.52076620371905 8.793106932191941
Pb 13.422999440066107 16.599899843615116 11.82363745298526
Pb 13.353701513375666 9.126951996209144 14.061645830383256
Pb 12.351264070112487 12.68908581908334 10.416010323946354
Pb 11.118449745478847 13.216487637101693 16.608275210300317
Pb 11.815038597405513 8.992040994627871 11.163470025449604
Pb 10.026323487028966 8.35733288294501 14.005103918534216
Pb 13.050544936006851 10.045033795745752 8.342755058392681
Pb 11.038799277315736 11.582107821092933 13.31563393391103
Pb 11.080312740360622 10.017426138992704 16.44360641429606
Pb 10.33579578627882 15.630650257753132 11.551365661872797
Pb 9.040172455081917 14.290830448201156 14.24566745877732
Pb 11.963314520147984 12.706766454404749 6.949721622203707
Pb 8.538908772428007 9.795801678537716 11.65226778056631
Pb 9.751728623504757 14.2243223580806 8.640301292734943
Pb 8.30810540096344 11.058555148866276 14.793350615902012
Pb 9.896767225338019 10.873641103405795 8.741057064577344
Pb 8.303513186652038 12.968763051299232 11.286183004372324
