21
Energy = -68.51111251 eV
Pb 14.639380390566012 8.226802241974175 9.556328252517542
Pb 12.11132840246434 11.67962968066863 15.549810156937049
Pb 10.028895232646938 11.643748854712667 8.590205243081265
Pb 16.14882567551494 9.523550933109782 12.08236321498349
Pb 14.63510708528862 14.385153489583834 11.153636088593947
Pb 12.476843562366328 13.740817329791485 8.845682749922412
Pb 10.778454360348148 12.738457870781968 11.642018431535718
Pb 13.638352003351727 14.278382755902447 14.149830598253626
Pb 8.982031675579414 11.659926675849153 14.107320129490862
Pb 7.527932981250525 12.643591008363687 10.446015086559168
Pb 8.503458201862387 15.003234245903581 12.442771693498907
Pb 10.477969994899706 14.47143507901474 14.829313681585061
Pb 13.742026279229302 7.327389579359572 12.46651639882025
Pb 8.894491261767756 9.897552313067873 11.353547949010071
Pb 11.689412701168077 15.918322105604117 11.759748169233152
Pb 14.85328418304538 11.524268580256937 9.528926871687757
Pb 14.41837709290101 9.35051063728483 14.7831452153521
Pb 9.49511556077152 14.924348375885291 9.368981470946547
Pb 12.01375870902809 9.598970663639149 10.420511967686577
Pb 13.625084348080335 11.492949213757939 12.524980409650816
Pb 11.189922985120157 9.024629023938887 13.7002613003688
