21
Energy = -68.5079389 eV
Pb 14.361541158566395 14.114192076444123 11.242346464104687
Pb 14.24921508617155 10.681808288296963 10.88577352584705
Pb 14.502345863868172 11.445230269772104 13.970361852830463
Pb 12.364443503303358 16.41778911699817 12.45327561225758
Pb 11.746874168296436 15.211015927572168 9.541602243054395
Pb 12.644445619605667 12.384391572510319 8.59569003425254
Pb 13.568833589322569 14.505865610863472 14.614700825314083
Pb 15.931172816084073 8.071340401584294 10.074990526887065
Pb 14.85980680147075 8.255911119109015 13.043593468493173
Pb 13.691851891710657 9.080750960577866 8.161505153491627
Pb 9.292485933207635 15.924209908917426 11.446596936488955
Pb 11.337848638463102 12.877392090371552 12.32554419955684
Pb 9.195512048396512 12.96820888215903 9.67922335489811
Pb 10.24087836550088 14.836591765410635 14.789677224811134
Pb 11.98110100638835 11.88089148503893 15.779173142435244
Pb 10.898853260344714 9.815206808593452 9.809494306896248
Pb 12.849894321187433 7.33663194031976 10.731316968451075
Pb 11.681043988727401 9.46890343729501 13.309545182117583
Pb 7.936523464155757 13.508047626172646 12.815951081120023
Pb 8.683083937125899 10.459923540590786 12.00160747151664
Pb 8.957683603064314 11.578293265760564 15.051941036223765
