23
Energy = -73.05951304 eV
Pb 19.57872731952863 11.112141460904532 11.112638508194342
Pb 11.935478112351133 14.658584308448262 12.403994510925411
Pb 8.726566513054605 15.240787362627847 16.74971082463386
Pb 16.517646188547904 10.953303895127272 16.40708863169179
Pb 14.572747753704594 19.16183253396429 13.42286878708661
Pb 14.183080117015665 9.637678041035912 14.43692145727337
Pb 13.968355662798949 9.796680464207157 17.655991059720648
Pb 11.576800809860448 11.202277747659798 13.297210137535744
Pb 16.523598172032912 17.020266914964804 14.770631152752264
Pb 14.853074080504532 16.27965941850469 11.91668543674432
Pb 18.246625003933904 16.035107271944394 12.28405820419276
Pb 17.454409234839826 10.69604258617094 13.33393372768116
Pb 10.136058741265542 13.352997439197354 15.00284301022488
Pb 12.046758693669165 19.178784352497896 15.22591943874709
Pb 13.722899180025681 12.640356267223453 15.769547961952316
Pb 10.14663476004495 16.767417005404695 14.609944514234698
Pb 14.420145414288474 12.39803437183208 12.214014332768514
Pb 13.41925312382993 16.2439829911428 14.962913749392992
Pb 11.304984389660724 10.530882985160366 16.388259088263595
Pb 11.876958873796635 17.902826202184386 12.166901495636806
Pb 19.693435299431986 13.356678068977644 13.241555472262226
Pb 17.385431753598713 13.293677272624844 10.934434358510087
Pb 16.600923399919726 13.808429291646052 14.216856789664895
