21
Energy = -68.58212706 eV
Pb 10.401573410863513 11.811823174730979 6.4690512932871345
Pb 12.169922546386791 9.192654772470698 6.854324573044668
Pb 7.581489093250517 11.901621715258802 7.934629392678271
Pb 13.08274094450665 12.09107773146785 8.242079842649686
Pb 9.468256050899633 9.39889944085941 8.548483195911208
Pb 10.089620940479954 13.844582628990146 8.959347569233962
Pb 14.132531137968769 9.022218910111619 9.318852199663167
Pb 11.575621490003698 7.128896983550982 9.377519191893445
Pb 12.806839791027445 14.20314717450422 10.672603766779545
Pb 6.94004775097482 9.841453708329274 10.458960120780333
Pb 7.403738938221621 12.954955298208159 10.902990690511407
Pb 14.522102340990582 11.264491422580448 11.602896980054402
Pb 11.159372398802486 11.057446937909456 11.62649062442214
Pb 12.868094072912731 8.107661291716898 12.264586487227152
Pb 9.889094916725732 13.985254990777424 12.68239041397837
Pb 9.356983287590717 7.918433765528371 11.77700065320137
Pb 12.993934373732744 13.38642883166954 13.62248586927162
Pb 13.381065797091493 10.367656981621321 14.655306666872155
Pb 8.157306358048789 10.850030732672312 13.368371783009026
Pb 10.55324372345698 8.861481541206864 14.532254543582335
Pb 10.631326961227796 11.974688290998829 15.294280467112053
