26
Energy = -84.44083096 eV
Pb 13.82952612312727 12.364336441990236 19.65761453017729
Pb 13.27762674325812 15.32052076536668 18.97291665561517
Pb 12.553336730569924 12.28976678579211 16.889950349249112
Pb 15.872466223011589 13.618642088879595 17.66628056413393
Pb 10.56479967791254 14.917366070031862 16.89505625221781
Pb 12.283509536446225 17.681604510863547 17.15556745085587
Pb 17.5219831185271 13.83446132950122 14.818530743615693
Pb 15.430709399431002 11.1217226391901 15.327513117525838
Pb 15.527830431706054 16.818090466126215 17.22972865956549
Pb 10.75973215300894 12.573692862121513 11.975950294050298
Pb 12.392386149167644 10.778092364158177 14.041490640884735
Pb 9.11514243320302 14.518929507056813 14.057041560729372
Pb 13.579866389376472 14.94606195185989 15.305502036306795
Pb 14.033609398921739 12.984141625811477 12.450433428811976
Pb 17.9821473573494 11.125597325381282 13.229821262252962
Pb 15.947614889357812 15.458939356264064 12.722317125776128
Pb 10.321381739207553 15.71193853890392 11.50089211871663
Pb 10.988091604400003 17.222332001611232 14.212693856729167
Pb 14.242556433821239 18.024360015846963 14.506431881373706
Pb 15.131716349882744 9.777220218127136 12.251835785041463
Pb 18.468834219689608 13.803826053672282 11.475682446356059
Pb 15.80599486525597 14.161045596871142 9.65085521318028
Pb 17.234095441363568 11.211580235037536 10.052969460665565
Pb 14.01721148487873 11.364769361267717 9.68139404808991
Pb 13.420845120696754 16.852727373081446 11.349462141046725
Pb 12.375878151702732 14.197126680460787 9.600960542305856
