25
Energy = -81.20737585 eV
Pb 12.789941788469207 13.689048224195814 7.077280325692353
Pb 14.788459615387803 9.617958042934012 9.117881429713597
Pb 12.237077947696005 10.628637738132209 7.693743008347266
Pb 10.141757075999992 13.078969722507397 8.754097035289911
Pb 15.356013721201098 12.694303118682578 9.567052774951224
Pb 12.366013672671754 14.701866460546196 10.349721192224042
Pb 7.618909080514431 11.99337273682357 10.2339719060344
Pb 14.810016732182168 15.494899206379007 8.610965442517896
Pb 9.753221175711117 9.732518886034816 9.72156267794739
Pb 12.508135774689315 11.057719986498519 10.98859534255499
Pb 15.727792077172595 10.804643684924878 12.372701960217672
Pb 9.397191520507144 13.930659787923206 12.229237286912161
Pb 14.06325992729502 8.144737044162218 11.812847343246531
Pb 8.396422510299539 10.475488013232315 12.861010473058084
Pb 10.967841656672976 8.27327142653912 12.442809219444575
Pb 12.255519208828856 16.04263780788108 13.232325230816727
Pb 14.854095045281847 14.177807300369077 12.687471614973076
Pb 11.884892350963018 12.659004103399514 13.8134139619382
Pb 13.258931818272693 9.471056904688549 14.652705756236724
Pb 8.746470184504695 12.51983135457157 15.316208967168977
Pb 10.060167742329439 9.56590687574637 15.35555162290484
Pb 10.486440974906195 15.0277085627713 15.917635501240218
Pb 13.633112411675361 14.876053319680699 15.882317789905967
Pb 15.051896525290601 12.1600408000159 15.3123641399785
Pb 11.779299886030067 12.114739315913566 16.92940842123851
