23
Energy = -76.04113656 eV
Pb 16.03743729889145 17.816881914029985 13.080902940556165
Pb 17.636214459842794 16.042198670724268 16.99291480079871
Pb -0.9043019034480628 16.148771093670778 13.658564430456321
Pb 16.532112467487234 15.016463511374305 11.24949506433213
Pb 14.957698636076636 17.682602636953217 16.255544850430788
Pb 13.019272730681124 18.400877308662626 13.866810109314525
Pb 18.838041892098712 12.999149251716455 12.605841432471792
Pb 13.400343527479983 16.65201795507072 10.993362487797107
Pb -0.0818010078185793 13.772173986973096 15.69433507150547
Pb 16.276438249581087 14.178787769929517 14.66393517569587
Pb 17.863243314909273 11.04811239829288 15.056592688777105
Pb 10.445029600855063 16.881007497126518 12.96224392464827
Pb 10.75333448986714 14.148107109950942 11.287284054765696
Pb 17.212983235833214 12.812175406309834 17.73509302499915
Pb 13.745952897684967 13.342947019143736 10.689936238284105
Pb 13.150950876240662 14.899272222729591 13.752226853641954
Pb 15.801119666576591 11.598652499347525 12.566649043585164
Pb 14.727618181589817 11.454716723109161 15.930255563879978
Pb 11.667574377799655 16.37808623998836 16.254855869348493
Pb 14.470770456131554 14.701262507136109 17.68776777268363
Pb 9.792021756649735 14.006669469491213 14.271039917305567
Pb 12.099229082205243 11.801953729259026 13.253693225786721
Pb 11.909521075130531 13.047908514255852 16.41588721938989
