21
Energy = -68.16519196 eV
Pb 16.741053765654108 14.672434585628961 11.267913635890379
Pb 10.020147666825881 11.808000123489323 14.858769600744502
Pb 9.975805153046007 13.978098541408038 12.603723045994576
Pb 12.394943824452374 12.733131665241284 9.50709527099897
Pb 14.233732360582113 10.229086926298589 10.633747352253692
Pb 15.063434990044557 14.725773675285293 16.965573913790458
Pb 12.542219625650526 11.729254934732312 12.80090121784258
Pb 12.150546453311303 12.996018813250535 17.322082878418044
Pb 14.649511934977326 16.828712555166273 14.62150741997183
Pb 17.025803478406424 11.479800598764577 11.598523155141333
Pb 15.831327510445684 13.22881092462434 14.091230584926288
Pb 11.308493335333457 15.80279124305435 10.389035606515769
Pb 12.34312001132511 16.299756549710274 16.857527791106932
Pb 14.267438787026979 15.468470092293538 9.475984803587828
Pb 9.765351500893006 14.915015125860412 15.726848741965961
Pb 12.491519787817165 10.078524596097244 15.663174444308037
Pb 15.121253005172631 11.552955962070088 16.747882102840226
Pb 15.649708944496684 12.57450579501966 8.94106260729745
Pb 15.169140159550281 9.913080000138745 13.886050358477965
Pb 13.515179220984592 14.780451310811793 12.526555513962332
Pb 11.449877344246696 16.867068132769216 13.70864413833055
