28
Energy = -91.12281098 eV
Pb 10.386727928064392 16.953008085594117 12.068406290335593
Pb 11.584254080374057 16.678995645193968 15.105342433469236
Pb 14.913092272087683 16.3766071495524 14.832036234905818
Pb 13.33692517641274 18.183727230739624 12.54571111398113
Pb 15.713602392949047 16.157475959610263 11.413287592351711
Pb 12.79337255329123 16.5315131861718 9.845794273152386
Pb 17.05097862178165 13.856706197127302 13.689145082051711
Pb 12.884050450712747 14.825981143692452 12.441970446087133
Pb 16.230486224464066 14.063436540917506 16.9965699077743
Pb 8.363340639227385 15.733189683089456 14.426377209196106
Pb 12.961212387414825 14.48021788501974 17.658956219623928
Pb 9.783363879656818 14.635848550204424 17.14076169278705
Pb 11.177104086051077 11.630778572371558 16.448748946442027
Pb 7.9695481416558565 12.702460815547512 15.571661915190864
Pb 14.429799017987234 11.49375717152423 17.921944183930275
Pb 10.293025633638234 13.190856698046614 13.580885870335972
Pb 13.871563667710408 13.01552893391212 14.935336932597592
Pb 10.642635080599009 11.90803701628301 10.590060259552756
Pb 16.843783999795793 11.163439157967607 15.845332850602661
Pb 13.625669462384767 11.529681814985464 11.972388000425298
Pb 13.344549055744922 12.41086922560954 8.846250913028287
Pb 16.336209756616235 13.020178364402991 10.589637559719595
Pb 15.448653119450027 9.997375349507946 9.559028339636992
Pb 12.32509423624312 9.335739827051654 9.701296253219143
Pb 16.723298227435752 10.452123958663904 12.724174528681617
Pb 14.190155071919156 8.244176164784738 12.102793736501253
Pb 11.17047636454586 9.653240731911849 12.918320413525914
Pb 13.863434404154452 9.723178346895514 15.139586612610898
