24
Energy = -78.36401312 eV
Pb 12.57210553587416 19.10163638228446 13.502265054898338
Pb 14.198207673883577 17.400025603953054 15.553579396994275
Pb 11.326830122015574 16.94094867287396 11.403868278342452
Pb 14.934029481896886 17.32563500304912 12.32424165764081
Pb 10.970894764253353 16.587360917137776 14.671082069414075
Pb 13.760829014363287 15.747788480148339 9.631889936134924
Pb 9.56448537135478 12.573928193577892 12.05138673164145
Pb 13.123305184679518 14.532642938623157 16.39776904845031
Pb 11.421310847857963 13.581870787021282 9.71777071700456
Pb 12.849002280655222 14.486236418978914 12.760814590861193
Pb 10.11343517563076 13.45818778769197 14.991810771127714
Pb 16.42544752445308 14.731687635662082 11.320273331221923
Pb 11.900745434982701 11.707279336643571 16.979032645546763
Pb 14.56538660434003 12.520107724211151 9.806220089766587
Pb 10.058353488477513 9.884684408836359 13.692560305059411
Pb 12.942383241055738 11.330105164600324 13.296244222743077
Pb 15.013971416313316 11.50422295874203 15.838079721201542
Pb 16.404944246878728 11.689966477687966 12.798096293317876
Pb 15.882095535661987 14.754239474896627 14.521133423705756
Pb 11.471455978323386 10.30294824244906 10.455532497316604
Pb 12.588316029719374 8.90085652411154 15.666692583411011
Pb 14.70971060116467 9.485460427915942 10.888208516814696
Pb 15.348501004728119 8.759721505421703 13.979451217198115
Pb 12.463491985921507 7.931067750184805 12.574633001601148
