20
Energy = -64.77898461 eV
Pb 8.775077436403857 15.825716349632357 15.32529084859223
Pb 18.345266143681908 11.508841093814173 10.18762689434372
Pb 16.07941296934316 13.70115036966697 10.204291479643594
Pb 10.631866681836502 18.06244648780554 13.9104696691658
Pb 16.956080036833537 11.783674523021899 15.400932986946115
Pb 15.107912710761864 9.530034664306005 14.052419933700666
Pb 10.978380106702824 17.58023017935404 16.96727605753697
Pb 14.889860871090082 13.758678937134942 13.2834116598415
Pb 10.269674362665743 15.195135732059608 12.435343647813287
Pb 10.501065767338492 14.629735232114227 17.715036468629695
Pb 18.068985879014022 13.271102248562814 12.806914990496399
Pb 12.758555931736948 13.827173310614425 10.562815697179428
Pb 10.275417475441277 12.81743314601202 14.888059027959686
Pb 12.76948419417229 11.269387914514132 12.83794028291092
Pb 12.343720240517873 15.317962644369908 15.165015694514
Pb 15.36513918423335 10.545173525319376 10.88523635634799
Pb 13.28947557602191 16.44866374313356 12.401750013648822
Pb 10.159447253810441 12.158436852537974 11.610793619523042
Pb 18.064921857358677 9.98473348798906 12.902843958933092
Pb 13.661532519437445 12.075566756439752 15.747807910675396
