25
Energy = -81.15016944 eV
Pb 13.190421272875028 14.024083756450128 8.978551761741326
Pb 10.172036179165168 13.149626925118822 9.901854591412114
Pb 11.250973979608515 15.954011039884485 10.96777511719436
Pb 12.870316626878843 10.95597435951102 9.905534180578984
Pb 13.166174840885382 18.105203742008754 12.54357817703708
Pb 15.839223348357791 12.482070874347396 10.263504383657306
Pb 12.551576882078004 13.257448984014983 12.462316816365865
Pb 10.402072517529783 10.67235624714922 11.944899953174406
Pb 17.83951593542247 10.752825095093414 12.30402462765085
Pb 15.01117001976686 15.672390634812409 11.085460854195427
Pb 10.293961441305129 17.175921762776134 14.0502033700509
Pb 14.628044078767125 10.532677691782766 12.636916508351064
Pb 13.097076974806459 8.86602781588297 14.72239229374339
Pb 16.67611347946265 8.304365618979666 13.944706239440285
Pb 16.280777735088932 13.428773448051025 13.45510444418633
Pb 9.161148440974793 13.801178464465687 12.846611791655803
Pb 14.029803591140054 11.975570549435526 15.625156580349355
Pb 15.601365949789786 16.742694513579433 14.114221927959408
Pb 13.069770013976703 15.446347898383584 15.22102756449896
Pb 17.48371972937315 11.085559713384512 15.475003773208249
Pb 10.81456340826015 11.34228317220098 14.948280596099567
Pb 15.38723084741006 9.16650898992257 16.75037268273392
Pb 10.244714378283406 14.317700939799495 15.932013944987194
Pb 12.932297841346783 18.690136248519032 15.592960336855056
Pb 10.929651547317256 17.021982574315242 17.2512485427428
