22
Energy = -72.18470714 eV
Pb 9.926858624102591 12.247626251517694 15.18007142438087
Pb 12.981047522554059 16.094111038765455 12.296969437644451
Pb 10.277117068991407 14.89813224037917 10.121578323817554
Pb 15.17500600671706 11.109734080799306 12.827055147302909
Pb 9.610700910601352 11.40492687639288 9.033967164679133
Pb 11.290561978704016 9.350584789332068 15.486946173130233
Pb 8.232339378306001 9.632628221466474 14.245210321369573
Pb 12.608988223721646 12.856571098263563 11.068103838436034
Pb 8.266360172554387 9.14498211119629 11.098772892804757
Pb 11.838257301440855 13.443731050689282 7.705071232435784
Pb 10.256751044397667 7.384295562319036 13.061173883913467
Pb 12.598822436362017 10.335034138109183 7.970701232927525
Pb 8.25304051161507 12.402289971177796 12.144713556013887
Pb 11.046644569407672 10.567583536983603 12.49319030611109
Pb 15.183801258762566 12.196498056909013 9.211998605082028
Pb 13.384545526025642 8.281755819533737 13.069122957779863
Pb 13.915716818834815 15.282069589620445 9.27746317960482
Pb 11.214070402781493 8.227420590129338 9.949208235682958
Pb 10.296190990515287 14.769310565178479 13.293594539358065
Pb 14.493996953289594 9.218132735491473 10.244183249074782
Pb 13.265124616901868 13.425314757561072 14.345557546495321
Pb 15.538497445739216 14.25510195684508 11.882887463009455
