21
Energy = -68.63119079 eV
Pb 12.058579142831826 12.865371692705315 8.807611063876337
Pb 11.66779337459369 9.465372848750542 9.88314296084051
Pb 14.784531489413185 10.584861200019894 8.910506354183084
Pb 9.306613919567601 14.708144153127034 9.885337873275624
Pb 15.087078305078377 13.695026497953734 10.27798996791604
Pb 14.697384006545574 8.385724254053274 11.303900182583385
Pb 12.34665424230042 15.472676154831685 10.821746569762329
Pb 9.119530579175063 11.492986675910231 9.439901949632654
Pb 16.704899969666798 10.910296499093326 11.491853038606388
Pb 8.934364553390884 9.71341702825054 12.021460947159309
Pb 13.495451886532411 11.398541898305064 11.85570520071085
Pb 9.5307534781394 15.826313751926989 12.862957731958279
Pb 10.833187853420641 12.828786563479683 12.305717618810068
Pb 7.799418475585186 13.000686914898953 12.60354257421436
Pb 11.996676750594014 8.93523705404695 13.487141824763249
Pb 12.651078305051763 14.977263920672977 14.192973556526827
Pb 9.618948898087842 10.687147689756928 14.92902993209265
Pb 15.396481939936521 13.192071078233424 13.715040768658909
Pb 15.263420120968204 9.814353305437328 14.169733735732809
Pb 9.80374101796122 13.900785655533893 15.389441654572213
Pb 12.655726730973257 11.897250202826003 15.397579533937717
