23
Energy = -74.46506476 eV
Pb 18.103012511390762 12.156491775361928 13.64611006665095
Pb 15.623846683055767 12.742167215239485 15.503167282414003
Pb 16.03811805912013 9.749501418550368 14.109159523547241
Pb 15.13510838243579 15.85950352312572 14.884953733887897
Pb 13.905251924809901 8.962727293913924 11.833178951563065
Pb 13.216077039654563 9.893759636733744 15.41078927148791
Pb 16.190668503044225 11.346615590029318 11.29623917810844
Pb 12.254110817936759 15.891360843634985 16.177107777279343
Pb 12.531356457441976 12.79139898083556 16.73117517943839
Pb 13.060417975696021 13.757282969521693 12.95689972251
Pb 16.462616603122274 14.550149590232424 12.39698206056012
Pb 9.867485260027479 17.167634463167072 14.58986201035256
Pb 14.87796722114275 13.953910344494039 9.713933998534854
Pb 12.726527774271108 16.108791888014675 10.271090491845325
Pb 10.200094392865969 10.904250145708238 15.513553490511505
Pb 12.768531420692598 17.2023099588678 13.175859415209159
Pb 14.04454288578238 10.920002230245013 9.027442189040949
Pb 10.885477707447755 9.093043888222963 13.119977516354288
Pb 9.81633591015167 13.975788210826138 15.01343558438638
Pb 10.142125564939318 15.36310515301168 11.96246589965201
Pb 11.57900733871731 13.13843876861329 9.55002433323652
Pb 9.515439502053868 12.033141148945205 12.20743424199572
Pb 11.188691951580294 10.06821076523162 10.23206535990133
