24
Energy = -78.6662448 eV
Pb 12.357535872150853 10.493098654666785 16.07523382603253
Pb 11.013930449683183 14.429062110888154 10.605652888989084
Pb 17.23230988027204 13.685535095977052 12.986879194890367
Pb 12.053362685856793 16.754311613354396 15.160390045627652
Pb 10.815756785963252 17.247690369955915 12.100617333012691
Pb 13.930204690955417 15.238363712105464 17.605352028627472
Pb 15.267502330438758 10.164980928684871 17.327733996239598
Pb 16.424568349068284 16.461080157508707 11.31627899282537
Pb 9.877914836498574 14.673322511044352 13.641262568732573
Pb 17.216878146099237 -0.14714524819862246 13.287061085568725
Pb 14.612888318962172 13.096116733743427 15.505488180833321
Pb 18.784256057462382 17.773161418495175 15.776352798238786
Pb 13.233890014530372 16.671813345515027 9.99657113381319
Pb 13.240098428399664 12.229370377092147 18.750688771372786
Pb 15.069791608162257 10.412585877958833 14.039287176285706
Pb 17.65796175784265 11.575618286215326 15.65501965414959
Pb 0.17691672618486728 16.350066495128317 12.948641640704482
Pb 13.906144214307247 18.262240927031808 12.805296272994742
Pb 13.486993034317194 14.972416013511108 12.673628795897962
Pb 18.942714390505895 14.61320155381137 15.679187688593316
Pb 11.255352377698078 13.56744843689488 16.470255753664205
Pb 16.414390211158377 13.090610313977269 18.32603150694659
Pb 11.995434184331838 12.18680074375284 13.238811674382887
Pb 16.07457346378878 16.20273971651041 14.84545174524203
