24
Energy = -77.49207468 eV
Pb 16.145507642715806 13.218015788625843 10.109727984354356
Pb 13.630598036812929 11.809288439721419 16.892667709757873
Pb 10.75733275035292 12.294491072589578 9.30918243449022
Pb 12.170004523285419 14.528020963744826 18.17308672436883
Pb 12.95820926375327 14.733514282028333 9.410745506459529
Pb 14.601269850713212 16.666622480058624 17.5193595122512
Pb 9.979671097749465 12.395909743779029 12.503131592965534
Pb 13.216213024399192 12.348346123384948 13.439741875500282
Pb 18.006548385860793 11.578167729625335 12.203645908830284
Pb 12.666699899149421 15.754058742807866 15.179893357558562
Pb 14.375870252845566 14.91575275278098 12.308824968575498
Pb 12.022848447924474 10.08611573007944 11.342266000764821
Pb 15.849204822929813 16.74116671354398 14.569419635148515
Pb 10.829929304509008 12.980476778309974 15.60563895256092
Pb 12.08567365470702 17.020130867461674 11.929385940332528
Pb 16.779772958326145 11.827878412864026 17.826540750801673
Pb 15.1526019705161 10.351469807518987 11.711339644698509
Pb 9.910198504527472 15.114008236319588 10.66452908427224
Pb 17.338936301989776 14.773538314142392 16.66285012058308
Pb 13.757202822179476 11.441921969318964 8.960333533177481
Pb 16.39239210051073 11.951013909542297 14.833217158061702
Pb 17.534454981410725 14.615840846398665 13.01600233069645
Pb 15.037891922733653 13.986171760685508 19.183856113062134
Pb 9.858904688739065 15.53894375792788 13.794089485151842
