23
Energy = -74.43985494 eV
Pb 16.94989503199405 10.86870271656453 0.27670261133919605
Pb 13.650174035864882 10.56517992824811 0.4827112142034573
Pb 15.716185426611604 17.876529064856967 13.246615333428906
Pb 11.18605790976415 16.509509857267226 0.08587257919580697
Pb 13.138248133670801 17.81213675946222 16.892308761836553
Pb 15.636321355674365 15.897732834990935 15.876570879317761
Pb 12.46549401083643 11.538631731832659 16.493460647960585
Pb 14.1288475127934 13.512489738022479 14.163362634731817
Pb 13.006324154012015 16.40264604639169 13.88237803322796
Pb 15.085744938883744 9.163670394031364 17.204931371852933
Pb 15.22236222958088 12.78652428862689 17.419338171082856
Pb 17.90522905625707 10.411746081443336 16.238794872747395
Pb 14.323637629723406 15.926632412262345 0.06260552844253912
Pb 16.342430361086553 15.509127712384258 11.386880914905493
Pb 12.068598741981084 13.389116255190782 0.4176018683281185
Pb 15.94280934090024 12.346160740854476 11.702575071029893
Pb 17.57552970981811 13.367880785532684 14.690043896750879
Pb 11.720679874311795 14.879942015236685 16.59511773689075
Pb 18.4804871658933 10.796643350105965 13.002932961573238
Pb 18.420516841842407 16.347342048988178 13.773411945712372
Pb 15.28751906054214 10.365563421653443 14.251753762100426
Pb 15.152605755493644 13.234979612341824 1.6314973669573773
Pb 18.96763145279951 13.703662542878805 11.770028586462935
