22
Energy = -71.78585856 eV
Pb 17.27108810338868 14.300778734345279 13.244166325984077
Pb 13.480065038863119 11.902516325045443 9.994400774421807
Pb 15.859957204697045 13.953021460368864 10.093403857290605
Pb 16.248868380348956 11.398694329030027 12.110658566084252
Pb 15.853560026185509 16.66470272368598 11.572285367101683
Pb 14.145808195776693 8.992181856482208 11.483767029494013
Pb 16.04901571641766 12.20027940867715 15.444421141569883
Pb 12.904779409103691 15.674977998288334 10.270114233445103
Pb 15.55595772711271 16.743323256607617 14.820151306812305
Pb 13.216367563890016 18.02326883979027 12.636315499322237
Pb 11.133222368689019 10.045928056529918 11.17605853201506
Pb 14.05570164361769 14.412960496334957 16.78073555141541
Pb 15.109951279602702 9.37082936158547 14.550581894034933
Pb 13.829439115371285 14.244021545212306 13.281623933143937
Pb 12.411970971466499 16.889575111593444 15.538940173369744
Pb 10.686823947860429 16.10380834919421 12.818854048784742
Pb 10.595878991707147 13.158174478767334 11.092372961520612
Pb 12.898300751668524 11.232452406908076 16.138298820659603
Pb 12.09960910388033 8.703525943293844 13.98424936794254
Pb 8.6225563033168 13.798418311698827 13.523290531426156
Pb 10.286520223616648 11.262586527802217 14.070269345011594
Pb 10.946667832912825 14.076785885221549 15.724541929486001
