25
Energy = -81.4217322 eV
Pb 9.859082314300178 14.390123852882306 10.14928956455256
Pb 13.300949455667974 14.371687073474218 9.213622500192837
Pb 14.27103464561567 11.091107026604247 10.222082957225355
Pb 11.490276253695715 17.045420619730194 10.9966932531022
Pb 11.238321177457378 11.757665902558118 9.30994343945358
Pb 14.597434338543316 16.809948288956612 11.33301177625887
Pb 9.342060959626362 11.58950490704676 12.029144328740221
Pb 16.291434760974305 13.722991145940545 10.83895386470239
Pb 12.709677402108934 14.06196811985011 12.255485874915006
Pb 11.519961153868836 9.109232217785689 11.077622013814855
Pb 16.072039751823517 11.24397325240881 12.871655118326629
Pb 17.64682180919464 16.4283903133072 11.968498389181718
Pb 9.981744520219793 8.90358025240985 13.909693234437903
Pb 17.59781918657787 13.86546359113872 13.913654094846931
Pb 9.962839035656396 15.21682141097868 13.3572412290152
Pb 12.584387382856105 11.144328135182192 13.55030146029855
Pb 9.883299240121017 11.972123859442954 15.416729025031785
Pb 12.64920844432475 17.090463550781255 14.091425331371962
Pb 15.911396665357353 16.697022122352795 14.5241718334181
Pb 14.926803453046855 10.366652280199006 15.795691830954915
Pb 13.149428523275358 8.067945973651497 13.838161819562565
Pb 14.507887827516146 13.772939447831272 14.862971886557549
Pb 11.27261016882678 14.927588723171759 16.175325458190695
Pb 11.826213621640598 9.373254895849707 16.509293693466752
Pb 12.825213590736832 12.397748719498612 17.207281705413834
