20
Energy = -65.02230319 eV
Pb 11.238888851849515 14.022596223934155 9.375998194290109
Pb 11.031123598453796 10.968953112322685 10.704629529062458
Pb 13.82707541576281 12.09646086769391 9.324669707352214
Pb 14.197555240248866 15.279132093446428 9.863503778815314
Pb 16.251526302252934 13.242524478147125 11.396474602277944
Pb 12.846981222923423 13.220966655495442 12.556068676887786
Pb 17.186104005721763 11.153467234064747 13.64596413480233
Pb 9.336920029974197 14.190332365244652 11.939037645342452
Pb 11.74546233913873 16.409801258649303 11.617889749341973
Pb 14.560110695779505 10.13341438899262 11.825331695678749
Pb 9.065959800942132 11.169854767085699 13.376941643539759
Pb 11.217209071775086 15.51874392176329 14.69876548121594
Pb 14.709809411528562 16.021240860613954 13.154077586363105
Pb 16.960496085395317 14.22814076428904 14.472401259180938
Pb 14.239395775032332 10.773298632217909 15.062738083840784
Pb 8.573631957710477 13.743467554166484 14.987985921678993
Pb 11.716080161833503 9.56198855470872 13.720753597636776
Pb 14.001119436729699 14.232841419933754 16.01856866359044
Pb 11.237120239322332 12.202308300084116 15.834687213118723
Pb 16.351216403472286 12.124252592992887 16.717298881830292
