24
Energy = -78.63577006 eV
Pb 12.931729453747064 14.360868987469273 8.17811301651853
Pb 13.788634846451382 11.260055092364107 8.836267124761463
Pb 11.034608425204178 9.32725106275442 9.437005412483725
Pb 9.181360860469601 14.350776777338943 8.92665782872607
Pb 14.273608701231666 8.647446525438932 10.873909611876982
Pb 12.296278038565495 16.06042888368614 10.767469102209557
Pb 14.431335968927302 13.455558983419403 11.023905929841556
Pb 10.88816274806529 12.569411819881807 10.91640222690628
Pb 16.135041273237935 10.135616316912197 13.256202558576383
Pb 8.213151133355884 11.143161127602111 9.002951355027168
Pb 10.901416533091657 12.003587381742038 7.462850383432433
Pb 14.761865710383637 15.952737886261785 12.74069176515141
Pb 9.329850744668114 15.466096931239143 12.05864735667847
Pb 11.40364352218371 7.853775426080845 12.297361012010809
Pb 7.453638604950988 12.888573895625218 11.572679713572981
Pb 12.92945353140913 10.84460514563925 12.977414777738542
Pb 14.986731763002448 13.033349366385117 14.544826595952326
Pb 8.850825216926193 10.006279507564106 12.067026553443693
Pb 14.127258219045153 7.732248369276328 14.083549255516525
Pb 11.983224684458122 14.863811759053394 13.93741167570666
Pb 9.296930648024968 12.76249839969832 14.157226114803944
Pb 14.479845500412857 10.152581016600527 16.047882810470625
Pb 11.360636897787321 9.192359776595987 15.329217200725
Pb 12.044816234217445 12.332593928367482 15.968027997647527
