29
Energy = -94.79844289 eV
Pb 13.169173867120744 14.116809805705417 7.715281602533841
Pb 15.910893815642057 14.30426352988057 10.44981389618506
Pb 13.384574888434184 16.032291882882543 11.679271113190161
Pb 10.773442071048226 15.832979973757727 9.260797918655348
Pb 16.17234872041437 15.257993881488519 13.557726824706933
Pb 10.008754344440323 13.317965379731573 7.440005611597519
Pb 12.267709104174164 10.973945193136428 7.62292449025989
Pb 14.918220039103606 11.231337307362057 9.622649954561686
Pb 15.511791524234471 12.876798999977824 15.580169512295745
Pb 11.749853958420976 12.936985400571102 10.288492992372511
Pb 17.049817182863812 12.22018410792182 12.703703317208031
Pb 13.94957758202748 12.871110524424582 12.755928088532077
Pb 12.96944726519752 15.264680011504348 14.86815935526538
Pb 10.044689869143953 15.72192073516341 12.7031220535607
Pb 9.745984465851972 14.648143861262499 15.925241918299388
Pb 15.413039038831704 8.814640600906 11.866054529663408
Pb 12.323650974842613 10.123177144189643 11.917278993513891
Pb 8.451955267965083 13.449754176920028 10.524618321073437
Pb 13.045738119511881 7.859965705567308 9.820542429176355
Pb 10.662260307771351 12.631720844645956 13.468855125955132
Pb 9.53514191563289 10.526031772110562 9.41206191706153
Pb 7.521863056806312 13.606230652587163 13.839016088224716
Pb 12.144017223342258 12.157064319026572 16.313030308160066
Pb 14.119041574834327 9.703765497294748 14.764100387465657
Pb 8.797945985979714 11.57080257233697 15.986548229228923
Pb 12.946278541253228 6.9930446428098705 12.972469192756247
Pb 10.192508136068845 7.7402575637421425 11.528047426270932
Pb 8.342742937305552 10.499113014018617 12.703641503011935
Pb 10.86339940195627 9.106509187477185 14.74751224716529
