22
Energy = -72.5388659 eV
Pb 16.119324037799252 9.926887425045544 12.553299569909534
Pb 14.392862936717783 11.397802161430507 15.107118475050152
Pb 13.285059776928163 8.779171301272896 13.223340574443572
Pb 16.793604041577268 12.96209474018561 13.294859200239337
Pb 10.71052608126285 10.054544840149436 14.867684088068122
Pb 16.33715535694298 12.080384903509048 10.087634870865864
Pb 13.84451656687505 9.664121294039713 10.042268661594548
Pb 13.706684042705007 12.327628734310847 12.057246353553086
Pb 14.203494472185334 14.790510537314788 14.235658835141944
Pb 10.653331095132526 8.969126961186783 11.137446105152751
Pb 15.528169024127537 15.051993185142205 11.166226741946051
Pb 11.220547539057016 11.183517589110656 8.649520789718657
Pb 11.523803244072704 13.283678068709516 15.547665082822052
Pb 10.536177739258065 12.08590053457869 12.267990977784715
Pb 8.310855129018165 11.094340714244504 9.812326195360479
Pb 12.483341431147501 15.778704235646186 11.439313812642995
Pb 7.925920547737524 10.115234881550585 12.893414917631683
Pb 13.415844923220758 13.64597114139235 9.010681101889425
Pb 8.526119137239645 12.573688889475042 14.937805530070063
Pb 9.915566809340943 14.131620505330392 9.811513013910492
Pb 9.805032148412542 15.16575137277325 13.265940061747084
Pb 7.400207957552731 13.279494964147366 11.9632025341873
