35
Energy = -114.97322495 eV
Pb 1.6525078183077786 16.796949851247145 12.799145363106248
Pb 20.827619965083365 16.010278919018436 15.281195469094552
Pb 12.566201852645136 18.02545142325154 12.283408553416557
Pb 17.342815376994412 20.011702949835072 14.13730019480164
Pb 15.742617728419688 17.65384314373945 19.024793626853285
Pb 16.041770475315037 12.774289945723016 14.462060017990886
Pb 15.710835859925671 18.18842722782735 12.16105090157674
Pb 16.107656148147665 20.807377598471 17.029448971776503
Pb 14.795962500065867 20.93156272196494 19.947744888403285
Pb 17.97683636487481 19.808062115207917 19.971185159079834
Pb 15.6381612165858 18.88508944338021 1.1994581009729341
Pb 15.454370599813913 17.611005441810477 15.59089874523672
Pb 14.117770203092537 15.33470445555437 13.084958274362219
Pb 12.105206119924393 17.074817249827287 15.321911972523647
Pb 18.169718886947162 16.09171803479852 10.57860267080206
Pb 19.342537953799358 12.930264465015242 14.891858068083113
Pb 19.583232149891835 16.60128002307604 19.06041455392719
Pb 20.08093313809963 13.562127913617676 17.95569739550651
Pb 17.705846225452564 15.816083273125855 13.793938602043443
Pb 14.767202791842221 13.551789441331069 19.10012895598667
Pb 19.863803661141805 18.064058044125094 12.78739393052666
Pb 12.648796239603573 16.149097737390655 18.631450945776642
Pb 18.703808808523288 18.720074074601076 16.776480305871484
Pb 17.879979138049382 13.15125889246726 11.824866792286347
Pb 13.708845201286623 14.230565868007735 16.11806947302839
Pb 20.786014782949124 14.472300178061309 12.155838912513271
Pb 13.771664641648039 20.11147160824197 14.406125834003266
Pb 12.883969762224265 19.449179497178772 17.620560097141688
Pb 0.04784006277100459 16.88479640044379 10.046659258637902
Pb 17.79953975085893 13.978108355379483 20.2501893759693
Pb 12.799844538279064 18.50047681872424 20.84245904669021
Pb 17.231711328759086 15.093588938840112 17.002166064383616
Pb 17.357691059234224 11.882774403667932 17.587396072163173
Pb 14.565678384433761 15.778665782628687 0.44739289598520654
Pb 17.903683587552628 16.827387410696357 0.6974021793020619
