38
Energy = -125.6153552 eV
Pb 7.5424213327434035 15.43402489064471 13.74269501613073
Pb 9.192107238022318 17.67776100124005 15.295514433239992
Pb 9.826061855603534 17.285949254620647 12.089461538916703
Pb 8.957920679099674 14.611781404584224 16.65311847701143
Pb 8.59343674099334 12.194446012278249 13.99101136067494
Pb 8.9437326848105 13.95071037306037 11.264926150105797
Pb 11.838533261170808 16.534353146794995 16.90893450121837
Pb 12.15018217775182 18.351904603650777 14.21802996259313
Pb 10.922155374892425 14.941788919142166 13.979777779628241
Pb 13.160989771424422 16.186096548939606 11.617460682584804
Pb 11.651416651506155 13.31544625271449 18.49295539565915
Pb 9.487520649919537 11.356311560563285 17.071962010841666
Pb 10.543094980727748 10.942265348495988 11.310903063167203
Pb 11.636222596886372 13.544000835859373 9.428288358893806
Pb 15.45187576897068 18.246324426713613 12.986074148108413
Pb 10.915145223577026 9.644965440851156 14.655868456142219
Pb 14.276550153274423 15.691209032351336 14.78353928110742
Pb 12.416734306410074 12.368584815462246 15.573734042557598
Pb 16.00998979152391 16.97349767647118 9.943902949431884
Pb 13.264213321998321 12.748377029474595 12.115657738516564
Pb 18.481657903606234 17.789076304570777 11.875775974489825
Pb 17.644202137514213 16.66611036522268 14.903344497920873
Pb 16.526962312625297 14.84781288302246 12.288314347853499
Pb 14.646674415195049 11.939916583523226 18.201860455972202
Pb 14.850613782741322 13.59815251096017 9.366112344862389
Pb 16.70630201863602 14.240887785326631 17.25195592415914
Pb 12.171153372782557 9.905171769026776 17.92644993659498
Pb 13.122848521423139 10.682509347246539 9.273397691986524
Pb 15.65629109577433 12.544575842848621 14.700462937374615
Pb 18.781026768323347 15.104052629166198 9.976344387864359
Pb 13.304972370712864 9.443794871049336 12.304584457872323
Pb 14.47903082672589 9.591202148840747 15.693547387373288
Pb 20.068067999777472 15.269204230644347 12.99142066581492
Pb 17.473456248959653 10.938880716680918 17.109501477493215
Pb 15.857437687582747 11.065030634582312 11.0332003127219
Pb 18.98613429002049 13.100817574902791 15.211472258288897
Pb 18.846875121200984 12.422965077475153 11.826478726200351
Pb 17.728899231830493 10.19528991660495 13.962516256944102
