30
Energy = -97.87676204 eV
Pb 13.069179436917045 14.180158098113168 10.273684782812792
Pb 13.025179698286678 13.257567418529629 13.39020454514448
Pb 11.561775699667704 16.967369461289653 10.405527210523564
Pb 17.848139996949808 16.52258268476264 12.057381088835356
Pb 16.317006970642677 19.338128770558903 11.899116767755995
Pb 15.95144103647652 13.877412037573034 12.250943961396233
Pb 15.354571960202966 10.28148484763809 13.497677730970485
Pb 14.967636155427703 16.766116146458906 10.474493470483358
Pb 10.463780379329906 14.561252304060178 12.177079578957034
Pb 14.972139600340936 20.291005297496156 14.611979220849346
Pb 12.016939830513783 10.285642858907632 13.765522594032626
Pb 17.98421202772067 11.596451105142334 14.5484417248364
Pb 15.426366324973454 13.262137476668117 15.72429978932673
Pb 10.224019995421049 17.518794281483792 13.32605887692175
Pb 12.997972091266371 19.184410110247857 12.288807672758292
Pb 13.904999043926614 7.707928649276932 13.277948917664691
Pb 17.63525303012809 18.412404538993265 14.864182519639277
Pb 15.055308192497359 18.67195613700998 17.36103183041647
Pb 16.893393746905016 9.138651953656657 16.37510273307562
Pb 11.20487232490869 15.124924515582824 15.411812581906982
Pb 12.56843460826898 11.995232747100486 16.59932039806912
Pb 12.23684859458015 18.56725296518467 15.598372022714472
Pb 18.127757162413477 14.919388661156194 14.815976548133804
Pb 14.88470511827742 16.829455598911203 14.18654700049486
Pb 14.988314986271728 13.518492429645207 18.96306081531321
Pb 13.576679023591215 8.831664356968 16.20775439899471
Pb 17.65552307960186 11.962761496852833 17.8477649497764
Pb 13.348949419312572 16.05517900748664 17.608499868297276
Pb 16.712858803232205 15.904936932387782 17.460612973045965
Pb 14.89003159489182 10.333547043800259 18.595083359796988
