35
Energy = -112.90562074 eV
Pb 14.469995442983098 19.59433451383179 15.48379205478115
Pb 11.218864856612685 15.121240469942633 16.53800721675199
Pb 15.786842669744257 17.762886954223802 22.250593683977133
Pb 12.116719056042287 18.175243155027005 17.124197099840675
Pb 15.889888856603012 18.21190015965027 18.13287884105719
Pb 15.91585392052011 14.439676860893568 23.11848713828833
Pb 18.93719447424095 14.842482684077893 11.791845980214829
Pb 19.2488553616461 17.05103214127401 17.49185187786914
Pb 11.065556295819338 14.189516676267472 10.400964652372615
Pb 17.602920905502383 15.772274981814066 14.824242754662883
Pb 16.426630945256964 16.019218645794314 10.075055641994908
Pb 13.960192762978886 15.676360742208079 18.39373105616295
Pb 16.785848928340215 15.259734463512 20.138359699111856
Pb 15.274963059118326 11.066019479258864 10.88973583811392
Pb 12.881226428745908 16.295133604178343 11.77594355115117
Pb 18.143725062810287 11.268808112652094 15.742141712308127
Pb 18.65095937247512 16.123076033562025 22.610862125054776
Pb 13.525423142266806 15.747181690437397 21.519528474513102
Pb 15.861532269197594 17.818018803220184 12.864271235299494
Pb 18.520498873289167 13.918379986692756 17.428058963239238
Pb 10.567663131012392 14.437817649711462 13.522790786129391
Pb 12.659096842789694 12.196859335550919 12.314294957741419
Pb 15.54934552174842 13.673225509247882 16.282280040205265
Pb 13.829884100748853 16.234223440348224 14.894895768843192
Pb 17.448442692313634 12.94856003779516 9.552768820404175
Pb 14.133656847556297 13.829086646994051 9.516075802178761
Pb 16.50975854606341 20.7493441400359 13.379874174608338
Pb 15.639808950557713 14.082908725983009 12.620643414402029
Pb 18.231345817790427 11.631004837442953 12.511828328603404
Pb 10.692130450323669 17.4926887541277 14.377391167807678
Pb 16.627224882367717 16.7288272365889 -0.05864896584110595
Pb 20.02734353026583 13.563660774314869 14.571419051450526
Pb 15.251116867787218 11.164612503687996 14.198084820085898
Pb 17.83400556717952 19.026623689831606 15.598218231027042
Pb 18.21646831083974 18.37111050786791 20.26786340705257
