36
Energy = -117.72659482 eV
Pb 19.451599327401325 16.073938984421357 13.284101633610485
Pb 14.571859012315405 14.734607620139249 16.81422770847104
Pb 15.212000600058225 12.504653636157961 19.41413787545115
Pb 13.386481904945125 16.981099759944758 11.617241977875162
Pb 18.02397137157898 13.724329578882001 15.93671048766603
Pb 18.19919313299903 17.15016671461711 18.738157064078084
Pb 10.281583908703125 15.821495787026253 11.935581260445051
Pb 16.197500315396635 16.301012677081573 14.104559235225812
Pb 11.967972986675122 11.749170361831142 14.403228478617429
Pb 15.135110479840744 13.053976138071762 13.260410315424407
Pb 8.763947151346628 17.249512225224496 14.395672840705714
Pb 13.35314181417964 18.197639092185646 14.633834162162126
Pb 17.798171188401376 11.001072081992868 17.751639298422724
Pb 18.42479848481746 13.834377278505245 19.536094360789374
Pb 20.590324646490046 15.63114202276211 17.362202126442963
Pb 18.633505990584155 18.09016528784764 15.6878934598028
Pb 10.681115443352896 19.40878890082343 15.724735237631391
Pb 19.145494595539017 17.414584120665037 10.490992903073895
Pb 13.871120357415128 20.20332637852979 12.114258888717563
Pb 12.638030307650292 14.885954393430747 14.016287007323902
Pb 16.56464047685188 18.579357447427295 11.586472779964366
Pb 21.200848228944615 13.765633664271169 14.657548146382775
Pb 11.497480972394888 13.05934301896063 17.257421064315963
Pb 15.511029842868277 17.867747838593022 17.090311436658904
Pb 15.659903967347047 15.66920108875708 19.939627176798933
Pb 9.589241763351353 14.13423241871407 14.71819803991622
Pb 20.76557756255355 12.440933622513633 17.71667462313257
Pb 14.503021404975286 11.50952392969874 16.39746119398216
Pb 10.780602564060212 18.9784880657021 12.52432254991802
Pb 19.984498957486785 10.77635060131099 15.112540965482152
Pb 16.88196159192938 10.659541316709111 14.420646985195939
Pb 16.232714628131166 19.913759815959168 14.45705582768564
Pb 12.681640741980381 14.901749726090198 19.505523720405
Pb 16.947454534628314 15.211046993062846 11.179217793594944
Pb 11.219906122089645 16.312751960312404 16.69627498017298
Pb 18.78596531085073 12.75246687626359 12.709415600083874
