36
Energy = -119.19625845 eV
Pb 15.62686841523701 12.27644921658687 18.98076119362583
Pb 18.052490810168482 14.16974098098225 17.641041214905464
Pb 17.183778908216194 10.597148537122026 16.48082792154303
Pb 9.788845460112077 10.578180242342931 14.27307832460893
Pb 13.865997909139313 10.894044560438779 16.51422422324742
Pb 15.274994609351047 8.970229336745238 14.165601751600267
Pb 15.549139841887031 15.462082718348185 19.483070224927538
Pb 12.786797071540539 13.988014040828958 18.516568357777608
Pb 10.275558353575532 10.107643956237288 11.037427350363199
Pb 7.498494457208305 11.376578609763476 12.151923388979059
Pb 15.101703784077937 14.320751017776967 16.243615290894862
Pb 11.597134793360862 12.975159598012551 15.546843537443696
Pb 19.233200293248302 12.55169265335606 14.745960822779919
Pb 18.243304900320794 9.846744384959642 13.352982114870418
Pb 16.766827224858574 17.25227427985519 17.09390117822442
Pb 12.866702033902529 11.069080614523422 13.065584383668677
Pb 16.021235212858027 12.316011788121553 13.829502727169908
Pb 13.525998686973443 16.98435036861245 17.34132909512689
Pb 17.845035533389098 15.484085198443902 14.449864541317357
Pb 8.220402462698761 13.556467692044718 14.568431093683536
Pb 9.049574450276124 16.539515238662513 13.067126427415511
Pb 11.988594985141408 15.872474153447161 14.432091375059509
Pb 18.264373466003153 12.664660505921583 11.48962259017146
Pb 15.816320616093016 10.409377639039416 11.158243295335648
Pb 12.900787400381818 11.594888391054424 9.780762271431637
Pb 16.63712464219486 15.69675458716056 11.494027492622712
Pb 13.743815592213709 14.232321524459572 12.007303897419451
Pb 15.035224308945331 17.24247614076695 14.232356189139033
Pb 10.408224916648704 13.54644666669958 12.034813783111726
Pb 8.815431481951654 12.70337216588403 9.366941629112368
Pb 15.499565170740386 13.542688343924237 9.307965012404498
Pb 7.019779859517257 14.446607493901347 11.606300646059784
Pb 11.993245141066554 16.940509961309534 11.309585751253543
Pb 14.514928240157548 16.62562927601732 9.2879303243661
Pb 12.10433392122992 14.591912885070174 8.89057241876558
Pb 9.189292128641595 15.985962901914878 9.795885563452986
