37
Energy = -121.67889554 eV
Pb 12.93551152682436 17.751261831443244 14.065436980195573
Pb 14.70394330849524 16.136362145570242 16.389202319640194
Pb 12.80015226545214 14.042836340897763 17.69655537062786
Pb 15.984611298288584 16.853319528331664 13.504553226897144
Pb 15.837096542490091 12.713437001446726 18.481143083411066
Pb 17.513387540800416 14.41633758394029 15.452877524943341
Pb 13.059806755957215 17.27371791140961 10.925638353367232
Pb 12.959084552370498 10.93855019364699 18.322207084638105
Pb 9.258819662977317 15.30405052201163 15.048676506982833
Pb 10.904833132369596 12.017500643656286 15.640235586650716
Pb 9.794416492616001 16.7774889744628 12.079506597519217
Pb 12.495390954112167 14.623585202438472 14.332191622227958
Pb 17.883471271326588 11.204556118726325 16.3894239810953
Pb 15.413406036087004 13.418711788980909 12.635431081934467
Pb 15.783967180113939 15.829334404633435 10.23445958041161
Pb 14.598431180128147 12.012498517548533 15.590889659696519
Pb 15.622539201669657 9.351572348367387 17.578922517835966
Pb 18.22082785795978 11.878543152342312 13.248688956972087
Pb 6.971356955984823 15.061180498897187 12.763072153322707
Pb 18.22492886353893 15.09635472486618 12.194152536091806
Pb 7.5686842732374995 12.474462832363528 14.52756895780062
Pb 9.962883942700849 13.348496553838679 12.331296678679307
Pb 13.05468576946422 8.961200160192426 15.634943594238717
Pb 13.132674690505704 13.548571544759467 7.408298002556829
Pb 16.419091842426738 10.457702076229133 10.990857463679582
Pb 12.56640918098825 10.981199529093491 12.969095933193124
Pb 11.050763223954627 15.764427098180072 8.918204903007185
Pb 9.265541300064541 10.11672530531225 13.258034079936925
Pb 8.088042048133584 14.847423057938148 9.818183293772856
Pb 15.792909015396784 12.911439419556558 9.099517682265496
Pb 12.88501392929752 13.74302241982876 10.695815741357581
Pb 16.094713581066323 9.22155779071214 14.245088465867882
Pb 7.289360823542903 11.962085885895075 11.190652210597026
Pb 10.15675878101627 12.462175114971307 8.650310826044175
Pb 13.793552851373589 8.672907665475858 11.1832558974821
Pb 13.16776753379013 10.730024570269796 8.775142475570314
Pb 10.669768577394787 9.636290883142259 10.51651667652532
