39
Energy = -129.15947017 eV
Pb 11.302788302730885 9.823101424568764 8.52603564014768
Pb 14.095458830719817 11.318492917084512 8.506858973807287
Pb 11.270851343132499 13.09380397547226 8.79324484884448
Pb 9.15008909836991 11.29959386193204 10.700603730827009
Pb 13.884620049515883 8.657165426011693 10.375960149541308
Pb 13.967181202926323 17.812628668006603 10.611528176274538
Pb 15.618828280276373 13.91860219912384 9.75847567116959
Pb 12.365784835837655 11.19389204560773 11.598848160925536
Pb 10.678629036358076 8.215275025591378 11.152807475660085
Pb 16.648068737912713 10.80804473405482 10.70628830410041
Pb 9.604976249586267 14.679943389008079 11.068040669742532
Pb 15.962376521592018 19.681911212796667 12.710893355168741
Pb 16.69241894182031 16.479631387438257 12.143959003180315
Pb 8.606588276109534 13.029802642245846 13.536683409143782
Pb 12.738673798151892 20.115820471401687 12.710872802640875
Pb 12.618170449015032 8.283524286393451 13.722820266049748
Pb 11.001934878468983 17.450783763706735 12.133351210287518
Pb 12.86263928935837 14.645285480835632 11.363796754902662
Pb 18.362568341956464 13.578428024838361 11.402327877935146
Pb 9.507546357033437 9.827947834315095 13.75835959564252
Pb 15.420698446297285 12.896876243282474 13.068401836171237
Pb 18.444010542816752 11.279976598882053 13.54692720013767
Pb 13.958134818359726 17.066231251824952 13.869175688745896
Pb 11.06556168133891 8.986426939350292 16.490968041584154
Pb 15.702694277539424 9.445405831383606 13.574788148020426
Pb 11.362803751840998 14.71067786505324 14.296499272666315
Pb 17.924404227275964 14.464035097596398 14.554762542791625
Pb 14.400698155438851 20.20346801311529 15.524319251017356
Pb 16.80471619133626 17.930703322764256 15.354936180704348
Pb 9.708693484952798 12.071265857477622 16.408258854141657
Pb 12.970696589389513 11.61729326645379 15.421998730843708
Pb 11.475620845784865 18.413174952941546 15.312269671452
Pb 14.870013692848856 14.604968790552816 15.960540253594697
Pb 14.208566642442127 9.392896972347067 17.399899100949167
Pb 16.66817609269144 11.462572523008491 16.192747024993842
Pb 12.011075034073212 14.260941133848592 17.57992743659999
Pb 11.758453558251693 11.126882103171843 18.780597621730248
Pb 14.039292897877228 17.548685731569723 17.245716912987792
Pb 14.620726347421774 12.492534847287137 18.45449220644676
