33
Energy = -106.63177685 eV
Pb 11.975922031676003 13.184060998261709 17.90835449073794
Pb 16.768809029116163 17.208621275737563 19.690545801753448
Pb 15.023413676235771 14.398133303516776 8.713762812704825
Pb 13.525888943203297 16.89273732804832 19.751472162358777
Pb 14.763371255298065 9.874367798132818 11.396276470109106
Pb 10.810471942854852 15.312873547281535 19.92372181804553
Pb 11.80641334066257 16.3777501944514 16.921312696749894
Pb 14.998894556274434 11.772700758755654 15.860203236656671
Pb 17.80761082509999 13.627312325108836 16.038969163718633
Pb 15.955956784867883 17.021354436049233 10.154231908177863
Pb 11.689749019202514 10.603977988978066 12.926579596604858
Pb 18.293080992924526 14.559781831083436 19.105205203415377
Pb 15.287798039307566 14.74934536880472 17.937945001513683
Pb 11.971657416415338 14.868591741407924 9.206293126846543
Pb 16.887400901650267 10.341094849908593 13.766611153898948
Pb 9.578260211154827 15.644159118672482 14.727997525685735
Pb 17.795899744823007 14.176642014550493 10.167742563409687
Pb 12.724246550437785 13.838236112642358 14.789409852220068
Pb 9.571538707602711 12.373548581539495 15.309492608312055
Pb 15.790007489398503 13.091637050023476 12.54108926794461
Pb 12.001636617347653 10.460435294854056 16.236327374158172
Pb 17.405633722439486 18.142372334263044 13.393543475819097
Pb 14.973882021703185 17.98082597244839 17.01408384464166
Pb 14.108807431899248 8.925113383980216 14.38569961345913
Pb 8.907540728906937 14.610378813335313 17.611423186954358
Pb 13.184233688465916 12.35304171888335 10.525581176843126
Pb 15.553661527979013 15.784075469043023 14.621068084379228
Pb 17.18054248290187 19.661198213607026 10.693493218816146
Pb 18.594498596649167 15.143516812592958 13.260001919080594
Pb 10.635232754487825 13.770290560156825 12.3358528260322
Pb 18.04085172770229 16.842144921028076 16.751767028272546
Pb 13.504981635392053 15.578196976501479 11.818614039448793
Pb 19.15998689876559 17.10936419919874 10.793209044076123
