34
Energy = -112.1563739 eV
Pb 10.978840949257147 13.452870278543907 9.61054598658948
Pb 8.478655058184007 11.448422333259822 10.35459691225572
Pb 8.279176100102951 14.488654220418116 11.288316726497444
Pb 14.034471902472347 15.408604071898363 9.489376854889667
Pb 17.060744293498384 14.017948380805509 8.890468071610393
Pb 12.915420713872868 13.705021448586091 12.33423415270695
Pb 11.614893038950012 10.321943315874439 10.649795642811377
Pb 16.955785843325085 17.04686831267408 9.882599631428885
Pb 7.345247799622432 12.116902166423564 13.48732464137698
Pb 14.368586843181689 12.088176249950903 9.70195834892267
Pb 8.972118306091627 9.028063987689299 12.271147196778172
Pb 10.54001260792234 11.872827904021563 13.555407326513746
Pb 14.41840418243639 17.553044072287555 12.057196464772336
Pb 11.033674468466486 16.204380353716736 11.553133753085163
Pb 9.119996056032983 15.021976974265929 14.387440816141122
Pb 19.05193401850755 14.878702111667623 11.321417837782187
Pb 16.050316328316637 14.514507568172858 12.219932440326152
Pb 9.084657897410587 9.395232048880683 15.385552413441818
Pb 17.419302186875957 11.662899810793691 11.069704910306926
Pb 8.971264608731998 12.467286454354142 16.504537960561468
Pb 17.60306348782678 17.40016176784549 12.990948687254807
Pb 11.946998124880285 8.879891643798706 13.775003972130165
Pb 12.08700439028177 16.563370565974882 14.535348353121732
Pb 14.657277876491719 10.713025318121666 12.680734735386991
Pb 15.21623640588964 17.11380946336553 15.26103946679248
Pb 14.688701401595466 13.636741742970056 15.255230605090677
Pb 11.60045465231237 14.329779729977243 16.7661361346253
Pb 11.768643157504362 10.679885207936268 16.578254959802724
Pb 17.640392904974444 11.853858672566775 14.34079416265762
Pb 15.129894531890908 10.401243136488098 15.964227947245954
Pb 17.859298928644932 14.99661350734239 15.479617129289375
Pb 15.818215434711748 15.32307292691157 17.98455389911398
Pb 14.040506504002673 12.608890801607945 18.295982422359227
Pb 17.15206968132072 12.463876849973845 17.521326219638265
