33
Energy = -105.20216537 eV
Pb 8.448155237894367 16.892470968803153 13.851294689948865
Pb 17.148117527415256 12.898823691342306 17.480381578841563
Pb 16.2609171385922 14.42810389543228 8.904559445320327
Pb 15.635158243262588 10.038220171905314 13.056391285190523
Pb 11.583039496059348 16.490819048530543 14.546088204171953
Pb 15.476342868124435 16.007125883782827 18.276754149620658
Pb 11.727186212546911 16.992199453567356 18.034191387167194
Pb 13.200071992144851 11.254537574642434 14.95020285001447
Pb 13.731867007134857 18.033888448670464 12.557961945012453
Pb 14.32017069438157 19.165885712064846 18.824610177171373
Pb 16.83255645093932 18.46954483983445 16.68041301854179
Pb 11.524165427668216 20.207608754784324 17.414758274120153
Pb 15.134452639797926 16.420528834315125 14.97259150181005
Pb 14.003528672767168 19.485582202288736 15.555266838542444
Pb 13.314023788875634 14.290478695075038 16.35682156764156
Pb 13.35866756491032 13.572603422029077 9.483077135463766
Pb 19.599859798395872 13.3938895074607 14.604397058151049
Pb 10.51851248022689 11.605649991456133 13.261209049730109
Pb 18.22777375144388 10.283747234999844 15.419644766889466
Pb 19.047776698667597 15.353026833610052 17.21021799097515
Pb 12.945925456469073 13.913811529488013 12.88351900437161
Pb 15.920504491427543 15.608026566724421 11.836232105994384
Pb 15.586715811830157 10.330015158281201 16.936681975557637
Pb 9.652938986963592 14.470588503850147 12.371619713795434
Pb 16.16854467051319 12.282962263643787 11.00535155272473
Pb 9.329096390688854 18.276006702292108 16.379985299724208
Pb 12.973581411531013 10.961622754477776 11.4245422671467
Pb 20.256990998416462 12.204847294599082 17.56146773767557
Pb 16.061327223529254 13.220302155438501 14.314824271932444
Pb 11.867179472237236 16.153621148814928 10.822640101532214
Pb 18.237207876805787 16.311005827879267 14.268116839238157
Pb 13.427522029390644 16.67947834363467 20.510736015397793
Pb 21.090209049953415 10.717237603755796 14.801346140820867
