35
Energy = -113.82063751 eV
Pb 15.919662162148045 18.973231355440277 14.193899855627734
Pb 10.229793467400784 18.641922251450946 13.973491192824346
Pb 14.815954445421431 14.183251901822063 18.55033299376317
Pb 16.756459500164066 18.67466365961897 17.408809804970517
Pb 11.079692334303612 17.406924950917507 18.21129840386975
Pb 11.44594743235249 12.66481315279947 11.696096906054926
Pb 19.076159660801757 16.524742248733446 16.497562853920897
Pb 13.760543843437892 12.327033999120166 9.631831617050354
Pb 19.50606471376693 12.03601525841374 11.974923895375568
Pb 17.357750658493075 16.05364430445832 19.182147443191464
Pb 17.893517636343155 13.93599614603542 14.093373618743195
Pb 13.73605707188293 11.003031400466664 18.502866398167036
Pb 15.885640371307828 15.912469700949543 15.7675125127327
Pb 13.005832588230296 9.67846455945772 15.69555989668532
Pb 11.042323651644413 20.47881908617879 16.666023594375325
Pb 12.580713324423504 15.345580261971387 16.16308259045505
Pb 15.677414292461432 14.939113836377967 9.716039701620128
Pb 8.534072691925033 18.64462069364737 16.675689418673564
Pb 9.320657270011484 15.756796125955598 15.906220497355491
Pb 18.18674296857588 13.579321897272877 17.28606949435398
Pb 13.671977110973287 18.55452337623392 16.6351705557946
Pb 16.79306162231019 11.323043238068461 19.017752407513377
Pb 20.253444996242408 15.210007757938776 12.444318747706202
Pb 12.961307577546147 20.33553478379982 14.045821773979467
Pb 13.648838168004115 10.398146170366156 12.50980410295731
Pb 17.290174663733392 16.39488547563227 12.018819796644047
Pb 16.08401745503631 9.524163966123718 16.54301395623242
Pb 11.645992738815032 12.51278771264244 14.79273096838093
Pb 18.875815103074885 14.435883051166979 9.738632324168655
Pb 14.691251130333136 13.69313094883124 12.619391524944083
Pb 14.938745200496859 12.429417156359714 15.743427625783061
Pb 16.750839622395425 10.87676306589338 13.440452694777212
Pb 16.839320468233318 11.929269169051862 10.233467847899705
Pb 10.778809287813656 15.49507631047789 13.082086263383356
Pb 13.48814572559025 17.061335007748294 13.468002872291919
