34
Energy = -112.24872129 eV
Pb 9.77786297279388 15.22048791450734 9.375650434868149
Pb 10.962562985648988 13.320797698616328 11.886742006949708
Pb 9.49243356399581 16.268272167679196 12.543124961837117
Pb 8.785500670796337 12.154351598246539 9.537469831793274
Pb 9.116081911527836 14.449670563419755 15.287328860737086
Pb 12.583024622668683 15.824540494898818 7.755687144937473
Pb 11.299313029317581 10.093337639725315 9.913219824154838
Pb 14.056651053021934 10.767228625425691 8.307011097689784
Pb 11.818708671945206 13.769019585848534 17.0023493941677
Pb 11.52973108733719 12.733627171233016 7.7464430183113775
Pb 7.389715067124435 11.716959130032281 14.95567459653149
Pb 17.24468268557731 12.941580454468621 13.049595608816965
Pb 15.323448544988356 13.791762076398088 7.487218738695918
Pb 15.234739175846617 16.612774417889373 9.259655819561594
Pb 14.194119354754719 9.071744081275087 11.115778140006167
Pb 16.815623985541578 11.342585457028328 10.128597881157127
Pb 8.58874890515427 10.24259033427226 12.191546550917735
Pb 11.324858132147378 8.430408143459642 12.974747200057804
Pb 14.087743331734098 11.62731238717086 13.105334873321768
Pb 16.8658107822531 9.64889359330133 12.893828370465226
Pb 13.907409634400635 13.634110676099265 10.311970343738171
Pb 17.326809165298105 14.535082044519404 10.22406226318672
Pb 12.135750541940975 15.690071925291946 14.399512236021641
Pb 11.023030937387048 11.350417556286152 14.61711748723289
Pb 12.363207286780062 16.785698759848863 11.000734108551107
Pb 16.290204865623775 11.091586569508149 15.72347839598432
Pb 7.643924131450025 13.61734209959811 12.27525477492221
Pb 15.146519523241716 15.81248518858956 12.608308811812574
Pb 14.243849319460988 8.67953805092155 14.829768844045319
Pb 8.7302851914716 8.866752641643794 15.2187042894037
Pb 11.488676137109746 8.410376549920223 16.521448962870956
Pb 14.7134417159013 13.899649440408771 15.397702252686233
Pb 13.41613801718342 10.871794201980311 17.273974810360478
Pb 9.682150594143616 11.17933649110976 17.47692773779389
