34
Energy = -111.92143727 eV
Pb 17.58115579431308 14.755019463847072 14.25844804726105
Pb 18.12557667300852 11.646226054387252 13.523420002657161
Pb 16.78096930949076 12.435366432947212 16.368595689201264
Pb 16.992036393839637 13.61069670566879 11.130959012104151
Pb 15.190536571712967 16.09341717117716 12.585321676062996
Pb 16.08417339923069 10.202021355125822 11.50894120816987
Pb 15.582615646099237 9.75958759711109 14.79428917303855
Pb 14.726740184461143 15.093312389253514 15.93865062904192
Pb 14.356902530400625 15.6925730250789 9.10071833354481
Pb 14.760574823527374 12.758748229535676 13.496781110280669
Pb 13.545819728612166 7.708441238118966 12.235270981186522
Pb 12.318237851976814 14.078469092670206 10.993861849181435
Pb 12.121823697749916 16.49398275351537 14.191266252424168
Pb 13.650431079824802 11.950598174046558 16.79766362283056
Pb 14.653378128034552 12.197150214443816 9.032117473179955
Pb 12.674362307821351 17.531738585767783 11.127694180890439
Pb 14.05436180791185 8.955582810904525 9.309336445942186
Pb 12.190547360522501 13.732916593205019 7.497428976089043
Pb 12.181382190971947 9.287079017847413 15.105964547470432
Pb 11.099458370707383 14.4552554846246 17.02447960519578
Pb 11.117665148378503 7.795463380112156 9.832561415077095
Pb 11.042716944702187 16.41697927629495 8.602305952791369
Pb 11.125140071739887 12.985253166610509 14.206697463389565
Pb 9.01212097459255 15.766780679269147 14.70959239374477
Pb 12.237654722894872 10.588577748580587 11.76324548992693
Pb 11.32706471905065 10.749833239082959 8.401307412287903
Pb 10.511734581434196 11.283245832770206 17.158217946350987
Pb 10.2550734350487 7.87513955391046 12.823182886594195
Pb 9.593189738993125 16.199323638713963 11.554612550952807
Pb 9.411106224036734 13.641482614300797 9.432758304517433
Pb 8.865490517180977 10.387007364436542 14.322298898904922
Pb 8.123118698969614 13.122533870224464 16.08823200712723
Pb 9.069254631291152 10.276978749980914 10.746541309096083
Pb 8.107203808554154 13.183598494330418 12.727173433578379
