35
Energy = -114.7922693 eV
Pb 10.708834410362352 15.720381568445118 12.376438291216648
Pb 14.605989755387624 16.234337246747902 18.681236142237726
Pb 14.143849546621073 11.01352697465534 19.362996362006474
Pb 16.87649472492249 18.222270423996495 10.32520635559666
Pb 17.381204513345548 11.448597999182072 18.199605639890017
Pb 10.23958960391014 14.141018247585976 16.96110675135744
Pb 13.606934718939462 19.478782464714712 10.185078242032759
Pb 12.556407167703107 20.49921007724321 13.363896600726939
Pb 11.531220010745821 16.83898812119098 17.757626915664027
Pb 19.13493977461227 13.619131410302401 12.976650474672773
Pb 10.725365908070629 18.106761114468114 14.658401583284085
Pb 20.69848049295699 11.7065192191467 17.783071638732025
Pb 15.773199217305752 16.33909615063038 15.590838217789072
Pb 18.76084866511807 16.72900766626973 17.78930282401319
Pb 15.62303065124356 19.405158256841016 13.114251455571635
Pb 12.121106502524299 11.712659752801303 17.089077028461098
Pb 14.867894675445688 13.325858584619215 17.108644354021845
Pb 14.05461862404439 16.81908074768679 12.218211969591506
Pb 14.677114098665063 16.547635001423217 8.662042523385951
Pb 12.398385701307191 13.8558956050635 19.533561449421576
Pb 15.908929271837994 13.824122860517265 13.507754237456956
Pb 18.818564296972017 11.17185126412513 15.140127642795365
Pb 12.599237678784368 15.318298430028525 14.99689483057451
Pb 19.107202964868222 13.885349090036044 19.796619879901183
Pb 18.373813590648936 14.060507019044516 16.292379261602413
Pb 17.11654716410673 16.403093887258787 20.490097658048356
Pb 21.415809211218914 14.947590860103329 17.871307199626667
Pb 10.508058299685677 18.91683328877984 11.513450580214903
Pb 13.637891075655435 18.733682928529092 15.858253745561472
Pb 16.677901861041715 14.90912745063915 10.553560186887584
Pb 15.778483105805039 13.542700687675708 20.424536350190763
Pb 21.439494180033456 13.181871918394444 15.126267783509475
Pb 13.424483531996806 14.189240727249677 10.596074202148207
Pb 17.78481301446766 16.64759826257446 13.082536220207144
Pb 11.656668250263952 16.837107520104006 9.429663855978973
