36
Energy = -118.45315346 eV
Pb 14.60625096401105 11.93857714016429 13.43788612611795
Pb 14.666921263458741 8.609061246968293 13.834925992395325
Pb 14.434468322984564 14.09282648948393 16.143747731728862
Pb 15.21919517386134 12.655515312676282 10.209756837761047
Pb 16.647097220715555 9.704312314625682 11.610797687648049
Pb 18.072058745524142 11.713452217633014 9.571019011069854
Pb 15.665624684408787 15.077658144160184 19.339815113994874
Pb 18.593915566379817 15.909207717488401 13.299682214560978
Pb 13.210186892005119 9.905823015184337 11.190067326739218
Pb 17.971842032295903 14.966651726952161 10.270418736373776
Pb 11.718384889936948 10.09757581103864 14.253721000337173
Pb 11.692547524607651 12.372525804076778 16.818958464285117
Pb 15.092812350910886 16.303747783715323 9.424014502298677
Pb 12.502263562842336 15.347842109326335 18.531496295388877
Pb 17.300906022709913 18.038214283912268 11.045700978735988
Pb 12.25949970262245 15.84872864560594 11.255493808533817
Pb 11.991177009880056 12.895364773550613 10.05916337642468
Pb 15.415817027971173 15.347268761442011 12.578705799533353
Pb 9.060470246862925 14.256745696768197 11.019450454139127
Pb 9.855431019486485 10.98069258859161 11.67766097903032
Pb 6.854297682246051 12.190159687810377 12.015664901139928
Pb 16.440107912904264 18.10355637675439 14.223086780544861
Pb 14.25075417827767 18.554054385435176 11.732874207772152
Pb 17.200669020161676 10.47680486642703 14.881745855650617
Pb 9.877234939679866 16.539403389352543 13.34201361434561
Pb 18.10788348176106 12.568227435037036 12.66912167346023
Pb 11.482473233479936 13.503896938295727 13.501132253121849
Pb 7.225445113932985 14.713070970806102 13.819263643844277
Pb 8.622096349096042 11.836452362194457 14.647901451733839
Pb 17.364221603644918 15.345506672657805 16.548687813663854
Pb 12.951390207871354 17.169836813198906 14.384274137460798
Pb 13.82459346578465 12.484263489609855 19.329065484612386
Pb 9.556696854281654 14.668479564862562 16.03442838017801
Pb 14.401920853093268 10.428918986254503 16.63768878260522
Pb 16.801949927422502 12.361690442090296 17.936015020973716
Pb 14.71994403473951 17.251912316058586 17.154012630092843
