38
Energy = -126.01373904 eV
Pb 19.242820143015958 12.988334808361579 12.002753628920871
Pb 19.06245355682081 16.125593957987036 11.44099468440775
Pb 20.049959571514595 16.61954859124975 14.71674612455118
Pb 19.969326603470495 13.189860583798497 15.108826160849723
Pb 16.73201401356446 14.00527329938063 9.996813425511329
Pb 17.357813041030777 10.787269920293133 10.712763141748336
Pb 17.954726985338063 18.52051897622628 13.24769160429002
Pb 17.286710164495062 14.92419343902229 14.040125195308846
Pb 15.855437435211073 17.19833596317639 10.9804030204618
Pb 14.305667566048854 11.43738098689421 9.84621597564327
Pb 17.74416524675361 10.767775785086707 14.051462476417472
Pb 17.37063531246802 12.278495986276154 17.12831805628617
Pb 14.96795288314445 12.6008840206899 12.764593251802378
Pb 13.582251764341557 14.836369846155076 10.112308688245806
Pb 18.965148778439257 15.224765494270589 17.367630502831606
Pb 14.946552223846023 9.409187515587545 12.384106308619893
Pb 14.81957293031181 18.884911395652402 13.837744433114342
Pb 14.991863044071986 10.326542740483978 15.7514309895067
Pb 12.815172962386384 18.213794537595028 11.368314453415847
Pb 14.345493724568739 13.658981759950365 15.970791812320913
Pb 16.984332158353524 17.59323205039875 16.237531701066818
Pb 15.963016297304371 15.149525112450569 18.491608866438167
Pb 10.66644433182207 15.783888554223388 11.74237413698503
Pb 13.721149017614003 15.755315177649678 13.380160681622563
Pb 14.680918059508357 12.190817170577548 18.916385722353255
Pb 11.60803110525239 12.619725418762044 11.59689440752306
Pb 11.307187707337386 17.739916041331046 14.368664926733933
Pb 12.220199284281271 10.69625144494553 13.96721638682325
Pb 13.63448630028808 17.027577961910282 16.631397769093713
Pb 12.02248254566377 11.410844601374235 17.182406619801487
Pb 10.82819653816012 14.122610494117117 15.004636569349808
Pb 12.284069913922824 14.525737848007068 18.370074120376255
Pb 8.253717250242628 16.45020895755688 14.00150962864938
Pb 8.4348416189063 13.367614850952062 12.778776826839893
Pb 9.422700130959102 16.252749394987543 17.090545487284544
Pb 9.26641082840434 13.107190034942438 18.10408942648206
Pb 9.081829485650461 11.291955300415054 15.330582805955347
Pb 7.330795550930059 14.010367283893935 15.782051603746394
