35
Energy = -115.39331676 eV
Pb 9.276876161446213 11.916256522136452 15.373616555366882
Pb 16.741328711440392 19.35823232197724 0.25630299213953345
Pb 9.43458826130015 15.020966486455396 16.588095060407728
Pb 16.369607786829626 14.401502190415135 13.401035647442532
Pb 19.52812289497921 14.56285236300417 19.535697675770734
Pb 16.733679039749187 16.075632521557257 -0.03833610164248491
Pb 14.657646837101403 11.616490488184345 13.978818963238398
Pb 12.17711573934421 10.365919141489433 16.08275365077073
Pb 0.09440745651635912 16.31350197252567 16.802191121819252
Pb 11.290440576334914 17.835523560965175 17.26996328495167
Pb 13.517561431895949 19.334827140006485 15.461578830693991
Pb 17.88689169147336 11.799754367439812 15.264881221860353
Pb 0.1797730033354695 13.046328165475497 16.86447257568007
Pb 9.875942762064929 14.352931562291577 13.297443500227244
Pb 15.043538238911303 11.733707153625538 17.291698917346256
Pb 14.880820280841228 17.2820463898108 13.324681385809688
Pb 14.122603641172349 16.251498401735915 16.393163705244135
Pb 11.437108570526972 15.325200909608112 19.27469274810336
Pb 11.411240214655027 16.991632267436227 14.161930097426808
Pb 18.114353513216603 0.8764833079530436 18.392379448859394
Pb 13.159232200615103 14.465481433996372 12.55112022318309
Pb 16.735273280633827 0.0562175516529666 15.40607267659363
Pb 11.532804610476223 11.534333456500468 13.10617399668468
Pb 14.949179480242597 0.2689857013398927 18.169588654647256
Pb 18.1589349197214 11.744637840685613 18.463273578672222
Pb 12.420196962865447 13.601641885834068 15.750172078578126
Pb 19.778261239264953 19.48554692887168 16.267242926436364
Pb 19.559336208607945 14.490508291703796 14.188466546627348
Pb 18.096175330077216 17.45136827861722 14.19861340195481
Pb 14.364532763813836 14.221887359094616 19.163803109198057
Pb 17.366636897097084 14.624434198590178 16.959159324950257
Pb 16.943360090675323 18.023842557910562 17.537463153242516
Pb 13.92316580805891 17.738437288699433 19.57456920409189
Pb 19.58704205651949 18.409488487160925 19.396758418430053
Pb 10.776904928209587 12.363363654785498 18.257124940144184
