34
Energy = -110.74983232 eV
Pb 0.1321455322183734 9.892415382940799 16.4116511080289
Pb 12.967599144028357 21.176274947157754 16.16917245060459
Pb 12.875388088640937 15.110412161180424 18.047286398331206
Pb 18.78804838187405 19.716529236228173 21.155997851056846
Pb 16.256140564298 18.726473653085968 18.12874863387673
Pb 18.605066207727578 10.558495176190657 15.001563985442791
Pb 15.805974732199196 15.449820053533223 19.236715127440547
Pb -0.2923786906176902 18.72682498205342 19.049456538125586
Pb 12.686074970710532 18.14068329622528 17.069595134151847
Pb 19.115149462655655 0.19167893343022688 18.36294504326027
Pb 15.276590724219917 0.7241977342613818 14.131000396320967
Pb 13.08930540148364 17.396878111198752 20.20888198288379
Pb 18.762868757994738 13.080958604021127 19.703650213866478
Pb 19.073071304890508 18.702712871091077 16.364297038397467
Pb 0.30856152467927955 11.579592767544401 19.13398085573476
Pb 20.229215223819068 15.907594556870285 13.873155316698334
Pb 14.302225221287182 18.778045524078475 14.215054056035289
Pb 16.74562027563714 12.475153754302422 17.066804708758198
Pb 18.419302588131618 15.665071225538632 17.071931772308172
Pb 18.805380037120027 10.222269804734202 18.199429376263325
Pb 17.84620612179434 13.877571367307679 14.373801483351265
Pb 18.611370664731616 16.55407314649975 20.582237471920426
Pb 15.835744149232754 0.9067947556184448 17.268475157426337
Pb 16.81547967854866 19.97445440839444 12.37433638325778
Pb 17.026674840831642 16.966967441033788 13.349435401980843
Pb 18.4297641352203 0.34367869954039565 15.005007770734904
Pb 15.218030330254019 15.989490387619613 15.986916734924565
Pb -0.12030517370016651 15.194490798137634 18.84398046912478
Pb 16.452700024765008 0.32827280572061596 20.39180712499569
Pb 0.5867101869958579 17.053155268732986 16.3656699919948
Pb 15.880162804324188 18.34449926959121 0.17014293182131116
Pb 20.368385351660276 12.918871159489894 16.405259574536252
Pb 19.7129582334524 19.048745807325208 13.284729049250242
Pb 13.527972320956373 20.463303457668268 19.393600032615492
