38
Energy = -124.0171486 eV
Pb 10.09497376295432 15.936664883570087 18.223129697873677
Pb 13.07720313459096 17.253741285073907 18.170365496534867
Pb 11.301954053662927 15.327505405140387 15.424643277902831
Pb 12.621971504239058 18.4679583899061 15.154067774437035
Pb 10.585742888584496 17.79899837132444 12.629008085867746
Pb 12.334652096710453 14.58811825687921 20.044496070545044
Pb 16.333000692819578 17.933780102846352 17.549194252267323
Pb 10.668840948485654 12.803739263788605 17.793205347155627
Pb 11.463213383518667 18.966024443203885 9.679919104328702
Pb 13.541115245646635 19.01041108056216 12.090430942753873
Pb 9.597647311618358 14.659568737704703 12.719462560846832
Pb 14.873569295139797 15.86280801812014 15.515346433904751
Pb 15.293556092617845 14.97460083605121 18.954542660414
Pb 15.775652904173027 19.098386070576503 14.46965664871551
Pb 10.207036105370957 12.01199569411896 14.572582073419321
Pb 13.128494444882094 15.260055695907427 12.336563539642384
Pb 10.788099855762052 15.904233210796692 9.884951122020325
Pb 13.781187710068073 12.001400061668978 18.65056644196976
Pb 11.977108915020464 10.060085820750253 16.709052465343586
Pb 13.363242905852431 12.78374906858737 15.517044117919642
Pb 18.112287588922246 16.94489982751448 14.810144700695163
Pb 18.194315063353315 15.199147472825233 17.59819419717537
Pb 16.75741848733084 12.266095616533859 16.924076257036493
Pb 13.997091757321913 16.909162517622196 9.44216919165101
Pb 16.04232357002013 12.966107255444655 13.488885355811671
Pb 16.43352424832485 17.23534700061394 11.714316992234878
Pb 11.35208092388812 12.139309141153857 11.43433431556047
Pb 15.225403500565786 9.636329086149042 15.70498627733412
Pb 13.02351863108466 13.807907710786331 9.174131666353645
Pb 16.16378849366556 14.166281637331037 10.147310564737007
Pb 18.57576929803249 14.809162622003132 12.100988824285386
Pb 12.785600455708625 10.055759488783247 13.446846106638949
Pb 19.073558616464275 13.670348166751136 14.964330702571736
Pb 17.781198332760095 11.4169031790476 11.227190244101722
Pb 14.476436915972936 11.220275311916858 10.561576166239485
Pb 18.273850896590808 10.505347015224553 14.257276121097625
Pb 17.271577259247746 7.533030517241947 14.666905191427306
Pb 15.816163379171012 8.978932406623096 12.412279681327846
