39
Energy = -128.12399698 eV
Pb 14.13344453082356 17.903833122188566 17.46406274035821
Pb 17.492558699504478 17.94015663272098 15.90759988223938
Pb 14.425903007273515 18.588205587418425 14.403959695704547
Pb 11.180871693499466 18.42398165404365 16.02557562440413
Pb 12.845763205689966 15.808421867011228 14.830117105118259
Pb 10.99827521738147 17.933418750639134 12.829109861276491
Pb 16.677312901391737 16.86645765034329 19.03314151842109
Pb 16.629268605386425 16.926675483687713 12.769450706258432
Pb 13.467407603816623 16.517154401895443 11.498920926472243
Pb 19.255118452581208 15.535535062562992 17.56851710669209
Pb 9.115711604766982 16.266162118655643 14.849233376557168
Pb 16.009288091460448 14.934911142054748 16.263745969110087
Pb 11.042495894208807 15.577924600479907 17.633540046304535
Pb 10.093896253590424 14.86991551599605 11.954721321096917
Pb 14.00265115724732 14.748140388448553 18.973157827967086
Pb 19.157574026519082 15.271254661667292 14.417634976220114
Pb 17.193874610572443 13.75784819557286 19.375196090041133
Pb 11.342901943396829 15.182160464807636 9.012591380144366
Pb 18.29359528896422 14.71208829978612 11.23343434476823
Pb 11.866284107185097 12.34847715866927 17.42476124751313
Pb 14.414157936224886 15.642199100059361 8.583688020589406
Pb 8.859708633130701 13.424902670719728 16.271391497463643
Pb 11.550706804866962 12.634337589116715 14.116000968423249
Pb 18.435432025066863 12.495660117594669 16.523988544992424
Pb 18.7876178430416 12.131049990923803 13.161875238605026
Pb 15.779050220927324 13.674661655488794 12.957527250163091
Pb 16.18398565320208 13.09148105351708 9.29305820997263
Pb 13.254710199444675 13.232650656059668 11.021689762266384
Pb 13.096545303367474 12.796057162562693 7.686860613001333
Pb 15.252376743554619 11.91286718037464 17.579659726285616
Pb 8.488541189744431 12.1303027087862 13.23408206195939
Pb 9.569108990774456 10.388932147985498 15.770036355180839
Pb 16.14481596167342 10.826955703828075 14.563286664537406
Pb 12.805865600100999 9.877841205528458 15.307772539700933
Pb 16.65429326182811 10.52590912482485 11.309881965504397
Pb 11.526732250986843 10.80714599642242 9.991590195850302
Pb 14.498712242524505 10.21375120402858 9.000084201970814
Pb 10.535838208849972 9.612125018446996 12.874708785415121
Pb 13.78476770814182 9.315610627795408 12.13150932416349
