34
Energy = -110.73368704 eV
Pb 8.803126751846422 18.05544329887127 15.158371590522814
Pb 17.179296860501378 14.11397760753999 10.231382288402694
Pb 14.384483408938781 12.025166859176213 10.223431339289844
Pb 13.898162772602648 11.14009267895728 13.44041488631103
Pb 10.283552783022333 18.131573361304007 18.047136695410497
Pb 14.921849455119522 12.684197051827896 16.380778336578693
Pb 17.425033085454654 11.132984659682167 17.679752826650365
Pb 15.296585119648073 18.128565135063624 16.2960729353639
Pb 18.19419077794455 17.895394556843726 14.908176246963311
Pb 19.300856848415062 12.641687902153846 15.332221826712223
Pb 11.965464063032911 16.27490318304944 20.085404821693217
Pb 9.201874680974894 15.27395954986112 16.655157409861733
Pb 19.02607043896054 13.836005945147173 18.541503929011487
Pb 18.53746198581911 11.70796615007168 12.040533707663483
Pb 11.176578541773921 16.215124935276435 10.582884998473952
Pb 18.923428445141358 15.111509445216976 13.118685541191736
Pb 12.172175067194146 19.11224158347344 15.63242844362083
Pb 11.632036125921543 13.582646675083302 15.18922091560353
Pb 20.067685277166177 15.687973953705642 16.212115659026274
Pb 17.096561802252207 10.228223142265875 14.59815009351303
Pb 16.861242231699965 15.2112140933187 16.359551775639872
Pb 12.527392235538908 16.20396510454473 16.794049796407847
Pb 15.959056094614914 13.582318383886346 13.222955713238619
Pb 12.828607150793143 13.588302709453965 18.72367164482295
Pb 15.983583988939506 13.471518572054032 19.51874010578697
Pb 14.142850914676865 15.235474859165173 10.282292862211818
Pb 16.06118786110289 16.882745326559753 12.696005221722523
Pb 13.038380061480085 16.056864359329552 13.490353281975459
Pb 15.993453803186082 9.487632579673981 11.615259451837765
Pb 14.921140968982229 16.493595030710633 19.058232006213217
Pb 10.890178274871307 18.459702730884874 12.815242124943113
Pb 11.679301390564566 13.323492530124131 11.78301013147683
Pb 9.412621482336656 15.455341531803965 13.418352573043563
Pb 17.17275281720327 11.006245309612911 9.16596965826431
