33
Energy = -107.34477638 eV
Pb 14.43590282657283 12.296323406367135 9.470034845066786
Pb 15.451250813335815 12.667135037669215 18.924747080047347
Pb 10.65161345395383 17.000159448579097 16.035412289182098
Pb 15.05093990973292 9.577854252312676 14.089813665746878
Pb 19.361400082485144 14.707827565828616 15.577610006131394
Pb 18.33895377942559 14.828166959927465 12.463236933256791
Pb 12.044695605728625 12.15997706728739 14.131513179270492
Pb 13.146660812666953 10.307921724245878 11.415350038234141
Pb 19.369830436116622 17.689284029882526 14.264161591191586
Pb 17.970208123939443 11.783022618861612 14.35687450594164
Pb 16.927260439617754 17.7473047745123 11.644135906182711
Pb 12.999277257018175 15.462779347302659 14.138793685786178
Pb 11.409364500831744 17.307779602983185 19.15543209906307
Pb 15.120369306903488 13.503926090819686 12.404235153797467
Pb 10.006169981211139 19.95570408125286 15.033338598139625
Pb 20.060899720994872 17.290163436684026 11.186025630497571
Pb 18.41624838926002 12.396110914907716 17.66779594282665
Pb 12.092273796209659 13.49129477445307 11.17561542183163
Pb 8.968009143142927 19.01457269875795 17.79904745632294
Pb 13.047543914292033 18.890826428364072 14.48403806480267
Pb 12.06623459658734 19.99483411774587 17.480176344524853
Pb 13.22627800540766 10.833556756927132 16.879452151014164
Pb 16.30779927533199 16.335158494196413 14.593604520976031
Pb 12.551832028798003 14.163823669651777 17.086344270233575
Pb 19.005329339884852 20.11587806018995 12.174222891351441
Pb 16.551580303211697 10.845811641199436 11.441180539428704
Pb 13.973532559819388 17.320252756041214 17.020032552814037
Pb 15.424475429588698 13.144264986587011 15.704841654827304
Pb 17.065157683159054 15.3867105701249 17.76940547507392
Pb 16.74651411878604 19.551455930478923 14.336283291205632
Pb 14.281360156755321 15.653011604719838 19.632282946795335
Pb 12.026653297581216 9.017438740968243 14.023620481070669
Pb 16.385241992771 10.040529491292064 16.92220186848648
