32
Energy = -105.62433842 eV
Pb 13.175390803174325 13.3631803694903 7.853831004223796
Pb 12.343205503660469 16.501958491305324 8.753678243215695
Pb 10.03868332502123 14.38175077738817 8.008628122308462
Pb 15.198624514246053 15.517284569674237 9.919174065438972
Pb 10.781942814976956 11.376465242970621 9.058144227072706
Pb 16.227809004034604 12.761690290049936 8.85928001419795
Pb 13.373961509823943 16.705450159922716 12.724558907965426
Pb 9.767277175830765 16.332322163724804 10.680859998170952
Pb 11.900976179595816 13.909629091830482 10.947427794014398
Pb 17.252760616413582 10.709076384655276 10.95808760814176
Pb 8.643457085403357 13.371889022867476 10.722370450046666
Pb 16.49305816174067 15.301484686383446 13.016449610456938
Pb 14.886801127546924 12.81152085734495 11.849149733251059
Pb 9.606338343533594 10.627800847733544 12.20151035443882
Pb 13.97397627711828 10.268964745871981 10.105304895892143
Pb 10.681376114080386 15.219833439137002 13.898641274733727
Pb 12.240676519150282 17.360591028517202 15.875665263612738
Pb 15.47062091898393 17.217700305580987 15.41470671697471
Pb 12.228227477831386 8.579506840920681 12.331505870232172
Pb 12.510975018424766 11.459408895008188 13.831595215334701
Pb 9.570908019214619 12.373573110244346 15.10338530983019
Pb 17.290770374607483 12.234089506115678 13.929656190253072
Pb 15.44512134751123 9.437885803241088 13.2961242672734
Pb 10.321106428282793 9.154923072591647 15.001106145206801
Pb 13.698700755129881 14.334586975632769 15.177144625573417
Pb 11.30818140690879 14.633205327617482 17.470710246265458
Pb 16.52317824897779 14.203342503200718 16.753489671088527
Pb 14.20529005148154 16.166707470199544 18.178734759213665
Pb 13.312691996999602 8.50728714048945 15.578174790521274
Pb 11.845352347961839 11.085040547636343 17.229471813774204
Pb 15.390817564888247 10.887099255294105 16.40961352488546
Pb 14.013568929414554 13.011846873796825 18.61475855830997
