37
Energy = -121.65253919 eV
Pb 13.476991410121787 17.133744378901003 18.302707274151416
Pb 12.44059138865018 15.518218175094015 12.189130923057435
Pb 11.94094954857243 18.86867636484565 12.722195360509343
Pb 14.717837496922968 15.571077963886196 15.427809245676832
Pb 12.835372192211674 18.035610266784357 9.588853207897701
Pb 9.838958795626858 17.75150348133172 10.271715586257487
Pb 11.089354627912225 11.668348796237915 12.497786993802299
Pb 15.089337948891743 17.94784740945544 11.884866742675024
Pb 14.960464963482508 9.056867678644767 15.785589497278863
Pb 17.340681807890114 15.484652885142895 12.301624002648174
Pb 16.3601178758382 12.642337931450529 10.811269797648247
Pb 11.685126890299129 15.09708178829168 8.985546862325565
Pb 16.262271224699123 12.503294652543467 16.225915355075234
Pb 18.47258434686709 12.531921325525719 13.406794741506491
Pb 16.272828486882993 9.912090940846424 12.621412542791516
Pb 9.366388213113552 14.372573026251063 11.244868348993224
Pb 18.331800923215948 9.655948324492433 15.023701324240243
Pb 11.494425213869667 16.944573510819044 15.745657649027475
Pb 15.19578675992638 14.632966834340044 19.112886659345882
Pb 17.20287748404489 12.167800304023311 19.701079262719535
Pb 18.531779513041705 14.824931494375498 18.599910507501978
Pb 14.175999033081307 12.659152366635928 13.426916252931958
Pb 17.299547782101858 9.618487089744779 17.96301005157447
Pb 13.186429346967383 9.428739574981813 13.117424341411311
Pb 15.074686783722614 15.479308657285438 9.748152689795116
Pb 18.79504724010851 15.251149760002441 15.409437404148722
Pb 14.229909461265747 11.200082025425173 18.365804537243587
Pb 9.14486770779353 16.968886582477754 13.397301574833719
Pb 10.362080979912879 14.007271386731908 14.63377354171863
Pb 16.707616349041267 17.295502910852914 17.66072628693395
Pb 12.192615680697605 11.126219765979464 15.70375751925381
Pb 13.235130529241871 12.562923980185412 10.29203030020897
Pb 14.103116506389874 18.76516861294675 15.479238677877417
Pb 19.4231187602739 12.1611176462143 16.909965519394884
Pb 12.2989787914904 14.062913464279909 17.376132135998766
Pb 17.03298928818492 17.87963901829499 14.475325350601869
Pb 7.185649007841398 16.565679984872975 10.943992291137773
