31
Energy = -101.42856692 eV
Pb 17.085432282052405 17.990379395337904 11.16360175690607
Pb 14.806989343419325 16.931200803519463 9.257242103563113
Pb 14.144359791538406 18.95189159068023 11.815245235404271
Pb 18.782537129745368 15.961410265412264 12.809950151125369
Pb 16.972760737543176 14.633866377166457 10.307584158967414
Pb 15.134660165409827 15.879597659691605 12.889599715904254
Pb 11.975189711313515 16.692192831978556 10.963330170240848
Pb 13.700933854303537 14.049713451780207 10.155453898595558
Pb 12.35822383557138 17.747927229079195 14.158199491585513
Pb 17.825445919705615 15.334166503824106 15.738508360035572
Pb 18.14762504748678 12.960763494449072 13.202206764491194
Pb 15.479125251594319 11.655527134551647 11.683730954677497
Pb 14.796952667164494 16.671577532405998 16.299416712554066
Pb 9.540765350155768 13.313504500384473 11.48277061199035
Pb 9.734031667870795 16.018438869230803 13.230486011875941
Pb 12.107648743078506 11.064955041797402 11.112387072444214
Pb 7.330136095448531 11.478842218715439 12.971857484000996
Pb 15.101702170025384 13.214107272441483 15.673993087822238
Pb 11.603485847562354 15.20327703541034 16.054559189108176
Pb 8.989571696746903 10.278312001088626 10.686991487201059
Pb 9.052571622003788 13.300319257067482 14.915817194706545
Pb 17.098307657579685 10.24017201048232 14.28399041336036
Pb 16.65110228820329 14.849124422196278 18.601960951418874
Pb 10.280173545044034 10.453022667824117 13.739175681462896
Pb 12.351751246013864 13.47463114928045 13.320684612477628
Pb 13.432216336936039 14.63672328920042 18.51649111207044
Pb 17.91184086670213 12.118437704898918 16.964504008719548
Pb 12.421850011800334 11.776078458263823 16.900680819763824
Pb 15.282583520650778 9.887596893768936 16.897526016433854
Pb 15.225068988802438 12.029308633210723 19.12191763907715
Pb 13.699464797888478 10.22744249422263 14.104645321377033
