34
Energy = -112.3281293 eV
Pb 18.067334488191104 12.964757111172124 10.639595451579863
Pb 16.96308462762756 15.598382628456202 12.232744504971826
Pb 16.827311727194346 12.28637275571381 13.601864284904513
Pb 17.17790071536578 15.55116275309284 8.99042100680825
Pb 16.460943904255906 9.26104836031066 14.695402541693264
Pb 12.666725190574844 13.602430544663534 17.48140750839835
Pb 14.593811327801196 16.94552964792056 10.395762556451892
Pb 15.732518577812675 9.93348975822387 11.526842122881304
Pb 15.066216317592302 11.501495314202245 16.85342352514509
Pb 16.185768559362852 12.610206731317456 8.029107292806328
Pb 14.713495333017727 13.64478825681755 11.0722693497446
Pb 12.59187224127672 15.674393103414165 12.862391857316227
Pb 13.67213916184506 10.9530151459892 13.895843055420006
Pb 14.056518421569958 15.018168712441748 7.8202049620930785
Pb 14.157064186036036 7.4611486618640885 13.397205385422511
Pb 14.636480994484481 14.349327863459324 14.913821462348581
Pb 13.84617417691968 8.467471595192812 16.457474849100464
Pb 11.162633417710587 8.597073498539716 14.423282633701355
Pb 11.43811192655281 10.43510032166623 17.308899232468693
Pb 11.395693745271306 16.156164034753203 9.85027875776016
Pb 10.952838913318867 12.785597944657535 14.526103435363668
Pb 13.32566765173743 11.639799950821649 8.967573298058838
Pb 11.037594630445666 12.894839875334236 11.150387242203061
Pb 10.740868319347372 15.723687681949341 15.779587202823032
Pb 9.227500601562143 15.643351397054419 12.638846404946577
Pb 9.323322216058028 9.972434605771367 12.039979596199409
Pb 9.506780780774779 13.03009888487501 17.562686048092033
Pb 10.887895646936022 13.569284770194837 7.9069896405530296
Pb 12.467695108145145 9.24186447927792 11.211301255732048
Pb 8.600516944869533 10.696538195010742 15.230562303906453
Pb 8.37207671546967 14.67292385016435 9.583572471064878
Pb 7.84579170873317 14.042046269405272 15.134863740619084
Pb 8.699506207174029 11.52956081172664 9.211636046037615
Pb 7.509499409001857 12.73377582835344 12.083901706457732
