32
Energy = -105.31933659 eV
Pb 9.976582726054405 9.368230984130586 18.36920974436736
Pb 13.925254055953271 10.476404948178605 10.811431617837783
Pb 14.890412195305634 13.214809711813665 8.846385135955984
Pb 13.11428549351149 8.972015428424557 13.92346433274433
Pb 11.761713072908533 12.307189696558687 9.286925017233065
Pb 13.018474509121253 18.07366780608542 10.191023039160282
Pb 10.183495190109527 9.764897163831428 15.207223062047396
Pb 11.990432174868129 14.460826628737042 12.106233002954596
Pb 12.5208934585226 12.044289539646492 14.564768089410505
Pb 16.270619324495506 10.36142513108263 13.409837931756874
Pb 15.309292098938098 16.457041103046866 8.915579558705408
Pb 16.623258808607652 12.94016689209466 15.529294523136443
Pb 11.284128765736787 15.241688541278046 15.592274718490348
Pb 9.200558830474758 12.837443268941064 14.075268166534684
Pb 15.223814680293724 13.479826744915135 12.489761432613035
Pb 17.539380151693816 14.762978864449083 10.478772722703559
Pb 17.11197564356115 11.408935192471448 10.416219363785405
Pb 10.061429516754618 17.213466168970044 10.61657897595253
Pb 13.662960382030041 13.293481807809155 17.25845744170264
Pb 9.057030393830635 15.896440525372672 13.285534891815283
Pb 14.931224720064165 10.15361772913495 16.5659535619442
Pb 11.994101708396931 15.4076109996421 8.564480203004065
Pb 9.141637361352757 13.946313796917083 10.640529464391358
Pb 14.614831776121905 16.062297518613224 15.112128456926788
Pb 17.571942330360645 15.621313753132878 13.773309431872216
Pb 12.131255443486179 17.61494993755382 13.339688511269062
Pb 12.804322086074926 10.668143933211322 18.913833982676483
Pb 12.52746946457413 8.050703856513525 17.027835323387116
Pb 15.482850371369427 17.43919319935758 12.164613765866024
Pb 10.638683775948905 10.939443065754986 11.932453735726321
Pb 18.585019353482362 12.718554035788948 12.889408880078888
Pb 10.414116229618276 12.366078120164376 17.264968007572076
