30
Energy = -97.67630863 eV
Pb 11.231936054796192 12.135519450511666 6.554804812779693
Pb 15.556224672359523 9.589660091717095 8.888956090844333
Pb 9.276065164601162 10.234029500998954 8.02101019391387
Pb 14.044133099459025 12.453505805904339 8.057893918901579
Pb 11.884508031392162 15.05790683803051 7.583328780628238
Pb 9.230300470542403 9.984242095219438 11.178852758157852
Pb 12.230860987196039 9.509905237573248 8.786670351261021
Pb 17.24623531762677 10.900229300166318 11.153094007863908
Pb 13.805302643917608 14.901809103767366 10.28086686692503
Pb 11.051465942174385 12.680404568588395 9.805278382688707
Pb 15.514256337588137 8.195576694823723 11.913179208802678
Pb 8.54994720056281 13.71486706887848 11.956539216151635
Pb 10.858248078657782 10.920701096823596 13.866604370312293
Pb 10.47871385798709 16.072989180044164 10.210422918903339
Pb 13.847754982426455 11.170009236987662 11.200449060671177
Pb 12.470451081806235 17.41320610200089 12.51172656506404
Pb 11.867732169711184 14.109263159101095 12.873351236831164
Pb 17.05201442547999 9.96969317818776 14.107113912638393
Pb 12.038448580968646 8.203641911458947 12.065395137410269
Pb 15.42812385849245 12.755365807844624 13.364887773235944
Pb 9.39511045316192 16.654766429728813 13.239688826403368
Pb 13.942509653956114 9.898117421660123 14.524845987756935
Pb 8.857949050707877 7.931992237035579 13.560421718799116
Pb 9.369176792774647 13.96368004451202 15.185723011731994
Pb 7.579753455932575 11.037091055957152 13.84002919859786
Pb 14.446869659022619 15.5976223813448 14.498987484868438
Pb 9.125562002983637 9.66711637699064 16.239205337596832
Pb 11.574034271297428 16.38520234546928 15.589829440510647
Pb 11.573452896486057 7.859014112906876 15.265896783680503
Pb 12.675769813617329 13.235783173452665 15.877857653755486
