35
Energy = -115.4388563 eV
Pb 14.574954306071374 16.64152752104299 15.50124253980178
Pb 15.463918457630085 17.12791450370305 12.451350880136394
Pb 11.507832075785696 15.222718189569138 16.11570617276355
Pb 14.176093595889006 14.934349178136198 18.145018009106302
Pb 16.798114318108585 14.32946753727175 16.299526179365525
Pb 12.179335507047135 16.775106435954708 13.182006638056333
Pb 17.909709782123063 14.882336273336971 12.227328685140938
Pb 13.335041562677118 16.608980194387655 9.850739225965938
Pb 16.569579141554353 16.241012206697132 9.573248340117146
Pb 9.063972939767432 12.5304913457312 15.866769462487484
Pb 14.022360373739017 13.158934759695494 15.026594951431521
Pb 10.139986203079495 16.494784489974155 10.630233765915845
Pb 14.967355435392196 13.751832357020351 11.50028722649491
Pb 15.412226400212164 11.998467352741049 18.093783417149336
Pb 9.372665325317403 14.965578417995465 13.474351384665038
Pb 12.100412811650942 12.371906675311273 17.834280653184884
Pb 16.82458962453915 11.283106376070823 15.26731821822107
Pb 14.639735866459702 13.987362974628763 8.114576898456386
Pb 11.372141536002632 11.091321872146308 14.039200213000422
Pb 13.695383844845765 9.715628249472493 16.3057776094605
Pb 8.001049242868653 11.834524541488367 12.703978324071224
Pb 8.236582216644821 13.995739838211948 10.329290218759214
Pb 11.504889388849882 13.386868313805536 11.300622509232433
Pb 17.748140883271248 13.351491672020835 9.296855318545381
Pb 10.961075944989988 14.366693727023861 8.267012546091843
Pb 17.60360136240848 11.662092281930748 12.088839988380139
Pb 10.422143126113202 9.710503993612418 17.139251313403996
Pb 8.35451260582468 9.430813059124281 14.809669516112377
Pb 14.852767336007489 10.149624627291411 12.943554395356765
Pb 12.413134502282492 11.49069759329615 8.102448647982458
Pb 15.411668763231631 10.983426694611401 9.471945864592987
Pb 9.577170121208852 8.967039314851618 11.901972792803814
Pb 9.495508035148498 11.224756832156034 9.409040443327541
Pb 11.390386011817567 7.99083774450658 14.466152079395831
Pb 12.500442122314293 9.891470900293244 10.898783624076628
