32
Energy = -104.77475109 eV
Pb 9.722029454698717 12.048644072513376 10.893313405356743
Pb 12.20857095542593 9.738641323859577 11.822428609858633
Pb 8.909432777679545 15.164844341222256 11.061592662347854
Pb 11.36807008294224 14.630415161905612 8.917773482102692
Pb 8.690976615292756 13.571741763263026 13.858306620619071
Pb 12.242634040093982 11.54874195558738 8.961993573961982
Pb 10.87601877798248 17.46420704007274 10.370429605901895
Pb 9.501427853532332 10.263896206459316 13.535026638565787
Pb 11.877091399231833 12.771634800472807 13.651945040520248
Pb 13.916866117223972 16.773285642969395 9.585410646029802
Pb 14.980085014770452 10.740563896077374 10.266860587893685
Pb 14.748820381185913 13.751258901440638 9.078815646523529
Pb 10.407634272551922 16.742743360790413 13.576897734017463
Pb 13.231876321699248 18.209169950722682 12.376200578602047
Pb 9.7949218882589 11.698164501384865 16.316918705644035
Pb 14.358797665075416 14.909102503356571 12.283995189446994
Pb 12.340691208682127 9.727980856903013 15.270903135579186
Pb 10.696093362521623 14.817436302129776 16.293253034570395
Pb 15.117282234960335 9.4545173195183 13.382421133652608
Pb 17.252650310048104 13.088539221126538 11.073206954333399
Pb 13.152137816961702 17.105504711799984 15.485538542144795
Pb 17.725813345249012 9.980422775468528 11.47314260362028
Pb 14.815942052764187 13.389291283151652 15.345920883254
Pb 15.99491675362418 17.4867341693206 13.702622736906632
Pb 17.68704254551465 14.792037910872669 13.809571384112541
Pb 12.656488420908621 11.902704552027418 17.75926425962797
Pb 17.826450521276374 11.416853638250862 14.199785363532563
Pb 15.643741141748574 10.336894722278783 16.478116490086993
Pb 13.494857739655453 15.138986499979215 18.083145510023574
Pb 16.22144220596674 16.195057646862416 16.63382732046756
Pb 17.94563623061053 13.296259647468714 16.73055871108974
Pb 15.534164814412817 12.784327643294882 18.66141753215615
