35
Energy = -114.80346792 eV
Pb 14.352304823665436 19.366939428655808 12.837404266972708
Pb 17.60086563930025 11.135036762093463 11.646161527316057
Pb 14.547771405853844 11.156070261163832 10.449877441248894
Pb 13.594261155829448 18.693969246629525 15.882841926731599
Pb 14.87895018136989 10.901373697191742 13.811187761060758
Pb 15.882244420401534 8.315833641727643 11.781826321542018
Pb 9.110461425710872 18.350799479684248 11.716712610345752
Pb 14.647497087586094 7.6117569525462585 14.607826998124086
Pb 11.824908932460891 12.294050122623682 11.716442580600367
Pb 17.920309831194487 14.417808529938263 12.380930886184501
Pb 10.501097628026093 15.276416125539267 16.809002746409373
Pb 19.314236621388464 12.683829533152993 17.241850219729173
Pb 11.358054470577677 20.129313762348243 13.657472369392869
Pb 19.597914182463146 12.109081323361293 14.066474763191415
Pb 13.33158197769491 12.169541068754627 17.609088777722345
Pb 10.30387641237736 15.42402782949206 11.623064169576022
Pb 13.042632248998999 14.845596066968337 9.979766583832522
Pb 10.470853606707136 18.350457653699703 16.47250619717815
Pb 12.720974905132048 9.006920146621795 12.335924060998074
Pb 8.727169878850212 16.323143026543033 14.376450348372328
Pb 12.365584797170785 9.859644080287298 15.613911230492478
Pb 11.968201544333494 13.22196794034442 14.893140993864758
Pb 14.51980256398637 14.053054867013275 12.90257612098513
Pb 8.331945740502023 19.601193267008604 14.430397208831131
Pb 17.5926778644677 9.271939864348175 14.526251857736552
Pb 19.441091493087775 15.270576392179278 15.176150071803802
Pb 16.325073074028875 12.649007459156776 18.626955862467188
Pb 14.183128717515746 15.246360737627185 16.519879426622968
Pb 12.270624100884252 16.634855965960448 13.869085509913686
Pb 16.728997718162727 13.133149237141653 15.371118188807742
Pb 12.180715463293339 18.151398744350264 10.637340155163473
Pb 16.444955188532024 16.58536121192369 14.626905585449201
Pb 15.476201933378007 9.719933246171403 17.09535879961514
Pb 15.149628903261265 16.77628019807196 11.228643438971474
Pb 17.495475753708124 15.46538382158109 17.681544684647957
