36
Energy = -117.57040214 eV
Pb 12.707507475903286 13.235922805643177 11.312954854775265
Pb 18.908140686324753 12.002310923887423 11.653488499440634
Pb 13.318900826637877 21.375773999538723 15.182840633306274
Pb 20.252867969537796 14.309522616406548 13.50194459348228
Pb 10.31821888232186 13.207653814494037 13.411614026519358
Pb 13.603314520246968 16.675952252310843 18.559557283234824
Pb 17.51757876613317 9.387386745728849 13.256567696595436
Pb 18.336288863255422 16.76571750418442 14.043311838308743
Pb 13.886315687125816 13.558310782662216 19.922526611670694
Pb 18.093647037125784 14.09857013798532 16.023367790177023
Pb 19.55087273384549 11.459461567248423 14.79408063269645
Pb 9.571636938618672 16.01504048572716 14.788668272560594
Pb 10.84987620009915 19.220809271924526 14.828228949651477
Pb 10.774549152185369 17.003967880468366 12.006286707971283
Pb 16.13738521814113 20.088670882815084 14.129795686774308
Pb 14.663972706958548 10.75287443487734 12.259846710876882
Pb 15.52177566134813 20.181002407045476 17.249481633851182
Pb 16.011973501140783 13.231648009686731 10.142959209172437
Pb 16.290555485717803 17.689133438184353 11.815578442154965
Pb 16.71279681282822 12.40945485909976 18.958792769287125
Pb 14.7473988222845 10.626021061932788 20.789120681096534
Pb 13.536630882709668 11.098659826734943 17.88997596142216
Pb 12.385357177981117 19.925065167417987 17.827449399155686
Pb 16.856255465306734 10.077267827188562 10.196506320430672
Pb 11.595456889042886 14.257704810995797 16.882156598639963
Pb 16.086497273299734 14.466967545840298 13.132370007382132
Pb 10.564024853852887 17.24774658800981 17.65890981494246
Pb 16.21234364477449 11.32081151299319 15.49516190101493
Pb 16.166550885102517 9.357127034316594 18.294374917184374
Pb 18.509445935692835 15.33289480941755 11.011350719503788
Pb 14.063375667533906 17.97889029035052 15.547763441372222
Pb 13.26214233988282 19.24174484060009 12.581140751172027
Pb 14.875560105129214 14.162056523878064 16.7308677876579
Pb 12.962075755086081 11.984020949637571 14.710701753163939
Pb 12.831721215579721 15.39600558225096 13.941464678858996
Pb 13.670008144086387 16.210850991358715 10.821812607336154
