30
Energy = -97.50856919 eV
Pb 14.633494734073231 12.981616578977516 7.55682021186309
Pb 11.743911660720633 16.58252885236477 9.739293842829696
Pb 15.27283903771885 15.140028298879644 9.786718355635394
Pb 14.173973589206076 10.474545485131324 9.598070298758143
Pb 14.351132795231091 18.170198841321604 10.513393163792513
Pb 16.938737933980725 12.083995325146862 9.540968259585194
Pb 12.257661894970939 13.182876810021675 9.679848199682116
Pb 17.419921046393295 13.64817944621375 12.361153920336099
Pb 9.624994126289714 16.41410812926817 12.366264927794013
Pb 11.760666225238534 18.665679114102904 12.453172042932078
Pb 14.094630996398188 12.473886355471857 12.1891457893709
Pb 13.181883580522422 15.645072536592808 12.599259530366028
Pb 10.481047905650799 13.362483918188449 12.59023998873889
Pb 16.827994937491685 16.88813098519087 12.174426167236149
Pb 16.41874065563798 10.409832516543691 12.126314714339626
Pb 11.396418806533609 10.70463362078966 13.88846035300663
Pb 9.608471054902585 12.850577991539579 15.80077788720172
Pb 10.843904959197577 15.832860612458969 15.250845624429601
Pb 14.539126295254095 18.26866146734222 14.080277092955482
Pb 14.419494456216668 10.200543902240387 15.228175365042278
Pb 16.160066488560524 15.512864601521704 15.036785183155187
Pb 13.160303910788256 13.304245652272298 15.34140389280735
Pb 16.841369361458167 12.39135780633414 15.447520529068814
Pb 11.552294821505205 10.812526281146427 17.213434555829114
Pb 13.581292744145628 16.550560201956245 16.775290125279266
Pb 11.786833568667967 13.959503348503775 18.242472545642297
Pb 15.322952902266072 13.970984303744183 18.174218354394622
Pb 16.16569853097773 10.835675160911654 18.169887599284504
Pb 13.764691713969604 8.833948162812497 18.184787103509144
Pb 13.534368334156213 11.706812761134241 19.749493443258302
