37
Energy = -122.2719677 eV
Pb 15.040999430363271 9.384196027440028 9.338719541461696
Pb 11.6131336396622 9.789485767567859 9.758535737274388
Pb 16.764013126668452 12.074721507846153 8.483732826251188
Pb 13.191660264667375 7.312997308415781 11.09897127112761
Pb 13.59886410782187 12.183431121968473 7.421200472081812
Pb 16.22333835616118 8.074986157790956 12.159279908458073
Pb 17.22214037167573 11.159945399849303 11.591885605686567
Pb 10.437956102002202 12.089550212184234 12.087184452940502
Pb 15.600960234817384 14.912814444919935 7.720435499541306
Pb 13.813003839787848 10.517716252690327 12.336530745636619
Pb 17.065924297144313 14.510144285975642 10.815227988713097
Pb 12.483243391432511 15.335348530764769 8.016282538849634
Pb 10.710478988315435 12.889743776367112 8.992428530899142
Pb 13.776022258728597 7.8128556385874655 14.240472368568769
Pb 11.020578243198871 8.91492142235243 12.985918677181635
Pb 16.292101691975155 10.32220860937979 14.77221271113801
Pb 13.976672795753986 13.300104990507613 10.402608292044842
Pb 17.005217385186675 13.460419341241826 14.049499120949033
Pb 11.48874536615263 15.394555955359447 11.375816374237301
Pb 14.482576486115468 16.662916249111984 10.178794481771348
Pb 13.312821714205162 10.428528903564583 16.17929158551717
Pb 14.710934981580916 15.804791272153597 13.287584018858812
Pb 12.843761824121346 13.277496466847737 13.997457539726403
Pb 15.58778778974187 12.714723902758484 16.99217947575859
Pb 10.477716295566907 11.98862576918799 15.690527900185186
Pb 16.49451760006928 15.867385807518097 16.575387857175986
Pb 9.806512566172408 14.901651987337273 14.477124498590706
Pb 11.629566107256638 17.730429167290062 14.139774253272734
Pb 14.7042340290583 18.386873781311937 15.285291063950657
Pb 12.927293248881204 15.619071197633993 16.484577699828876
Pb 12.479625055777154 12.638767332491076 18.48757991968758
Pb 14.872064375756876 14.816654060535638 19.301949982863608
Pb 9.665748227828942 14.206138157300648 17.90491397112627
Pb 14.786683621208061 17.87355381942099 18.51768016470973
Pb 9.690772203684771 17.15788763404649 16.740375698235265
Pb 12.164921313124847 19.107340963462427 17.161199207876045
Pb 11.808886894168232 16.43238723983618 19.394020802771394
