36
Energy = -118.35248654 eV
Pb 10.896106774659865 10.221406023862595 17.09240483480655
Pb 12.267840762837075 13.259189656851474 17.68299367820582
Pb 9.117483821113025 12.638103202081004 15.7790807763664
Pb 10.510272176247586 15.720849858712597 15.459496013467152
Pb 14.162443125169585 10.225256714010117 17.119324233204896
Pb 13.28832850644705 16.292891730170073 17.248197044904394
Pb 12.39368362022319 7.901318786770575 15.490968522912306
Pb 15.512298564057765 13.821846406602157 17.13290443091741
Pb 9.709967611108585 9.756388471452416 13.988022104863747
Pb 16.776113529027306 11.22304548469844 15.414244794036133
Pb 7.577446961838309 15.100775595451266 13.661500508542282
Pb 10.401985079080145 13.20341403281329 12.781111939586296
Pb 7.130164961126715 12.104912785018826 13.111268465201864
Pb 13.522109026567948 14.244871010432234 14.61309938950349
Pb 15.266363091510756 8.642290136775255 14.079398858192377
Pb 12.935483944801607 17.44717622106969 13.957466244665946
Pb 12.697694269690096 11.020586437620004 14.363339450837787
Pb 15.839233575189299 16.636434794315512 15.348622324126588
Pb 15.674595269833691 16.897372265821456 11.884230810166894
Pb 8.12276914745258 14.125195992430728 10.644897247440394
Pb 16.88703602917454 14.013410299695156 13.752730483673583
Pb 13.419380444716383 14.588453027137302 11.2937105476462
Pb 16.724924915031732 14.170885891018266 10.270707293706973
Pb 14.423849816789847 11.368165111159232 11.516662429527523
Pb 17.52243621995835 11.062585651000335 12.156447167282384
Pb 8.956605826175785 10.83527118758268 10.898933041672326
Pb 12.71078463869106 17.829931094120603 10.578160904023632
Pb 12.561394899706668 8.58824919381857 12.184964042255421
Pb 11.657234560468542 11.948957033882436 9.673096316728559
Pb 10.014374459481145 16.557092845154685 12.00409770966821
Pb 15.883389935834398 8.486251961036071 10.799538643862066
Pb 14.360716335157456 13.081415370212868 8.186044043476238
Pb 14.554487367702478 16.29542901224399 8.585689878486706
Pb 16.869736013114334 11.037906448163742 8.938295904754426
Pb 11.303417616994084 15.262614587772866 9.00495131969566
Pb 13.941366333056033 9.732836699675422 8.614808534859128
