32
Energy = -105.31704448 eV
Pb 18.584605114528912 13.333585941493125 13.764954999272916
Pb 10.516952723977639 10.688653372605444 10.34702589098599
Pb 15.359725391892363 10.957458007216454 8.96227969202916
Pb 17.19868750652613 13.774237922549313 10.816448609596335
Pb 8.474973034843767 15.515306473594427 11.62722291669737
Pb 9.766787648672336 14.185342673530451 16.936088748724835
Pb 16.525948636337358 14.49543381458146 16.192547131297076
Pb 16.632703294197245 10.736686060881604 12.176307006856986
Pb 14.094553990765476 16.27364800065931 14.428579268484258
Pb 15.115141231868302 13.325387650380337 13.514527028318476
Pb 9.332208699419576 11.008507055844943 15.961820528632613
Pb 12.109053152318136 9.255602061820488 16.85509682616372
Pb 12.745732572037745 15.437098758334809 8.082309678035676
Pb 10.753984863106705 13.17224866610182 12.527503446635047
Pb 13.468837816476169 13.125232677986164 10.599472833487031
Pb 13.027789152322066 14.683288699007703 17.17514563365383
Pb 14.504362225940374 11.563498414229835 17.484185740451185
Pb 12.697264284769503 12.27996546509596 7.503807633173563
Pb 7.907689925948911 12.213728503092542 11.611121297084948
Pb 14.392858301267264 9.441622836243864 14.55023318578553
Pb 11.122642002948782 9.510011272279018 13.594445123730189
Pb 13.482886070248185 9.722736428921829 11.372654108928842
Pb 10.06176240622986 13.739803049953634 9.247616819517548
Pb 7.929809438101235 13.879726393693227 14.3184319425513
Pb 11.357718894713146 11.87945651892714 18.43890105138281
Pb 17.098570838007166 11.220194879110341 15.487077151435708
Pb 17.17112828899843 16.13728823789128 13.386212492320388
Pb 11.529449581542577 16.28521850088724 11.046107395127445
Pb 10.736229516218842 15.93614706694133 14.327540527258904
Pb 12.288994721640242 12.21197774178276 15.18146226998881
Pb 14.928537081655682 16.1493614118387 10.91826505423605
Pb 15.518085750679331 13.957250322173278 7.9522731054693105
