34
Energy = -110.92300202 eV
Pb 19.220894908191617 12.499425035574316 13.929191666859746
Pb 11.366066294436795 18.35595572325434 12.889333284944414
Pb 15.922637462392652 17.62099397481265 18.610493524546865
Pb 14.125861598955845 20.185568150576767 12.689236197527205
Pb 13.28473812381656 14.706712429571649 10.873085462626328
Pb 14.515911982799405 13.365249262928778 13.551378288612417
Pb 13.00277282136824 16.54098441604957 17.087366738997012
Pb 16.69995049472865 10.697982595855779 12.544167119555716
Pb 12.664330025897183 13.220251472905536 16.377515695345842
Pb 16.76804076712769 13.620298057083 11.19069980877372
Pb 18.434631899662094 15.753779027794499 19.451819730827214
Pb 12.305427148678707 14.319188904908724 19.54260524156545
Pb 11.18822508193846 15.315491359977957 14.287897111620083
Pb 16.69068564403456 18.19776885436367 12.01043398556081
Pb 14.528813212749888 12.000516979633042 18.882895151162206
Pb 19.497498656209338 10.975683873148673 16.8419493778
Pb 14.175687951968193 16.811298287163975 13.626833145904587
Pb 13.763730001326 17.98385427092479 10.42316942623525
Pb 14.01591067339081 11.35076661458875 10.969148636147526
Pb 12.845739781934533 19.631905254632 15.564779872033006
Pb 17.216576603698307 15.392604070674572 14.159804372005249
Pb 18.453409995466746 17.356034607059108 16.56679849396257
Pb 17.975704887996862 12.612774049778999 19.438734392337935
Pb 15.76788231942481 14.793082474587392 17.06795341311895
Pb 16.86676020824884 11.065429836947873 9.35642714405285
Pb 10.047894896657725 14.99461099173433 17.333855990403574
Pb 16.795548374806007 9.881021908445405 18.302088251257757
Pb 16.569807348281884 11.858172276117603 15.815837655381847
Pb 19.312900296340604 14.208765196560256 16.669020943432145
Pb 15.381249156566982 14.871275282644994 20.362444524433773
Pb 16.008231154083134 19.01702356380187 15.285610517074428
Pb 16.162615134727076 16.103792148375224 9.459740218663073
Pb 10.208831655030336 17.924309336755435 16.18783802588426
Pb 14.773172545572551 13.272643736582198 8.441910106899657
