30
Energy = -97.60974918 eV
Pb 13.556957336105905 14.07429956370379 8.168974856347232
Pb 11.288109051784101 15.739691587455626 9.557871873511708
Pb 11.059721502648317 9.988150947053224 8.08621780001107
Pb 16.053728199125185 12.99858381817517 10.016995599877795
Pb 14.087734706339518 10.93747884747796 8.440546251393085
Pb 14.176670539406862 16.017796379936442 10.950951153930154
Pb 10.020952295718065 7.933468938069231 10.222809469697923
Pb 8.721424197847771 11.012906055353652 10.219462737299182
Pb 13.751295928059957 13.195934829427795 12.34000969398705
Pb 8.788752143250075 14.34407406442923 11.136972312112713
Pb 11.561397442155624 12.472017629541359 10.111603520122008
Pb 15.778158741515517 10.711233137144028 12.591823574356
Pb 11.193684628531896 16.20451287289578 12.787011832305577
Pb 12.858250902711701 9.382657520358235 11.012890165409074
Pb 10.01350148778423 9.379953483851331 12.915421450228594
Pb 17.091474545042193 13.838504487054955 12.92883301166167
Pb 10.784674604889469 12.74577579041523 13.82775640492994
Pb 14.818299602608956 12.547073597903477 15.385559813636705
Pb 17.975826507944518 11.521288441222167 15.063909192642555
Pb 7.678511302810568 11.983792667463021 13.673146792860026
Pb 12.824227277752161 10.011081020773183 14.449411523878808
Pb 14.76458922183445 15.652874195941665 14.49538638573458
Pb 8.39301068000134 15.231421910544062 14.217693402473321
Pb 19.82596133394614 14.047723353150953 14.464414657010565
Pb 17.906344363033924 16.57887153542522 14.338857685789076
Pb 11.307700957207338 15.141968436151537 15.973228685460944
Pb 9.340306912976416 10.16074796623734 15.921321854410643
Pb 17.337979961392904 14.362352278166567 16.533902671318522
Pb 11.760213473894174 12.024009955191444 16.9719874692738
Pb 8.731489331669986 13.210703869475042 16.645977338319085
