33
Energy = -108.17289553 eV
Pb 17.654444552256322 12.139792277787649 14.410121039887828
Pb 15.841313936963946 14.782674253002906 15.428022758276196
Pb 15.1135245227369 15.621976610763511 12.0308535666854
Pb 16.65016035377692 12.882986530331047 11.027236105864025
Pb 16.389012803490985 12.161233255816384 17.372397428002078
Pb 14.569177735205296 14.219400697815058 8.712526388133975
Pb 13.309737481538816 17.092824728168168 9.804730670385256
Pb 15.669951496116632 9.668924037627377 15.4822161553722
Pb 11.48670472988488 15.285153125985316 7.856528633373715
Pb 15.063483765673661 10.842311356673687 8.794370629094123
Pb 16.2338036911126 9.966163724088334 12.302425061590371
Pb 14.276024929484253 14.20640933875898 18.318144889635086
Pb 14.558579223616377 12.480506562399906 13.571231211082743
Pb 12.134420297434618 16.853269903088673 13.194844364498204
Pb 12.218031641156623 14.154840692213632 11.150888243884395
Pb 14.26995988463348 8.0536573186597 10.523009095770082
Pb 11.936482951758013 12.0900943450127 7.599864226150954
Pb 12.889001463906968 16.346993067320877 16.422354726284876
Pb 12.382282542847312 8.875259279544895 8.111558061012204
Pb 12.582732342641313 10.89573875160331 10.933583106275687
Pb 10.186940528794986 16.73406888032023 10.502707046442826
Pb 13.29125186912182 11.064187384234312 17.577645519335103
Pb 11.743073204994985 13.531784433566061 14.816562309637462
Pb 9.77240668240241 16.253504427032208 15.728610248370996
Pb 11.17938507343298 8.006435787047847 11.080743957795788
Pb 9.373257215372842 13.449491736840278 9.572105218118088
Pb 12.589180019589701 9.83910013186598 14.276888569916169
Pb 10.964602684891826 13.888575201097854 17.9749437898112
Pb 9.717265360951005 10.253881766111421 9.385473274305193
Pb 9.125501531677841 14.714448923314704 12.860326811155872
Pb 10.289855462956075 10.8591232221236 16.411837858033408
Pb 9.74428405326137 11.4303284723561 13.166281363218475
Pb 8.45563029009055 13.321138454626677 15.766964605498044
