38
Energy = -124.31815182 eV
Pb 14.737408102630665 16.573460879437388 18.587689050132685
Pb 15.06668606672707 13.506313245855718 19.518569449978838
Pb 12.118594430350845 15.517982878262371 16.84400333931986
Pb 17.68416009121251 12.106107957737152 18.213303010638104
Pb 11.576469506701018 12.447012742425132 16.64836023210275
Pb 13.9143095361844 18.389779658240503 15.915688980776391
Pb 17.66714679853824 15.293991391279544 18.69562137340032
Pb 17.09871377053958 17.16667718962503 16.201562555400972
Pb 9.083096220095213 14.630816621719765 15.42852552489647
Pb 16.364090809670255 18.903253924735825 13.574646613155936
Pb 15.27449779932982 14.107994695117716 16.260106985103068
Pb 9.262945435273929 11.46467941154137 14.551514802430058
Pb 14.471079383577111 10.892861794044643 17.514173636845847
Pb 11.165808181405003 17.40101127958203 14.275200114895584
Pb 16.95013634512411 9.006822625504252 17.713613836632156
Pb 18.496137193873345 14.177650538153046 15.5988652097041
Pb 11.661903677722812 13.836592075649214 13.522211646631105
Pb 12.120094321236047 9.753795596055802 14.951336055119436
Pb 7.154003602378569 13.451725977961488 13.073798047554561
Pb 17.66731538187801 10.68791235010665 15.128159204251832
Pb 15.081672457077579 8.494101855908955 15.155065173341276
Pb 14.180359796327519 16.268776893455726 13.140767650887446
Pb 9.218111267879305 15.702621736308972 12.130275742513058
Pb 13.29006086514719 9.329657143887866 12.012120966364796
Pb 17.574202915457303 15.893336810979326 12.927954851478685
Pb 14.447589552290891 11.815172891994905 13.806586353005914
Pb 9.549368173035855 12.312178196500842 11.44080127126222
Pb 17.432785925732265 12.668497209832669 12.457800627754418
Pb 13.351465270006134 19.586404558590793 12.8892013103769
Pb 16.531693452955118 9.34026889219734 12.345161327621568
Pb 15.98759520481638 14.799220175586495 10.238740709683848
Pb 15.190613028062181 18.279984359099288 10.58685703101216
Pb 11.717665281440864 17.699340206084894 10.88029731433152
Pb 10.986432666331885 14.635970849012555 9.552812420952499
Pb 15.234932200687902 11.38258356975923 10.283402003416569
Pb 11.878653034534368 11.221889773672979 9.673681719583465
Pb 13.758022101008692 13.367378892284513 8.265546689084054
Pb 13.603899077943305 16.435892076991134 8.54569609354264
