31
Energy = -99.87763904 eV
Pb 11.409176249261519 18.130555549330648 15.04229153035254
Pb 12.49505949371703 10.24379167374847 12.043537246781852
Pb 14.849537770779222 18.62269470185089 14.237603856084517
Pb 14.560043973394786 11.725370428610553 8.668841577149683
Pb 18.217180564969265 18.55019738095659 14.351233072802831
Pb 10.940524019255973 16.16926732384827 17.90501992160584
Pb 16.590812274408496 18.484203044646794 11.605043826356791
Pb 16.353433122469767 14.266071400748517 17.27662060555014
Pb 8.683335651526933 17.223505727699266 16.313912864861113
Pb 14.05099995194723 15.800232946883959 18.828675895520092
Pb 13.681876553114433 15.743652591721787 15.560338044266109
Pb 16.65341583441374 12.264944153368104 14.755710036899462
Pb 16.742457869977223 15.693576848055187 14.08290503193616
Pb 12.181231022619093 7.666108877913308 13.834005313109898
Pb 14.719044465980861 14.925810024683356 8.678577120000266
Pb 14.136981919062668 11.352145750064302 17.15467900826179
Pb 10.534324443492219 15.0234100419703 14.77686239197193
Pb 17.368505334354747 13.101213898290728 8.552489328385702
Pb 12.564612974910027 13.353137400973692 10.63784822318876
Pb 15.758040977402493 12.936983391641707 11.389426441982195
Pb 17.312102894121068 15.620183860462024 10.464699512904405
Pb 14.25529636927097 15.983463930944422 11.778403540522875
Pb 17.19150744464199 11.326597918019743 17.711974090704935
Pb 13.435890590010077 8.261077089397205 16.65393741503878
Pb 13.416165488832727 12.804150647576396 13.997883107444832
Pb 11.456279505354653 13.037638740975204 17.166932283823975
Pb 13.730132385832157 18.71257615404103 17.40083980794298
Pb 16.868483433960414 17.40021205277383 17.2344822972298
Pb 11.448922815276342 10.408661429646262 15.16100751386968
Pb 14.837539518381224 9.570752911355662 14.110680791547276
Pb 16.385783058737672 20.38101696636122 16.291098945400595
