33
Energy = -108.99576968 eV
Pb 10.073962243095721 20.61573692182227 16.48431896897083
Pb 17.68161547294973 12.58876055557765 13.985877357776166
Pb 15.800261609451834 0.7299391611621405 16.383345651873103
Pb 17.91288713565391 17.151494419560777 18.642932005880617
Pb 20.160928127305755 14.298885877350488 13.101750043565769
Pb 13.202126092282194 20.147753043052983 17.277787659090222
Pb 11.180403572407457 19.787906352868813 13.47485691188807
Pb 12.476212171091175 1.0704288171141743 15.058774038347162
Pb 18.429116675762337 20.620560773041806 18.293850867138104
Pb 14.250641071170202 17.745041246482696 19.310401740519968
Pb 17.57103023472973 19.051068771645205 0.011489292698358178
Pb 19.70511885014594 17.553167497445454 13.61156115131675
Pb 12.938959295274854 16.995904837551375 14.002977471137925
Pb 10.973507269614617 18.209935669856897 18.60245362696919
Pb 18.341307726732545 15.485617536920016 15.794210822821832
Pb 15.06956651807843 14.462322994637367 15.142758048639466
Pb 17.15464640705833 15.564666073950672 12.732954719576403
Pb 17.001683730787512 12.52357958133757 17.10853045889314
Pb 16.3304503660196 15.967467570062855 0.24378347424046454
Pb 20.20859955931798 12.938006778957135 16.235212079546493
Pb 15.326041038186755 17.592864391205374 16.25609890868849
Pb 19.513754921998164 16.32277899520426 0.43066347299541985
Pb 12.457266525689443 15.816742827097501 17.058184655087206
Pb 14.452961114994856 19.899589396609223 14.016466654028589
Pb 0.6011544946002492 15.728335016534077 15.46899912333357
Pb 17.672590902378168 19.563306624681964 15.19866342849891
Pb 20.617183862026746 18.634037606885382 16.757686828684317
Pb 10.135655829706486 17.51960877229802 15.56416653929766
Pb 15.111943123542863 14.426205984898859 18.892620423559514
Pb 15.383764615276062 20.87450484991543 19.489822344777643
Pb -0.16651810778618614 15.793376703487601 18.688172745288977
Pb 18.406602882989347 13.883280612110239 19.75601278040265
Pb -0.5291256493634031 18.874838680509534 20.061114489246947
