32
Energy = -105.11515061 eV
Pb 12.31681443842483 9.596776755149063 16.824449283458716
Pb 15.68006392387359 9.47435640786912 16.926993642285826
Pb 14.41650731888261 8.69971508367962 14.22106646771531
Pb 14.124358227276298 11.527595249774034 18.81591279018504
Pb 16.899086758342413 12.46399456406951 17.259382667497327
Pb 9.858231521965807 11.341174785970761 15.242096526964527
Pb 11.623954971816353 9.778196005863357 13.0837480612318
Pb 16.7981093060204 11.281038516384172 14.214829743832434
Pb 13.741704920462457 11.974793892345456 15.175090955858582
Pb 14.643535399868565 14.634721067878715 18.127176756751897
Pb 11.601643450980399 13.090233207534428 17.433561175922943
Pb 14.64122757439455 10.691390095726984 11.625145986109672
Pb 9.540520502634918 12.492729903789263 12.20510534112534
Pb 9.91123044205555 14.528948986067098 14.850546418369309
Pb 18.726723442058372 16.555565016956272 14.310119130191651
Pb 17.899708760510507 15.822575991540484 17.31984217051211
Pb 15.927640917894841 14.681368312198407 14.715875442396836
Pb 16.28100985593509 13.548774042787986 11.474983216597067
Pb 15.787072174150094 17.862326539653985 16.11903238230148
Pb 12.976196258089953 15.91010262211625 15.784418234796657
Pb 17.301065705193587 19.468798935024413 13.806049085279875
Pb 11.745458603851713 11.169390613030721 10.15278146789978
Pb 18.831088142759096 18.87087831812387 16.432898693048028
Pb 9.294125076713732 15.668219637424658 11.786768310374601
Pb 17.14977423911264 16.761305498588104 11.620371567807714
Pb 11.096890089296341 17.4714316017713 13.779335293081488
Pb 14.220131569813256 12.85652938074993 9.146811988693372
Pb 11.054826280015824 14.268606468566126 9.34004814212699
Pb 14.344484148381229 17.505642568029455 12.920654074062133
Pb 12.654242342390193 14.158716508261627 12.229751803067918
Pb 14.506166132574165 15.964177289653108 9.817201490732916
Pb 11.784415039635745 17.257933668796806 10.615959225095457
