31
Energy = -101.79537211 eV
Pb 13.761468256263258 8.25295985055477 10.788034974879118
Pb 12.932394217301356 9.351982315327549 13.922852413211022
Pb 10.607747195206269 8.243773207216776 10.273844049844309
Pb 15.347143408368996 9.31982379889242 16.348685533293384
Pb 16.00860287073558 8.217825728588396 13.508450026959034
Pb 12.569691379419057 9.322396621689558 7.8569819628755875
Pb 9.73944740808377 10.855863330787395 8.582335447111323
Pb 12.194386694656915 11.107158992484587 10.893597181169202
Pb 10.438751131918643 11.309893941516476 14.59478686400562
Pb 15.15336185646453 10.797205088084626 9.1854789268849
Pb 15.981651242031605 12.56458917008525 16.482775294747086
Pb 8.82166789813319 10.521233505962334 11.888303028947622
Pb 15.281243909488412 11.110355015439808 12.469194704817438
Pb 12.820531127969867 11.154101819328979 16.932880505745988
Pb 17.79802066980383 10.773243678546567 14.629831677368403
Pb 13.500913265787712 14.2266877743813 17.659511237989673
Pb 13.346955631763052 13.325588811869233 14.28258724078089
Pb 7.462270991788834 13.133903649171279 10.547053004668719
Pb 9.877989192619916 14.420437155073879 15.258935873847493
Pb 10.331243223356799 13.61088060165975 12.083222438784178
Pb 16.830177510649396 13.802842743250327 13.454379011422104
Pb 7.62653024452324 15.232408583076044 13.092646559675343
Pb 14.746920130825075 13.809220740838752 10.55040887366511
Pb 12.519479711909208 12.624906567592346 7.9313272801327654
Pb 15.524806244535688 15.773505929970147 15.638731249838948
Pb 9.55200710369414 14.11101468305391 8.146117178527122
Pb 12.397667600203357 16.45603605664433 15.596895804602541
Pb 10.524911939219717 16.893622901235272 12.920055129159351
Pb 8.642742267101786 16.227277300434835 10.252005860645108
Pb 13.943773919258145 16.251902111982172 12.664862683721086
Pb 11.978050663915358 15.579109440419519 10.05194536006921
