31
Energy = -102.05665619 eV
Pb 16.023102017078244 10.874377958186848 14.971194883243585
Pb 16.249675377568288 9.001095701225902 12.30699420046031
Pb 14.107868061194116 8.072815889091132 14.511363869133609
Pb 13.027446831894437 10.812713915838563 16.178001723170738
Pb 16.574730037049505 14.174133498265393 14.50483385394225
Pb 14.178219250554495 14.081772841917202 16.803026867420336
Pb 16.46941759714465 12.258808708543082 11.783213031428732
Pb 13.426025837164135 7.6925409827735045 11.324608580472734
Pb 13.220838525175436 10.56340359653136 12.695094338093527
Pb 14.984590205664432 10.296717574516215 9.465634731409697
Pb 9.973042322767329 9.953105669621632 15.024674704336089
Pb 13.168552361726325 13.738456472135788 13.815944155059583
Pb 14.620424161327037 16.659258807247724 14.773194182760426
Pb 10.564083987566338 13.090505832203256 16.133012009091484
Pb 10.164930848417628 8.405990734737863 12.0893050476431
Pb 11.699716860319228 16.19411170413088 15.74208874837342
Pb 7.681072847184208 12.468213704579606 14.648941857113144
Pb 15.391851824738083 13.790684255147312 8.85717888144531
Pb 12.779146786084382 13.053129456281416 10.530729136058019
Pb 10.149172578795135 11.923318214321611 12.302885394584465
Pb 7.384232769858928 9.999739537332514 12.77292968115142
Pb 15.276763186147097 15.640543169711208 11.727944696847064
Pb 11.668530316609559 9.7462675615313 9.124954978512237
Pb 9.398581955873054 15.131014147092246 13.62489381949244
Pb 8.43556626706498 10.201922166911583 9.784969171919675
Pb 12.163442248204294 16.609308243944664 12.372485768538873
Pb 13.122066236438128 12.06938524215157 7.272186991185829
Pb 7.328368669620869 12.953372337921998 11.282339380456387
Pb 12.497533367055201 15.1150294406784 8.094857697700121
Pb 9.946296059876461 15.11123387570675 10.316919927539804
Pb 10.054489890198697 12.701281302139979 8.176683486816962
