34
Energy = -111.71897751 eV
Pb 12.072968515788883 16.889241663993488 13.211108906764466
Pb 18.981903139987722 13.579243578309791 19.514588360595095
Pb 19.389903872137136 19.763618186784797 19.684051762864986
Pb 15.028054194478344 17.247746124809353 20.6250268105349
Pb 12.578620189111273 13.833229224439174 14.043846032723295
Pb 17.398968374291016 16.65601897710332 15.081826947790423
Pb 18.253459275046257 16.668022463376246 -0.3078201245621388
Pb 16.337960467746786 15.160232699799531 18.380541058038318
Pb 2.2325110996733257 20.234415672052645 16.401043016661347
Pb 18.309814165735936 0.5126220319280734 16.99016671593363
Pb 12.080441575897574 18.94652693882015 15.826040625483131
Pb 13.875604817694347 19.464921823211803 18.522929745582914
Pb 15.04934224230252 15.533677670474479 12.717309698361554
Pb 16.694610678409187 13.917898699523118 0.50114351567215
Pb 15.221285259222563 -0.3659058264805588 15.89344340689839
Pb 20.951817595520705 15.78014506267856 15.488926049556634
Pb 12.161040694672808 16.6023633569088 18.761846951985774
Pb 18.576538627170383 13.78614300858951 16.36183831105479
Pb 19.5647033745374 17.596099925456496 12.98641421323647
Pb 12.789730583082171 13.457495058309132 17.32422582974245
Pb 20.209042928387312 18.86632514905932 16.503903823993063
Pb 13.756848798104482 14.159940118768526 20.40891367913997
Pb 15.88024098739923 12.12152479756899 18.916458940990765
Pb 17.784203213634218 -1.0038617818635138 13.990145677470789
Pb 15.539219056931325 13.278816937648092 15.195245415690023
Pb 0.20080796466681414 1.002198619522556 18.118247502585003
Pb 16.914209751380767 18.42460338980515 17.845250422693155
Pb 20.838082282898572 0.44017577515961515 14.813961191267309
Pb 1.375175246843654 19.237393039298592 19.283330705905346
Pb 1.3322688020206097 18.24645960367728 14.106696854425092
Pb 10.741011585505857 15.815612253424286 15.942774205298402
Pb 14.137940939528422 16.370324482898972 15.95025004545117
Pb 20.802391798721363 16.529934650255534 18.722014361973272
Pb 14.736828535565673 18.738265782759893 13.41138822764079
