34
Energy = -110.49631435 eV
Pb 16.075389012044035 11.872111673615239 9.653537164684424
Pb 14.657390647912523 13.961848843904514 19.18168358858659
Pb 15.513687403997148 16.184171873215075 13.364834311912558
Pb 17.146710989763136 14.809863931460232 10.961075722777395
Pb 9.552345117241702 10.234342807016079 13.066752178172786
Pb 18.58336903761916 17.235352986800088 12.880233198325595
Pb 12.432141369711974 9.302579040025472 14.257019488310444
Pb 19.453664843976696 14.133223580022001 13.180245101558894
Pb 17.761464304158263 13.128883120147778 15.8116746689252
Pb 13.393249062152728 16.420030130883877 20.65765031634668
Pb 14.517336386910062 13.173778183812274 12.336851388293463
Pb 13.310947954740637 18.4956083688368 13.297465843949862
Pb 9.891741029579086 10.8685247011616 16.09338679131506
Pb 12.657806264996353 11.943384629839974 17.485535889562787
Pb 11.794548213907111 12.789297208999097 14.231841884380811
Pb 11.875006574446884 15.516845548653434 12.135624081041389
Pb 14.190304854662996 17.04724720774073 10.42751319835037
Pb 19.49812988017459 16.08825926116972 15.696226777294937
Pb 11.68424071779898 8.761582020545703 11.138583860379306
Pb 11.862686056513745 16.256957081093848 15.61325366395838
Pb 14.256896082268156 17.1209727705642 17.72609595938698
Pb 15.049465994095614 11.090777321073576 14.913353577936283
Pb 11.499621797249096 14.793852122873533 18.98702605292756
Pb 17.46255894989836 11.682969476339517 12.636428614351424
Pb 10.1023603995809 17.917144972763026 13.454301295938151
Pb 14.652255219838429 14.322362104192111 15.855634159798273
Pb 11.237029065342867 12.006718992337028 10.947601296286333
Pb 14.880237052532152 9.541484520661895 11.79024879378569
Pb 17.185276864064498 15.613207106795157 17.828611897616714
Pb 13.361967710470806 13.825040730296084 9.388724755054016
Pb 16.920983799838893 17.999232984242976 15.630709128733082
Pb 9.789967170320143 13.99032694073124 16.54176666349946
Pb 13.332671053407077 10.372245279875928 9.008139265802752
Pb 11.319776596205848 18.40299995573055 10.723596898176796
