39
Energy = -129.17812572 eV
Pb 19.86158283611848 14.784311213704303 15.681386413958007
Pb 19.896602953467198 12.884308263497681 13.058950560797353
Pb 17.99274071875201 11.999339877456421 15.730132792877122
Pb 19.840651511339814 16.103890837090283 12.619305078434506
Pb 15.511117560335569 9.752670162693732 15.005754646406618
Pb 16.891004833320135 14.984303797991075 16.957020445855925
Pb 17.284688210679626 11.20526224193592 12.322476903957014
Pb 17.98870986215013 17.390553530952882 15.00226292673876
Pb 13.441620020127653 10.029628236169668 17.673476318248508
Pb 16.813077376813457 14.41965611124607 13.741928258148372
Pb 17.884939462600645 14.230885158581334 10.607717500126949
Pb 14.587821006296883 9.447875171129377 11.902357327591568
Pb 12.410061272051722 8.296397489464544 15.040646958949678
Pb 10.342173805472433 9.124176601199277 17.521634633643846
Pb 14.036911483298587 12.404613691324853 12.9520223146844
Pb 12.554583152613478 15.41375110678164 17.20539711675478
Pb 14.53776732740001 12.811486251173593 16.177695011159823
Pb 11.051983367251335 12.382064191289103 18.309684140945937
Pb 14.499182476458913 16.933906491413236 14.74170990661682
Pb 11.571531351065056 11.441165570303076 15.272368417121653
Pb 15.187576343712497 12.11726567619029 9.842460786847711
Pb 12.040553465089191 14.821909538298842 14.049028099679981
Pb 11.469877865447375 10.373743686675947 11.977179557381788
Pb 8.502265973386352 11.612398127976034 16.44516066179007
Pb 14.45170312223689 15.147557686112721 11.095715160623207
Pb 9.353896754835915 9.21794065688537 14.382849861742914
Pb 9.496649508610938 14.968484378306448 16.200697104290363
Pb 16.85930914933245 17.168580449605386 11.953682177244586
Pb 11.185541928105069 17.74220223425628 15.389666086788
Pb 12.205373124969771 17.5523490078885 12.258436495917945
Pb 11.351169445995076 13.61885711542452 10.772153143717533
Pb 12.964497504769707 14.636193344796672 8.142490848094566
Pb 12.102266438787405 11.457836202671574 8.441335627147927
Pb 9.244345013081496 12.935878302757404 13.319574359032078
Pb 9.27857287716928 16.419196282929306 13.058642082034371
Pb 9.142097280235356 11.332706450435465 9.787025236206684
Pb 10.421324223322413 16.488953152824426 9.478734312512996
Pb 9.892287414398083 13.73910232807302 7.644351821083511
Pb 8.145479257244514 14.359269020137631 10.36886624248941
