32
Energy = -105.70008505 eV
Pb 8.111922925926601 14.354996699654098 15.287995322807479
Pb 11.263902252220996 15.043817918647303 16.429592043103614
Pb 9.827081953627019 16.631617705666454 13.952206232121267
Pb 8.411941161113834 14.254567701717724 11.904589173670901
Pb 8.182730356218974 11.475771425470823 13.619708220911006
Pb 9.624402317723133 12.035187869750972 16.72765484628384
Pb 10.974880512144557 13.347286468212065 13.804104935200018
Pb 13.134934434168272 17.03972966041569 13.865905945012296
Pb 14.863533222878575 14.777933602094896 15.60145781983428
Pb 12.913720480270264 11.980625199985775 16.416197742069066
Pb 11.281115482702711 16.34128243899571 11.049613376295802
Pb 9.7347678720532 9.161254775857373 11.79105513805607
Pb 8.875401438746065 11.281952623218528 9.466823980071721
Pb 10.64926668761235 9.507237642201137 14.89856732789337
Pb 14.403348770489618 16.87726015797846 10.639772415486323
Pb 16.358303944371606 16.478757020549484 13.021810799692819
Pb 9.875398748745706 14.279614072982636 8.811871588581734
Pb 13.586725818740042 10.717755300151023 13.024744560543605
Pb 13.712552532256225 8.755405814929295 15.831337719801706
Pb 16.35736681992589 14.159923083945296 10.473203196852742
Pb 17.439165938297904 13.66470714108208 13.675531185542951
Pb 16.094124155566274 11.11274384620567 15.238147399251703
Pb 11.643971741177014 12.221129351897986 10.700072252537938
Pb 11.613101169440943 9.23588629719029 9.081668955374777
Pb 13.194307738024897 14.385502230145873 8.634115120389458
Pb 15.931436422644977 8.294432525088224 13.621619084000478
Pb 14.079173536353938 14.083600446900437 12.575533067958393
Pb 12.663848116104834 7.648180348680692 12.900336515709816
Pb 11.40113694247155 11.840834494895956 7.2901419013572175
Pb 16.945321205952382 10.885687353731312 12.01820132320042
Pb 14.719872615183405 8.671290304437493 10.603359057488804
Pb 14.290103570933562 11.360387768227547 8.782183621755063
