31
Energy = -100.86071753 eV
Pb 18.8118078451062 14.094571738588193 19.35504143715107
Pb 18.45781965588723 17.14157907739199 18.58192389002384
Pb 18.038287000505722 17.99703627123159 15.633571301426368
Pb 19.7898182832473 15.030552765608233 16.077376527463638
Pb 17.502928290447752 18.70026342734202 12.679847024260555
Pb 18.767504050909583 11.930818249850345 17.105053482205715
Pb 18.22172276048688 15.595676937251035 13.051325119863922
Pb 18.4173536488595 12.550975072759423 13.925830047697987
Pb 15.99717683419981 15.51897350048937 20.0350276931624
Pb 14.9901130227865 19.011527234450874 14.62201942408465
Pb 15.97901688063676 11.276496678870803 15.675903872019537
Pb 15.307261298014101 13.717423851542204 13.345616045984997
Pb 15.92295127210579 12.46797617562447 18.958951573862123
Pb 16.533576705567175 14.799117956638382 16.63196823711781
Pb 14.461164430461181 12.588127006113911 10.473616275791318
Pb 13.543154169892373 14.803866040871444 18.136462687226828
Pb 15.715737803281996 10.357848242395582 12.3968212703632
Pb 15.173126254893667 17.782491796538697 17.63378048596895
Pb 13.044760421104886 12.717106405284557 15.563234743067753
Pb 11.163712082271417 12.765944861203922 9.766388695233978
Pb 15.091901229345234 16.773156339694488 12.223222362162925
Pb 13.423258684325825 16.14228786377667 14.93418624206446
Pb 11.24689421925275 13.701453691025868 13.045809424276886
Pb 12.410565923650509 15.620716054425406 10.62654999814048
Pb 13.660391419676522 9.486239846249266 14.706242337032238
Pb 12.476942335879027 10.694065697782243 12.10750516598174
Pb 9.194840754991816 15.45276371071394 10.51183813990732
Pb 8.630414070666216 12.317054119054944 11.73021633551715
Pb 10.825260970573561 16.97703524541454 13.060514022888654
Pb 8.347735917369352 15.02867660601802 13.704223240160642
Pb 6.42448369985172 14.52985947204684 11.27161483414056
