38
Energy = -125.10477743 eV
Pb 17.52411283046407 14.435372588851152 11.725991306422491
Pb 18.667087213145273 16.785543232651666 13.727942726005644
Pb 18.223897626885663 13.852351802145026 14.973669837549236
Pb 17.831370296251663 11.304361673121033 12.825176105656576
Pb 17.622615413533467 10.776826238209443 16.115443298440724
Pb 16.367540402664936 17.943373839295067 11.748552216989177
Pb 16.654861767727283 11.181500483842239 9.821033813893871
Pb 14.392185568952055 15.156181522685612 10.673155268264727
Pb 14.90271653540097 9.121981366856968 15.097329062804075
Pb 15.41718862416116 15.840457123863972 14.147711703243331
Pb 15.764916127864485 8.809647380349167 11.9161404713364
Pb 17.279663200798577 16.405200634063988 16.889660783264077
Pb 16.64650161588547 18.959852468473837 14.9213190122843
Pb 14.039781602674655 12.575318410820818 8.731616614109267
Pb 13.686392722281903 18.391895498792977 10.133518406230682
Pb 13.890314699085183 9.35579539899771 9.412229056733757
Pb 16.587782186307173 13.2510947382923 18.110939048220548
Pb 13.798636962262236 19.397629641138913 13.38457479713501
Pb 15.314643881174483 10.150519819136221 18.307105083258115
Pb 11.25760153885649 16.02683220980969 10.053868147719417
Pb 14.42658921627344 11.973479227349465 12.105386135819558
Pb 11.054626916487107 18.850494823185098 11.845271237641278
Pb 11.56114211744884 11.519718355229712 10.448355767591945
Pb 14.609724626246207 12.32057659195487 15.58800577137024
Pb 14.107486880826636 17.910393147853377 16.63033879566821
Pb 12.112145506446815 15.120086311140327 13.057800456300097
Pb 14.67803385597457 15.821150655985525 19.151665241270326
Pb 12.558673748697581 9.156457111441922 12.404387044101405
Pb 13.46823601503445 12.471925622146465 19.22595372317445
Pb 12.388953397920007 10.097058571100229 16.907321511358493
Pb 11.621492581050745 14.982400911969247 19.465384375741525
Pb 9.041227976275344 16.61130990067317 12.481585840301015
Pb 9.434375094695248 13.47664321096737 12.019592882939785
Pb 11.4517022941642 11.959291786142275 14.066831814550342
Pb 11.117139204847435 17.786200255746078 14.994730816054421
Pb 10.506590199103348 12.727602664833132 17.51268310394856
Pb 12.719038470227959 14.943631400287892 16.40866064325662
Pb 9.444471691954538 14.721303990647728 15.140528689402268
