30
Energy = -97.63717038 eV
Pb 13.151072917395085 13.57357804492361 7.257726760024915
Pb 12.183721597371377 10.487371428486725 7.529678124504926
Pb 10.24320761456529 12.782178913998726 8.56320515610874
Pb 14.990308036900172 15.034039021821252 9.597635346732249
Pb 14.895250633506599 11.339249833400967 9.072622669451492
Pb 13.606116173793032 8.404339609018228 9.536882527746146
Pb 11.75937760002416 15.478431364163226 9.491612188933065
Pb 11.306802500556568 10.400649421856244 10.696547434842476
Pb 16.269821756716606 12.729510117406383 11.730269399751895
Pb 15.314233039800726 16.194590845737245 13.368533996320453
Pb 13.284144112642581 13.29100850248185 11.643555531885877
Pb 13.68998534186558 17.72991886242836 11.002163942230643
Pb 12.612035476089446 7.924189085140582 12.813585901780773
Pb 10.282281945412963 13.381660161132105 11.774343492351143
Pb 15.46092857475151 9.447511215178011 11.918138473441353
Pb 12.368603079578078 10.84957750979055 14.226901212633235
Pb 11.940703462569148 17.001717063265364 13.511993789637462
Pb 14.974955085272882 8.35117357883008 14.958277266708093
Pb 14.377012627540699 19.248870939261636 13.891238927140671
Pb 13.250990420548348 14.208552279101095 14.966314737357239
Pb 15.553577406770675 11.536750707824181 14.75358240774789
Pb 11.892167938932428 19.36268738715777 15.721953114958088
Pb 12.025912706877124 8.179648325327422 16.217476839790937
Pb 10.18670029853416 13.475415630997238 15.203852684167462
Pb 14.18452302124062 17.154033025949246 16.3841659074808
Pb 10.53319495240096 10.919269087680899 16.989466638070887
Pb 15.132580714573722 13.321502167540599 17.37693932269639
Pb 13.7875928442493 10.465224654782478 17.467299947979885
Pb 10.949341638167505 16.386897508466827 16.52352978513954
Pb 12.077640619602358 13.625237845100193 18.095290610634958
