39
Energy = -128.52286515 eV
Pb 12.33978272278034 15.609847553419923 8.384201255388584
Pb 15.02186881712984 13.679437301913346 7.957790013178476
Pb 12.072104555960124 12.587826031297098 7.1829125177550734
Pb 17.840365152676036 14.744674048566113 9.078759685945851
Pb 15.29867714452984 16.79826172530747 9.4933449182802
Pb 9.544523456387873 13.738997672924983 8.727551762345113
Pb 13.805918455412106 10.545869020328276 9.036344351580492
Pb 16.85081237617693 11.607553751185394 9.963016339012693
Pb 17.83542231846545 16.509693793898045 11.822665575257577
Pb 12.315546304149299 16.811850752377417 11.554529025787625
Pb 18.95963055412676 13.547597804052813 11.782599110266025
Pb 12.08349259814647 13.274465965577305 10.699185657700648
Pb 10.320545378814483 10.56839048742658 9.268592719006994
Pb 14.997500113521845 16.904027047653475 13.316893153802111
Pb 15.489382287277907 14.110795052550287 11.608187148607026
Pb 8.65942323658657 12.473820713861691 11.460208556882204
Pb 13.90901388250582 10.844080422480598 12.350958974788265
Pb 9.393064817539068 15.662319545224504 12.630164044925854
Pb 12.05969632933574 8.441261104704678 10.961057736435553
Pb 12.214451196518715 15.138970235641244 14.385407606148314
Pb 17.087494768258157 11.383411095457127 13.381404953913375
Pb 9.342423505044886 9.450722004205934 12.427972262173904
Pb 10.77531026155659 17.92873195361462 14.70540617284032
Pb 17.258218457656813 14.526921020339891 14.60438140208503
Pb 11.168787254112642 12.06652550895467 13.918836869546837
Pb 8.623510320955095 15.938370352714978 15.797032286365102
Pb 8.014765813207346 13.072837365123751 14.562347757905712
Pb 12.031245178441072 8.763953018932794 14.233446995082762
Pb 15.144624979886467 9.480879172429905 15.563955382213392
Pb 14.49035147927388 12.69978509408186 15.578338960756406
Pb 11.290136916592145 16.349900305864352 17.56636519893197
Pb 17.662389591682302 11.624794637990972 16.572384391909203
Pb 14.510014672094428 15.999739878639408 16.5640803759394
Pb 9.333088040415467 10.071290636408342 15.704377265971088
Pb 10.0051851915242 13.222800709712686 17.16611807094445
Pb 16.30079576315655 13.92464399484422 18.21518087151165
Pb 12.237234672916697 10.614007247434955 17.23143343655099
Pb 15.216221560627039 10.902340023353004 18.51879546820954
Pb 12.99615356199827 13.546886061101171 18.585614225727156
