34
Energy = -111.49105933 eV
Pb 2.8407147317432764 18.856709811208944 16.281611802723848
Pb 17.60789516838797 15.025686004101775 10.6548156859752
Pb 18.159555881196233 18.18523278165117 16.58218707543779
Pb 13.467462684240775 19.095835534664165 19.35927513186005
Pb 17.59050872564547 11.973951627196652 15.157907888626404
Pb 16.47405042853921 14.209356789478091 0.675200034060302
Pb 17.955771046214327 1.8549319694260369 17.6603584563392
Pb 12.750370643673122 15.891496806535349 14.913750261442583
Pb 17.50183430610653 15.229682470020036 14.23199532453842
Pb 11.872596752578021 16.300967121040276 18.557245735912808
Pb 0.8463009731312371 -0.29308951142763245 18.717146045447855
Pb 0.9186744286876658 13.697235156671224 15.26826186443685
Pb 15.291005508006176 16.45347962185533 17.829926284251105
Pb 17.52031677036818 17.972825908839614 12.018291703541387
Pb 13.308343777360518 13.612143890504424 0.34052499887273213
Pb 0.6435652171238073 15.971701761483244 12.148884665106594
Pb 19.353544925947876 12.831206464963202 12.39503573383278
Pb 18.566526135541565 16.68174384909309 0.10131845867139548
Pb 12.398450757872942 13.422794044473552 16.98565297163115
Pb 12.475630728322233 18.762119987087914 16.26062349999756
Pb 14.84630003456896 18.621165638973956 13.956994913557889
Pb 15.151572411914414 0.7677038137212657 16.7432956303436
Pb 18.569175332752963 13.749207208228782 17.85612641523016
Pb 16.689044466454668 19.197444644230927 19.49615492450904
Pb 2.7359488439731727 16.270689681906536 14.522417178037452
Pb 15.453711278599638 12.289925016388572 17.749089323993548
Pb 1.4324508782011909 16.14984297414647 17.600376251069342
Pb 14.80900957860609 15.756551312537395 12.30965971465173
Pb 0.7993113900744042 1.5678932447907616 15.752256238249284
Pb 17.643585472045135 0.9090575760683175 14.21589733132494
Pb 14.316923322949407 12.946413951660995 14.623439524171895
Pb 14.180654235837324 16.510883121664577 1.3686919222069152
Pb 16.16695278507703 12.605490875776482 12.15446714968178
Pb 1.06789791466567 18.984667894053693 13.413978485428062
