36
Energy = -118.66084874 eV
Pb 10.223142761302396 15.767727896927799 19.034586244942155
Pb 13.009059143303025 16.985741031957044 19.748062705108467
Pb 10.313524607183972 12.997949594412779 17.431885726395976
Pb 9.657060251924051 15.710469822096355 15.79347452176155
Pb 13.043211715294586 13.92412138224475 18.817396763628082
Pb 12.086292063068978 17.549241384553216 16.74638628074989
Pb 10.363902979095888 12.406102757584357 14.2258714789014
Pb 10.870706195380679 9.006318475300017 14.625936119346347
Pb 9.919946417394563 15.264560663680623 12.494705454729909
Pb 12.992546181258746 11.191312233411605 16.26403710368205
Pb 12.08671872343823 17.545921962681827 12.970319951928886
Pb 12.845191873922845 14.616646916986138 15.293202140894
Pb 15.089884578984831 16.263819582036344 17.45491384473778
Pb 12.178598678490763 7.568561089093511 11.932372849993975
Pb 9.800062621081508 9.740081312985039 11.69172257277373
Pb 16.1848572121483 10.768278704910037 14.442805742774448
Pb 10.191801086356055 12.73411456215536 10.557082057331437
Pb 12.915928248283308 11.026821908484653 12.777642900262283
Pb 14.02970618296056 8.341852700485322 14.418507799077192
Pb 14.820746334298988 17.850070121519625 14.553725070909586
Pb 15.71532588100257 13.022504710642783 16.88856509767455
Pb 16.03923370861852 14.546689238702733 13.606473558524598
Pb 18.052437208270636 15.954175202524912 15.884584613276246
Pb 13.05154950782449 14.342072873146705 11.68235087670249
Pb 11.796866010528142 16.597057130520714 9.80148005110169
Pb 12.374426014964886 10.013285300932527 9.628973016031772
Pb 15.04750408651173 9.12224997783179 11.3158467082119
Pb 14.821889084688854 17.526991423800254 11.18134063303012
Pb 15.158749444967667 12.317459457898138 10.046213771666329
Pb 18.562271151353293 12.842152738046128 15.233997976201088
Pb 17.76921329081106 17.48886159863869 13.051524944561285
Pb 17.80885414312258 12.21865831353392 11.943412583036125
Pb 12.365942913159964 13.244044518679475 8.418634664587806
Pb 14.635377691379253 15.391851602464167 8.662881691956008
Pb 17.386122989440693 15.279345481854977 10.56492943954167
Pb 19.542031648614245 14.855147076263375 13.020094545751343
