33
Energy = -107.92577039 eV
Pb 12.622175969407994 1.6855544841607764 10.705058902599255
Pb 18.790188730604278 17.741791806323246 12.672343152007418
Pb 12.433636675088254 17.62399706312346 12.65676709816193
Pb 14.997855697240174 1.8839066894993688 12.885604528344205
Pb 14.360935857853322 15.506273351490208 15.076960084897104
Pb 15.478222168971746 16.30508171471737 11.954489012177891
Pb 0.008206841080753605 14.49454067441435 16.8193716145235
Pb 12.785236063614281 18.27046581268535 16.02295430723839
Pb 14.609341921978114 19.393827068641233 10.851549276889822
Pb 18.028571425830275 13.917836265406143 0.4084700925495496
Pb 16.304771787654158 14.547086131352287 17.829022100280422
Pb 17.661217658710218 16.16835229086358 15.234826560509436
Pb 13.232405008510732 13.323858160151406 18.21799444301477
Pb 15.63771699776795 18.902417178449802 14.027356881078635
Pb 20.024900914630106 14.739650903252153 13.292233987508384
Pb 2.5538013723041484 14.802966706236655 15.074789676059929
Pb 19.254523667845234 17.357063897673108 18.04153524362685
Pb 18.497967134902566 11.855680259912244 17.985215801653787
Pb 18.752236399624817 19.42075786923511 15.52350701390498
Pb 14.812294568031064 14.450835369789434 0.9370389423170611
Pb 11.107537037161878 15.606946531306246 14.80730306829608
Pb 12.714802131168856 14.479262495429323 12.1530487399999
Pb 16.711155143047158 16.92749326154389 0.1573227344629964
Pb 15.356520650615213 12.86199848826595 13.248507316967396
Pb 12.59154123391141 12.727011034642647 14.937820386707624
Pb 13.98705323067142 1.1704031837100513 15.857385920603948
Pb 18.19722748749 12.480561691263972 14.78014716694189
Pb 16.037502904712227 18.57825035479084 17.464185271285974
Pb 15.67414870590183 11.708622697528467 19.702979509607502
Pb 13.689002836045525 16.644422130390385 18.806166162354796
Pb 15.482348151738776 11.493756185772492 16.333140059283444
Pb 12.02728137575732 0.7358708683586116 13.500016165632807
Pb 0.9737668163406478 17.433036470073983 14.988066865391959
