36
Energy = -118.95136013 eV
Pb 13.471589146089467 11.473688922642722 8.74139815016539
Pb 10.049137667261302 16.13801330610935 8.043635977191578
Pb 17.815807405955752 13.671609655965042 12.782756391719857
Pb 13.069586074381542 14.810314868567541 7.8545424306516445
Pb 8.22042114957604 14.681208234842796 10.284970769745529
Pb 18.28969754052062 10.434846348940631 13.173354888827669
Pb 14.978126782608618 11.28300425992213 11.801519104355625
Pb 19.390165448123106 12.592750484696992 15.414643808538742
Pb 10.650579838578333 9.690277164757344 8.818091769938896
Pb 12.403878725312413 17.908085722361573 9.109374498547485
Pb 13.139335624427236 8.756029034702792 10.614965005860569
Pb 11.71076183926433 14.973235157389166 10.880321847669459
Pb 17.010603261078245 14.951489011822636 15.659533758906525
Pb 14.65248107216143 14.469627970994354 12.902654112549923
Pb 18.19897828273613 9.692362960923402 16.394020734583673
Pb 10.224087278807469 12.860491729715227 8.251203964991426
Pb 14.871514416516408 16.2153896779868 10.217511011867323
Pb 17.438758018163057 12.397835596260988 17.992246991199288
Pb 11.62833861427052 11.63842868891067 11.417589658791064
Pb 10.125422594379895 8.641345360007804 11.842538511294325
Pb 15.826235019388738 11.96313220457283 14.953194783139825
Pb 14.435485033790018 13.605710287616606 17.690313115141596
Pb 12.82541949501774 17.756448942501237 12.364912033412512
Pb 12.648738240780073 9.677882158380216 13.8782530167919
Pb 15.782660204560557 8.745715219134146 14.4822101704952
Pb 8.346467955053592 11.44951197210862 10.952428022729015
Pb 13.621207926085827 16.131008998969378 15.517405036486485
Pb 11.815958621075266 13.333143169693834 14.314945671928903
Pb 15.082628281703661 10.076938736244761 17.506119639034054
Pb 9.784003089093938 17.573618572054297 11.125732490297167
Pb 9.158164606758184 10.764318635307855 14.125400781196236
Pb 11.907142810272138 11.355515211492365 16.84183954006078
Pb 11.385678413102946 14.617513809854847 17.354920434472497
Pb 10.494197099266728 16.364967812108137 14.43076849664997
Pb 8.468972605367814 13.996003948216183 13.413132731379934
Pb 8.956878468480864 12.885407128994325 16.37840236964469
