37
Energy = -122.41740533 eV
Pb 13.240787048094129 8.730923985480517 14.17309890249721
Pb 12.595882171559149 8.057851300526464 10.904297833347913
Pb 10.10146168697048 8.023897983012677 13.128543490713312
Pb 9.414853151321388 8.497425109345956 10.050928951245266
Pb 15.842962044008832 8.717562008136245 12.077253776690624
Pb 13.108338889418922 10.075996947076515 17.14060955257398
Pb 10.359646017109771 10.527102210576476 15.274233320372536
Pb 16.14058378991413 10.425685415031516 14.838666570581386
Pb 18.042861400168924 11.29475390405359 12.108962462713944
Pb 8.10712793007708 10.466978996493328 12.265660997945986
Pb 16.5456904744182 10.179512047056585 9.33450852242103
Pb 11.84784555081799 10.192717169974596 8.558781644173015
Pb 13.22541667633998 12.162345048377295 14.51863864131577
Pb 11.223440749812376 10.96601463246723 11.724683118432795
Pb 8.877163248490133 11.54603719182586 9.277337328390411
Pb 11.644281065484059 12.999704493999998 17.401408154729445
Pb 14.981517665268665 12.7487040137386 17.315996257104125
Pb 14.895610919902063 11.993442383468022 11.52039424695265
Pb 13.521066392702513 15.363704082216993 18.76999738302759
Pb 14.591103104755181 12.366590238301747 8.097525957563974
Pb 17.318638295242092 13.396798719251617 9.819696542357596
Pb 16.648933683393384 13.577068909208446 14.56757063462978
Pb 9.85863081747817 13.795734038184658 14.728879365250089
Pb 11.573091595923138 13.562720098357323 8.88659623338203
Pb 9.170178663597504 14.009742454020243 11.464259803927739
Pb 12.471297158936704 14.365598080834628 12.112151129655429
Pb 16.33708904192056 16.02117110915675 17.05948563461502
Pb 13.64376654591995 15.61464317300594 15.20872766624341
Pb 15.964829693095746 15.610036595787475 12.323983223845199
Pb 14.458669299693627 15.303965909910215 9.51026731022175
Pb 10.999118945991274 16.51413329496461 16.843803750524852
Pb 13.953347213716906 18.21031633054073 17.47005350114927
Pb 10.369618359500931 16.74814633023288 13.300123380218073
Pb 10.908034298813257 16.524841665011948 10.074821310548447
Pb 15.588680037893425 18.217157361360893 14.640505509504022
Pb 13.331769962194421 17.607912188877705 11.984615683181103
Pb 12.31668556501619 18.92443122736207 14.869077922201448
