32
Energy = -104.77863753 eV
Pb 19.026111979905618 15.169272198646938 18.778454432468337
Pb 12.166829190055715 12.084035309899575 16.539644613044633
Pb 8.166369903457287 16.371828457742836 10.765490463968222
Pb 12.03456085031333 17.826336507665292 14.499862437063149
Pb 15.523911322435678 9.030008317334982 12.582008262998125
Pb 12.262508441071526 15.320373828788245 16.844173807220603
Pb 15.213101351382472 17.252438486513515 13.297540734625793
Pb 17.144756260577637 17.496547348417344 18.52319007094658
Pb 14.756993168690299 17.30306377017338 16.461286199386723
Pb 12.127250768287118 14.884871108168092 13.129704232844167
Pb 15.601558497743431 14.651019608389355 18.386228515493848
Pb 16.300881201808934 14.910442519531413 11.344616925650131
Pb 10.90984922107548 14.926577840354 9.8243237251537
Pb 12.326360136719773 8.71208606607786 12.09515177444791
Pb 14.2095273060016 9.994106031772782 9.769623380956194
Pb 16.711669999001877 11.695755797741453 11.099674106721023
Pb 17.27391168878181 10.72832104166466 14.776516152133066
Pb 13.475038022660746 9.480048507100493 15.0831386855728
Pb 15.273020842738086 11.434158176017116 17.253098153345984
Pb 9.71769445916096 13.819798226313656 15.356479922027365
Pb 11.316066226620196 11.462499928109674 10.530217071616038
Pb 14.019282571840822 13.258324539467363 9.519681410854394
Pb 9.012893285011097 13.61030786834937 12.2296519199382
Pb 17.86429060816994 16.196931923250887 15.656524366365021
Pb 13.727707643439935 11.872727256915526 12.700164068898662
Pb 18.290142225667818 13.5607150848532 13.528399977505785
Pb 13.639704014599305 16.53040197769096 10.492945186217897
Pb 10.847890589861942 17.87344263867719 11.458317492448842
Pb 18.130259240599308 13.029825280571838 16.796452115366787
Pb 15.251863731025088 13.983877634374737 15.003797928056201
Pb 10.57746142976311 10.878258975876571 13.82142511363099
Pb 9.052675974315457 16.603739896334154 13.804358905817278
