30
Energy = -98.33470269 eV
Pb 13.976493155748212 11.460181862011696 12.561658074496632
Pb 14.75059100180639 10.599069983794983 16.47716374992574
Pb 10.761837213941355 10.948857579085725 12.124222925249116
Pb 15.2256657540978 14.666500812748614 10.51117204162181
Pb 16.76346270327271 14.11164706259572 13.310634430960977
Pb 16.972894040275932 12.749817354874919 16.270022723667527
Pb 12.58590063450644 12.426956565365911 9.728277019228546
Pb 9.869108063596535 13.607692178958263 14.350196078753587
Pb 16.411242294369117 15.836557715296003 16.198818265950877
Pb 10.632438161314743 17.52044862488147 10.53157661510251
Pb 12.51180990243651 8.124789339004334 12.883248426550647
Pb 12.364777411579807 15.48118641169475 8.868303611369868
Pb 12.74987137829587 9.197939105896294 9.891196529788065
Pb 9.891756584022238 14.259266672852512 10.972036317157645
Pb 15.443237013254475 11.096807075565494 9.549359251447212
Pb 15.53916308058407 8.015701969142896 14.50644726212877
Pb 13.87648909055677 17.860233295172048 10.432832522542187
Pb 15.49902798921918 8.50322440904904 11.363118030925103
Pb 15.431595422800406 17.156239255190364 13.207213647110105
Pb 12.572423292111573 15.35142257217728 12.485396697290584
Pb 16.91729411359196 10.768352741915606 13.523401098748257
Pb 12.27479945866505 18.521093898106155 13.329409141827258
Pb 11.608622438556662 10.925461116368727 15.34346114888749
Pb 9.44859877873657 16.70453192296938 13.343477346745209
Pb 14.01608405142368 17.902946736556903 16.151521559181774
Pb 11.148323174193566 13.413239802565078 17.341952801609356
Pb 13.813147392097568 13.663258174404707 15.21417593160431
Pb 12.859399501418705 8.128740870713756 16.118491352426496
Pb 11.046363623265727 16.38096004415168 16.097712646224263
Pb 13.687228859608002 15.266520426236356 17.963148330824733
