33
Energy = -108.77701904 eV
Pb 13.635070869942837 17.74341890155197 13.768425830950758
Pb 14.515538028150534 15.686277313250258 16.088635902883063
Pb 14.446928517785278 16.508085051635327 10.834833738054789
Pb 11.254634120031069 15.875472591389505 15.185774804868522
Pb 16.4905505568657 16.385444775846846 13.522122490213418
Pb 11.210930541084643 16.674388684419853 11.779742859652448
Pb 13.726917461225877 14.211189635181563 13.30372633437085
Pb 8.997654087988446 14.872275705184553 9.877670085073557
Pb 8.547529015516474 14.840315588361662 13.102344712937649
Pb 11.845859540883502 15.544304907239749 8.616669029360837
Pb 11.96461220964431 12.961954361152904 16.987438685148536
Pb 16.591683285405814 13.930474596680774 11.37749519336807
Pb 8.864424264713659 13.998597407739375 16.352676708479553
Pb 14.544799981073107 11.070834024093903 15.787832789971777
Pb 11.914210348000069 13.015728421933504 10.63324776278694
Pb 16.596339819984497 13.44786763821798 14.872978366866889
Pb 14.584063730999597 13.759696036330972 8.666260736940657
Pb 9.387956756641143 10.877578662313582 16.697166969633624
Pb 7.499971771997418 11.854154029875662 14.29888768126859
Pb 10.841821125187451 12.338990345722934 14.033999235325556
Pb 16.522746817648198 10.730427573454898 12.98746149837073
Pb 10.028335922146926 12.590445230309768 7.984997778617671
Pb 13.155678273787066 10.333224123873132 12.449062888412357
Pb 8.60092236812799 11.85757533340086 11.123617113657467
Pb 15.703972334399595 10.88514359329659 9.79590057905673
Pb 14.593827100066411 8.115509859615718 14.488711376885146
Pb 11.815511596056313 9.142056550051883 15.606524613507409
Pb 12.953856335048117 11.155617018242612 7.824163423323535
Pb 9.71661386178486 9.367749123205208 13.219319198659159
Pb 10.677496480486706 9.670392921205217 9.848819862881104
Pb 15.514879382295907 7.9629979650871165 11.438664320042623
Pb 13.534813503374346 8.261946718586346 9.01977160223796
Pb 12.381202336222634 7.274434165190956 11.979640963486817
