32
Energy = -105.38541097 eV
Pb 15.546998915021547 9.374968403094805 12.676296188302796
Pb 13.882250552428788 10.538403524033699 15.557054762382005
Pb 17.543237164485188 11.379659118357992 10.84297932930768
Pb 16.051244442424515 9.195357458663596 9.005482061704079
Pb 15.94740285174611 12.57840450681886 13.965021269423145
Pb 13.116872289061714 8.106597911348835 10.567400693836179
Pb 12.841069950415124 7.8083019426784 14.07632753666733
Pb 14.056148659362496 14.194362307441132 16.528019411175197
Pb 10.589788818519725 9.727982219979262 15.31192993000681
Pb 14.32126475825375 11.633654616657994 10.440237786245401
Pb 15.719143750375572 12.033254023522296 7.572775295996913
Pb 11.667707084109006 11.989789028328705 17.578999551043548
Pb 12.121171003680566 10.96261752545365 12.68722284786479
Pb 16.722396150539044 14.454495660619106 11.394695644006298
Pb 13.227852801166362 9.876495419065497 7.693509872334523
Pb 10.261244663773816 8.110563101133009 12.22750967195329
Pb 10.50551625287107 10.252940723960176 9.773313023386484
Pb 15.501000300916555 15.916071369053888 14.100966253206275
Pb 8.729914972677742 10.923530927675346 12.823933640528455
Pb 11.24903027769133 13.87419095307055 14.748364179033587
Pb 14.694350885300665 14.828591423744717 8.993244711634166
Pb 11.99809074931166 12.911825022516291 8.306188051505664
Pb 13.442369645321635 14.208982375194902 12.18394931262423
Pb 8.824733743884668 13.204386854603078 16.728497006627734
Pb 9.653147082467132 13.414075384325521 10.837651176481437
Pb 11.234624361030875 15.171135564414916 17.98935197107569
Pb 12.298656925686599 17.04283935325934 15.498883645060182
Pb 13.302000421366046 17.366505282063383 12.267316047542677
Pb 8.16244613448327 14.113988806306274 13.67711135570983
Pb 11.722835968206407 15.817738102386322 9.905932664608418
Pb 9.071078464854232 16.384794484403535 16.005837631078137
Pb 10.111669559535677 16.754047621482563 12.899694003780976
