32
Energy = -104.05104085 eV
Pb 11.010755899263803 18.95370817761786 15.932192740074427
Pb 13.938372619085454 14.528892932164863 19.001165795168905
Pb 17.44062534686067 10.350823475469998 16.496672553470816
Pb 11.13115120073929 10.375438588366316 15.261832943564427
Pb 15.059599882880518 19.217972524353275 12.637052065807737
Pb 16.38051992713569 13.280056143221232 17.611747199265327
Pb 18.08972464103634 9.560717412251778 13.557189107098212
Pb 13.57948780094174 10.364583164956825 12.579986707831242
Pb 10.492592774425024 13.699542078160245 9.930585720932664
Pb 16.41254778349815 10.947586384698216 11.25974194161675
Pb 16.137579908888995 7.551219575114064 15.371386512233126
Pb 13.5457509574652 13.68545497776174 11.33718077584502
Pb 12.624769806345983 16.120007182403242 16.473565517432313
Pb 15.894409350465637 16.56099113612341 17.519022063958083
Pb 11.770086886617467 17.330740973703683 13.277234159141326
Pb 15.14044993588654 16.54157996476028 10.762593461152495
Pb 10.688478861510847 11.622972773675185 12.311378914575457
Pb 9.861963783949237 14.739107950539227 13.027909634769705
Pb 17.59118866034624 14.880691901527344 15.151843794086998
Pb 15.992709130104146 12.182389899812193 14.171472606262943
Pb 14.164246364768129 19.13735965450363 15.876891623987472
Pb 15.66672622433435 7.921067141322896 12.201794855455613
Pb 17.032147004255222 18.072316612236882 14.926557346606035
Pb 12.2944663515425 12.263569349104648 17.551834673780657
Pb 12.192966297486926 20.486949084153167 13.412216371113045
Pb 12.489366481898896 13.385264162017602 14.552418234773322
Pb 12.584350360985932 18.75218635716882 10.43961701081683
Pb 12.610078547244907 15.866210403568337 8.952668697194731
Pb 13.127629191120102 7.8037622031205585 14.357673741567126
Pb 14.735767996420524 15.865544713819084 13.956738176317078
Pb 14.320089061205346 10.164389389487791 16.252795242639515
Pb 9.946846918696957 16.8133058709186 10.510411470078488
