31
Energy = -99.67889924 eV
Pb 13.672060834091585 9.610907312441151 19.748584252449227
Pb 11.985608388543218 11.913190323246566 20.711598022563425
Pb 15.932969265607442 11.074089765371374 18.17349172133715
Pb 13.736888602601837 13.565532072069924 18.7734330637483
Pb 17.88876738249142 10.091840000461993 16.056229096065795
Pb 15.568173397861154 16.0484776264059 18.309182487828785
Pb 10.369564136731661 14.318896142390688 19.662531675186504
Pb 12.574111924307243 11.025583615555584 17.16109898760343
Pb 17.374232490178432 13.60412286422258 16.596843078358496
Pb 15.125796625485824 11.942019995055826 15.00935637527936
Pb 16.51087454003947 9.444371772389644 13.29392407848564
Pb 16.675407967637476 18.612785571203187 14.242676155855687
Pb 12.342354281100434 16.6046847836215 18.532309128563593
Pb 11.043755286023107 13.939543313399454 16.68701433701795
Pb 18.53615704515679 12.113821122630178 13.619873343165779
Pb 12.396098995422967 13.909368411962523 13.823629894714607
Pb 13.99874417546682 18.449316376857627 16.376760872212365
Pb 14.60019440175691 15.424058397646258 15.411323240584945
Pb 11.388933420586737 16.8904296755429 15.243064863375551
Pb 15.160079736658826 11.948539859438387 11.604028485534453
Pb 17.803172651717095 15.442446695940824 13.876476536686527
Pb 18.021296511641555 10.610578830155402 10.836264257477364
Pb 14.644156425864283 17.987369346015292 9.962877384697789
Pb 17.784590161634128 13.775024334186663 10.819816266804786
Pb 15.144065570916828 15.233049989110416 12.070788355500456
Pb 13.427049261462587 18.738077004685394 13.153666957242512
Pb 17.631602769889327 17.313962704859154 11.186983481607635
Pb 12.190884360537723 16.425127587486372 11.657064087620045
Pb 14.864448815553628 21.319502298231498 13.87511325218225
Pb 13.645368113257206 20.986898917948945 10.804650915563704
Pb 16.612752677159573 20.28654350685015 11.369505562069564
