31
Energy = -102.0655215 eV
Pb 13.695119067947472 8.99768426507622 16.278634966397547
Pb 12.073020148323213 11.711638693824685 17.324885559011957
Pb 14.983400148647304 8.71751106428573 13.32662068750353
Pb 10.546314576484397 9.02718393548647 16.50584594401855
Pb 14.321502489893842 13.551530594871101 15.616792807962584
Pb 11.952994439560028 7.587477775408149 13.90726748403707
Pb 14.42335306175787 8.073320397977687 10.12817771295037
Pb 16.28676535829715 11.853822838805423 13.371347426182647
Pb 12.366533321932907 11.057700109952508 14.074503621733049
Pb 17.18368278446331 9.639777433301887 11.010888615339208
Pb 11.23887298814597 14.810326352846968 16.3780905627663
Pb 9.202699888796207 11.97536329623874 15.6513180798
Pb 9.122596371267347 9.242272838358677 13.677853132460912
Pb 14.10128696470175 11.427463306012246 10.915658600699755
Pb 15.479850047279438 14.991095069837732 12.792039590834964
Pb 11.255978662320002 9.698990521767294 11.047076296875206
Pb 15.999310010934302 10.212396513240451 8.15664904748918
Pb 13.738998631042241 16.61766496367665 15.004088238167236
Pb 16.893101585918984 12.777442208844104 10.123752319357228
Pb 12.75988445473277 9.957980514247119 8.088111680353611
Pb 9.329690533307595 12.181779851118861 12.235452591699156
Pb 11.899493247096546 14.672829987428045 12.762572119512864
Pb 10.629678581879805 17.543262453886406 14.73002224264513
Pb 13.944931909829437 15.22396435591322 9.974782409479905
Pb 14.258046635050833 12.905658300308412 7.8631362501677495
Pb 8.713769807024883 14.964875088183382 14.058810848723654
Pb 11.215667046038226 12.911772466490088 9.538541321858663
Pb 12.58927770985271 17.818629698667756 12.019763003954951
Pb 8.3833602007334 14.79082662273776 10.68691272116291
Pb 11.015055567249115 16.321595851668103 9.550262537389482
Pb 9.282528899775418 17.614787872176386 11.891282656734521
