38
Energy = -125.81622286 eV
Pb 14.2747814894985 19.503725778450033 13.645783490599628
Pb 11.084952007221444 20.12914165115865 13.865137206671058
Pb 12.449936331068747 18.244242445485416 16.236921728499375
Pb 15.748370971434356 17.060848837193326 16.850362925550908
Pb 12.327420465699092 19.54838099146887 10.946009164190745
Pb 9.287169841385095 17.78202498896059 15.07312577201328
Pb 16.971061989747916 14.361591056454593 18.314798027624864
Pb 14.76664769732652 17.490642037424347 10.918242993330805
Pb 12.206126244649832 16.85690685041413 13.404292292759438
Pb 9.478934870056358 18.150025453112526 11.810900044963008
Pb 13.68213160554264 14.720570596707688 17.98831685513554
Pb 18.544384163173262 15.646734311541463 15.967234202596439
Pb 16.58479985480612 17.051397037513173 13.617746005882266
Pb 15.34661988862242 14.236278872364759 15.152719379556364
Pb 14.233194966552036 14.39544578576959 11.990625377400367
Pb 16.746701465284918 13.308545074237454 10.128621487665042
Pb 18.042217522595926 12.423861147923148 15.852060227282909
Pb 10.787251993619309 15.195624065846285 16.483417139926726
Pb 18.018760971833508 14.173200017578454 13.00401214914066
Pb 8.661146745949912 12.790566195921977 16.021729109915572
Pb 11.752179944139325 16.301236335237043 10.270419009720491
Pb 9.321000757470689 14.872266849980809 13.325408900209034
Pb 15.148556094357135 11.731334470734309 17.348013827638137
Pb 11.5179851368605 11.957248186200488 17.515029937955195
Pb 11.899067044611535 12.801141265840178 14.252546185625858
Pb 18.325149421392982 10.927738762277636 12.0619860586471
Pb 13.817579101795687 11.932789103540916 9.463352108917938
Pb 14.973357893989974 10.975734864541241 12.319311742797675
Pb 8.766087002786515 11.586653797952655 13.056451775044241
Pb 11.00979270972779 13.050389425812918 11.03667976683414
Pb 16.579853420872556 9.445181976088648 14.615536436954319
Pb 16.737508626229296 10.269221563844326 9.20189055652515
Pb 9.986389007535845 9.872125804885034 15.441567569179021
Pb 13.232487852671303 9.792867619426326 15.509418637710066
Pb 11.61251744926332 9.965040643661109 12.375378922957049
Pb 16.78366902249484 8.094927409113074 11.569654912354242
Pb 13.975544922038713 8.674307666033938 9.99170415966041
Pb 14.034583471774132 7.701886973789807 13.133493846810046
