30
Energy = -97.96738389 eV
Pb 16.66753071456042 12.154023523295514 9.447722922251804
Pb 13.801755730947008 16.84934287837303 8.991025709096844
Pb 13.95980254313457 13.683700290572414 8.756644556830054
Pb 14.166158749291245 10.153153386978223 9.983019660820077
Pb 10.988983232495649 14.412130498330184 9.671993493467943
Pb 17.177085611721147 9.787019677798561 11.427114611831357
Pb 16.312280883115317 15.399453199903615 10.625873467309228
Pb 14.460696871374592 17.84824548684886 12.049966721400809
Pb 10.450306281278637 13.191159507386656 12.73200580906039
Pb 11.324402744084093 17.356638195351223 10.809472960247643
Pb 13.250744368996418 14.888154810881948 11.823287359572678
Pb 11.856264716834184 10.374022743294727 12.461454176722357
Pb 14.78507807236887 11.98597810492358 12.516908739528715
Pb 7.827837603995309 12.69174925119714 14.37888105191356
Pb 17.78561805463363 13.05449608928192 12.654613931720704
Pb 11.47656807311253 18.195579689482113 13.816619682263084
Pb 16.34222488649996 15.810181037963895 14.2686778142415
Pb 16.958390501961773 10.271366276914012 14.606958901028877
Pb 10.116268479881835 10.928878555273426 15.445193721854178
Pb 10.666128878923926 15.373342190150204 14.986201556738969
Pb 14.584070672398171 8.653987477949208 12.990556175905631
Pb 13.665676378398574 17.177469394108982 15.773921520406493
Pb 13.690381997158934 13.85860610565695 15.115194514007248
Pb 17.133155093145295 13.167192026913424 15.97235811061165
Pb 13.630976461998037 10.40481088634013 15.525398193962582
Pb 9.080243374190324 13.53595276783149 17.131191514644406
Pb 11.34861494701833 11.715957027418774 18.242118567954734
Pb 12.211078348241298 14.951100050483529 17.91556583145163
Pb 15.596836452891322 15.422435450879131 17.618822077072185
Pb 14.474444648226596 12.493478791095217 18.050842018961383
