31
Energy = -100.6711186 eV
Pb 10.290204985086039 11.183093809743655 13.971431256873805
Pb 9.735737063627557 11.563035953408878 10.69706116487714
Pb 15.084280711684844 15.411545025086568 16.66867690500715
Pb 15.152358578331995 15.159230237006167 9.2500242050159
Pb 17.33906108188337 17.59896578809124 17.8077788035166
Pb 15.833140284994712 13.257057601940195 19.30464419952223
Pb 12.557835330606487 16.179974565742736 10.81497676006511
Pb 14.992976660983414 16.606499229072192 19.97192896045095
Pb 15.842997415882675 12.101955036737786 15.997333318056217
Pb 12.728132456108764 14.439079353186049 18.86147633877499
Pb 17.279184797195175 16.669633872345962 14.384843297779037
Pb 9.94131070930354 14.640519020949942 9.60723515973709
Pb 13.569438051750303 11.323488560113866 18.191531528132934
Pb 12.80011028754065 12.85075835054087 9.874021160343084
Pb 11.992341369519595 16.40288383369624 16.293817305897797
Pb 14.841878203073493 14.563907018390312 13.007827272417828
Pb 14.115854102722906 17.501085434004914 14.233376185161116
Pb 12.47757148490827 10.156376548633817 11.74973217910864
Pb 14.327946433299951 18.55417118840427 17.474818537411192
Pb 17.997524002334124 15.401740068663445 19.968530359581777
Pb 17.624940864563584 15.731743341981899 11.18115367217064
Pb 19.65554428609045 13.345893167142558 11.0182405408658
Pb 8.21586404899028 13.902277374079024 12.248772241072878
Pb 15.385317988973155 11.196615136303773 12.674676986406665
Pb 17.853667361712453 13.396807916513636 13.590813561116036
Pb 18.2045163726578 14.44858489705138 16.863472395655442
Pb 12.683743513306789 13.198145245349075 15.686380854660127
Pb 13.394316063021545 10.00143023294334 14.86324855897768
Pb 16.81771144013924 12.668014715365628 10.125486943907397
Pb 9.837548718961047 16.586071155222253 12.348919612763094
Pb 11.43576452047665 13.848890740633472 12.73351141797294
