33
Energy = -108.06200923 eV
Pb 13.435637931359153 12.072267197476243 0.4260564265189131
Pb 18.269981503589285 18.48755979570822 19.338801269194494
Pb 18.219375598096843 16.117511086142237 12.343359205728996
Pb 15.977272550860091 16.736330120353003 0.8328387010458834
Pb 15.277684241881948 19.330104258766976 18.412843701826045
Pb 13.560352012542545 18.48937492233776 15.84909956667477
Pb 16.2476489854171 13.595606804300072 0.0362724838864571
Pb 14.245686811573844 12.845248530349176 17.45849641432186
Pb 15.121346249949276 17.580285027476762 12.865515351107405
Pb 15.941351176227666 0.5483879332152506 14.822458617690705
Pb 11.757746535804932 14.561566974494642 19.092901918653517
Pb 1.2010663086258113 0.7262803576374254 15.311995970028429
Pb 15.528327617563601 11.015217801928923 14.961905934939907
Pb 14.378523865666487 11.964711186099917 12.16037034324959
Pb 18.337102328351456 0.7073018757931827 16.885856275805214
Pb 17.616472976946916 12.759248914914737 12.97072276094982
Pb 12.471903425278768 12.345949997419638 14.712623517382267
Pb 17.595196483286706 12.969450059037621 16.653640668763263
Pb 19.719080413509072 15.016782098014094 15.149125047132959
Pb 15.419875906594562 14.570521361619 14.46236931685664
Pb 18.62934083021217 2.245515441566358 13.919380793308635
Pb 12.965410695399736 17.46777597752028 19.819541789296313
Pb 18.79577137577178 15.39480208562041 18.447857618186642
Pb 0.768758749253622 17.870874801996113 13.63486787549533
Pb 17.41529383702498 17.635174229761493 15.445219459953602
Pb 12.669441952733333 14.77634891828215 12.586774353423849
Pb 0.45637525621758973 17.846482344146843 16.879456445500352
Pb 0.6530610705661349 0.6715194218283266 12.139747230905861
Pb 17.69552918917419 19.48557028218096 12.230823190026806
Pb 12.472299878984852 15.40167924232994 16.036491236687567
Pb 15.580482000382288 14.719565160940927 11.104364672128018
Pb 13.521909528064397 14.88546389150402 1.7772789031964347
Pb 15.35904921232225 16.10016234705158 17.64591151022803
