31
Energy = -101.75302909 eV
Pb 14.678444140546633 16.697280715236957 8.856230200995574
Pb 17.229655180944317 15.875005562475417 10.725596365120346
Pb 17.429942849519573 12.141585783674845 14.773321011361647
Pb 11.641169342532628 14.69691724638741 17.565849868818866
Pb 14.247414069693267 14.038905380835887 11.490745486453882
Pb 8.481321610092147 17.364553451030822 14.224432288543301
Pb 11.349274453537003 16.428263718137032 13.217051689030447
Pb 15.270573101465018 13.518910756086338 16.617015044470403
Pb 8.500665909646392 15.47704548202599 16.806846852387
Pb 16.933795707153337 9.183862979298484 13.656268123242437
Pb 14.887251206582077 11.23715809390671 9.778978510433518
Pb 15.464304153257658 10.269379300100587 16.615703044475584
Pb 14.265068255363774 10.957707975786926 13.372862872531181
Pb 12.239032853204511 10.027180980082587 16.03120059473986
Pb 11.752305840888592 8.272875724320613 13.236980558118816
Pb 9.978357070285785 10.938777119577319 13.418469180508197
Pb 8.731828473623004 14.149345497487957 13.876713562502292
Pb 13.702378748971851 16.24990751564759 15.481444179545084
Pb 16.569660042882322 15.13820581305237 13.843229502834351
Pb 10.727831643232113 13.650325989843228 11.362503684344961
Pb 12.248996087190319 13.384162558148551 14.481720397055634
Pb 11.942049636226832 10.433899784191464 10.80559081678723
Pb 14.568742690941697 8.156322245620515 11.683722281867857
Pb 11.814237750405868 16.65594530381972 10.083690477109105
Pb 12.85638237615405 13.847945877384172 8.538345385391116
Pb 16.112070695598184 13.876002743286215 8.433456666094795
Pb 17.32132867583743 12.651816141725028 11.520346444668757
Pb 9.799695201530637 12.411061208543844 16.456415155804784
Pb 14.356597877208145 7.710030007527109 14.98444704932635
Pb 10.815482906626729 17.631378146761655 16.35326979333804
Pb 14.508530878356243 17.35263032749448 12.131942341596625
