39
Energy = -128.08061854 eV
Pb 17.406584415721092 11.503381604041795 17.045389823909574
Pb 14.221847568860252 11.44993902003673 18.01844083023621
Pb 16.154553073742264 14.293496250431946 17.924894544854364
Pb 12.134270636909871 9.292553625914554 16.6278327324283
Pb 17.731598592569636 11.415967484257653 13.831394677993618
Pb 15.37618479438295 9.551490262762357 15.4896442122941
Pb 17.6463720712657 14.39373125735092 15.090344591884566
Pb 12.739811377556558 14.883723857528494 18.29006175970916
Pb 10.697946176154215 12.16152456886497 17.818810572196604
Pb 14.86309757380865 12.857343758520265 15.16315365322392
Pb 17.869407111240534 11.329967274497395 10.421135007685743
Pb 12.57569908169162 8.146067151386108 13.60096763104055
Pb 9.362642042303484 10.230279806105308 15.342232632880371
Pb 15.746799963994834 9.326529151215789 12.247662969086598
Pb 14.618077726496955 16.604041717244773 16.246291054033346
Pb 12.123346763497697 11.413224001728269 13.758815006873563
Pb 17.291030684945337 14.23999386256401 11.478557133156054
Pb 14.5418213146835 12.541462333370667 11.131642789994622
Pb 9.571397369385936 15.311755832030734 18.020688759955735
Pb 11.39348296827159 14.381643522760793 15.19071481416274
Pb 13.847088633459672 15.339093804074453 12.975317349554597
Pb 15.880958805890169 12.033009441934567 8.102953427231514
Pb 16.54573077323618 17.053961565947546 13.2055886468149
Pb 18.305644088258187 14.161148007967267 8.375535657887498
Pb 15.237715133791536 15.307540639197086 8.30732169308692
Pb 8.05964540033196 13.208640618801873 16.192417837286463
Pb 10.631264959787815 12.52715311944222 10.483637850102541
Pb 8.678642422686286 12.535023436016875 13.069527317735803
Pb 13.659161730036288 18.695956052916046 14.060898534480375
Pb 11.44712762163522 17.597572684817656 16.530427507264896
Pb 9.884635655162036 9.568887620108462 12.048479931929862
Pb 17.58958642780318 16.958164867594054 9.912076558035622
Pb 12.866586688820124 9.803993197122228 10.794159326796212
Pb 12.89349098917795 12.997337592723008 8.232064235073192
Pb 11.169397645840313 17.16807389573246 12.979875582956664
Pb 14.394754967084474 17.679850585793165 10.797170220707525
Pb 8.680159258379424 16.188440540860853 14.933965370378255
Pb 12.070536725280363 15.702012233895529 9.905602152938922
Pb 9.200080878681135 15.254203865265055 11.462485714963195
