36
Energy = -117.46470304 eV
Pb 14.384371827640496 19.29922019150475 17.0888018195706
Pb 10.792194738004225 17.448585747198837 12.005279165128673
Pb 12.549880508424542 18.609397223479196 14.500442321826203
Pb 12.85456001080017 16.584049988486175 17.280363514151148
Pb 9.011405143071222 15.469087873577077 10.1885779723136
Pb 16.107198987076668 16.571622026753484 17.02860426743783
Pb 15.824924374103775 18.562036571851024 14.364428448334678
Pb 11.234345108259138 15.49325769185889 14.763193096001586
Pb 14.054904195063406 17.077550285602406 12.017034486632756
Pb 11.95176256852811 16.265411397233063 9.14615439748536
Pb 14.237635692541511 14.329872713751328 14.865683853924844
Pb 9.303391286741542 13.004152173454468 15.911538359240664
Pb 10.861281805540191 14.44967104604143 18.29441952265399
Pb 7.8362953005220986 12.52010374098534 9.83983056361669
Pb 8.987034108650096 13.326514924687592 12.724344075662247
Pb 12.096862965143291 14.164277044249053 11.626424129959664
Pb 10.70233435937924 13.12401179214723 8.555825646634304
Pb 14.145930762602452 13.673599154281217 18.3507862102554
Pb 15.709825960204721 14.270693636125939 11.333211256791897
Pb 11.738231842914525 11.728845280273221 14.026254185006477
Pb 17.07171454391949 15.659112262806953 14.01610142568266
Pb 9.91158497675856 10.557032972147027 11.190851647209564
Pb 11.668535167656081 11.431099299557783 17.55282482814465
Pb 13.8942853595083 13.632773175830502 8.712279155452121
Pb 14.705025378755037 11.172245014111764 16.32479559032602
Pb 16.31951661676347 11.131616973227684 9.56320444904736
Pb 17.017410632232316 13.443977454573542 16.44759492680538
Pb 12.452434704508244 8.921597538093186 15.630798358286803
Pb 14.98565945009741 11.293951934925202 12.704689685984285
Pb 18.163280180474615 12.343176565117513 12.041176351931561
Pb 12.190296558058861 8.778491831045434 12.409408028913479
Pb 12.847479071352078 10.614541116297513 9.54369464624464
Pb 17.688666548355783 10.63045254735235 14.719427176119126
Pb 15.425690982955398 8.35788821265316 14.05886982501346
Pb 17.829193618114843 9.190612755341604 11.777825766832013
Pb 14.97147057960822 8.373195927977934 10.704695968118555
