32
Energy = -104.19251128 eV
Pb 16.22857164957908 18.672321756617656 18.559637272255678
Pb 15.83845437290083 15.577991217136844 -0.33801686209822956
Pb 13.213877229945192 17.85306121936461 19.01209792881682
Pb 18.62658943717022 16.698863065742326 18.321986783309562
Pb 12.61609749593717 14.564885902173671 -0.4601965775257058
Pb 18.344383647384504 13.586701474521284 18.064933208983874
Pb 14.44297935635724 19.06125358440603 15.902673488057996
Pb 15.230052787049821 12.505079088669886 18.516732863197706
Pb 12.77266157275997 15.49499657239774 16.295426586867176
Pb 19.75879499471993 15.647880302030124 15.554035981723416
Pb 17.164524465981096 10.978712153292522 16.425066981019846
Pb 11.247843265040444 18.833323313978667 16.48497153808802
Pb 19.78127620587904 12.35829792802018 15.397825986831915
Pb 10.210866727731322 16.6420013786343 18.534502982274486
Pb 17.62304377985523 18.326173831795682 15.578170241202056
Pb 12.243526350196916 11.78295483731371 17.660069420950517
Pb 9.793968105765916 13.744063617041983 17.516397665362838
Pb 9.662674684780226 16.103586554467675 15.215842504227636
Pb 12.101302235222173 17.849964095001063 13.606858835686227
Pb 15.784143794781944 14.675385673277324 13.972511118320298
Pb 15.522389938421655 18.21822189657714 12.904425331169751
Pb 18.93507978015432 13.886841307184763 12.832679863787048
Pb 18.738425747709478 17.218394433493714 12.696503015212006
Pb 16.81116486596724 11.483816560638095 13.195438086366902
Pb 14.258205190877078 11.505309393397145 15.212049641939773
Pb 10.974425031529888 12.669029531678754 14.704638097733687
Pb 11.041969798583741 14.995685634694038 12.457799820304373
Pb 19.22022709502388 15.141505013275198 10.08242615310879
Pb 13.458714240529801 12.693823988207535 12.363553334310506
Pb 13.981293398050722 15.771903974923973 11.366776639875345
Pb 16.668660365139466 16.869888359226834 10.068185752416614
Pb 16.31235655565142 13.591137510258996 10.637142974299488
