32
Energy = -103.75706484 eV
Pb 15.956343265544948 12.148730440930295 8.818054517615916
Pb 17.531198764787835 10.187008759719703 10.972378660589314
Pb 12.8138094079447 12.530359486582487 8.806675434866175
Pb 14.44265580007177 11.25293079342171 11.600030866354949
Pb 17.465124086349675 13.438936908985681 11.277863631373059
Pb 11.335889722966588 15.243691092457837 9.45756866959519
Pb 19.63376962247593 11.487470920748482 12.818599144570287
Pb 11.865158886161264 13.250979580566286 11.893663284164052
Pb 16.676109214043226 11.246155399771753 14.062616840759445
Pb 14.481182540864632 15.023276935497115 10.006329797149501
Pb 13.271714687493914 12.11623376373055 15.52145595225427
Pb 18.35604992682709 14.011467996378736 14.211712217590714
Pb 14.802818277019696 11.078626856612313 18.30736609122519
Pb 15.951920978999265 17.08464659779046 12.304377916150159
Pb 11.127701466180648 14.539464548004945 14.859547191546493
Pb 12.065175947348571 9.741615550331273 17.25837108672133
Pb 14.888443250114847 14.214805801849455 13.568924992952388
Pb 12.26499281229952 16.501760215288613 12.22748322087008
Pb 12.013112255341289 11.326311218944207 20.017231188360675
Pb 15.815382301660769 13.814420836122617 17.055611542468103
Pb 17.155908505739742 17.160904247054233 15.321538694563925
Pb 10.378277919050046 12.391404988151248 17.38853993001303
Pb 13.861226983477426 19.479554057686283 12.238158395993779
Pb 12.743305073623793 14.972499793585133 17.435691610120287
Pb 10.977022691867502 14.297836988436078 19.921426523739584
Pb 14.193168512012143 13.753260133833823 20.080639293546344
Pb 16.594529880250704 20.049077896066287 13.904682024888311
Pb 13.906872951026132 17.671739502405412 15.107664217201618
Pb 18.049263567714004 17.660636901694073 18.14617752693778
Pb 15.060786457923445 16.850582906212477 18.490470576115165
Pb 15.819289795499134 19.772331234482326 17.060877921860044
Pb 13.721061684469035 20.920544883806937 15.077538274990973
