38
Energy = -125.30831413 eV
Pb 15.57379422650986 14.195021868898218 7.740059237223443
Pb 16.738679272053467 16.50308146972596 9.755268513754388
Pb 12.841462514694374 12.224500115667082 8.820041031483054
Pb 14.471116138835775 17.357190814424104 7.602231276800597
Pb 17.29231147078097 13.511488275795426 10.926139853047907
Pb 12.302562066507992 15.035219139695977 7.25979469447359
Pb 11.78471710375393 9.995034306013304 11.020903496474979
Pb 15.7642883978128 11.097033986219293 9.409667693019268
Pb 9.814155782916576 12.614230141277694 10.104174810998257
Pb 13.676658568160018 15.193354845110774 10.334848571505402
Pb 17.373860623784758 12.887762165042984 14.368938617997868
Pb 16.096872973781206 15.764026621716068 13.163611202660741
Pb 11.630606731707212 17.570613399304797 9.153550594412895
Pb 17.1049431434149 10.416178618946413 12.291617169203448
Pb 14.272006706844802 18.43594958029866 10.670738594664698
Pb 14.333130800234672 12.225624197766487 12.122097460184492
Pb 14.266455021162788 8.780845651138957 12.796800617601955
Pb 8.815541311165 10.410631795835616 12.219422865185376
Pb 9.922773993503483 15.532484803186703 11.114298234489702
Pb 11.15809565242072 13.10817510372387 13.183760127887993
Pb 16.178812178931143 9.660978014775443 15.492886195963589
Pb 10.972830084525567 8.450181040563866 13.949240467678672
Pb 12.970697878856843 10.858184338896121 15.193687201321836
Pb 8.027881719748795 13.609760604334168 13.113500715156682
Pb 16.86846194287401 15.342357958625875 16.430406900314097
Pb 13.937886701011148 14.146217896681662 15.195044626592404
Pb 12.774809546543638 16.729345406060716 13.231431238143122
Pb 9.233581682896459 10.941450077188946 15.385020433242321
Pb 9.613268594014423 16.36935775907666 14.169037371759053
Pb 13.68729774258436 7.574432947198739 15.839406965467997
Pb 15.980042415516863 12.312203436824145 17.49096854985124
Pb 14.440258409321217 17.335916936769443 16.009237278103658
Pb 9.337387394905626 13.97401876631835 16.343894099346464
Pb 14.013587718853335 9.872331958778778 18.200196791404597
Pb 11.124851102071668 8.971962916644694 17.20405028875591
Pb 12.019771200998493 12.655905938729587 17.87278433081653
Pb 11.571054853215802 16.227357289256922 16.853859000063363
Pb 14.255261162506073 15.109626868370448 18.42010290787189
