46
Energy = -151.54537735 eV
Pb 12.631061553307564 15.118794941521335 18.125998898739876
Pb 13.886659562892902 16.616768102986555 15.195247659103444
Pb 16.82809009709704 20.561060552710842 14.750915078393286
Pb 17.888543521758923 12.635800318823035 19.214144539318998
Pb 12.94205139299743 13.246339198783168 15.113976863362899
Pb 19.369862126207774 19.031844667965366 13.451459737862177
Pb 11.502177080284612 18.232140421849024 13.453548011676121
Pb 12.690993442098195 13.307966706922677 9.809662813539799
Pb 16.194649333811746 13.685185658830084 16.270285696262103
Pb 10.809127593934717 10.819571572144053 14.556217151842866
Pb 14.760521939944272 12.56035506452962 19.492412335241834
Pb 15.424025978759499 9.66088467106734 11.194762416434731
Pb 15.145135400659784 19.526588225556317 11.973504433543848
Pb 16.01235011106179 10.535575540230672 17.05364936579378
Pb 17.989140144770218 18.522703098118793 10.359790778103855
Pb 20.519232990283232 16.468771313838342 15.004008700896874
Pb 16.63195050478037 16.555858397375513 12.892848361662715
Pb 12.98059809643772 15.67935289253117 12.212900297735306
Pb 12.711156401705411 10.92914416544723 17.384885653644144
Pb 15.075711641740993 12.918997309786379 12.338863423574812
Pb 19.181264036418693 14.969808236953796 17.42295254876339
Pb 16.166155746531793 15.564606199650846 18.9604280421294
Pb 15.026333003590032 16.854559452593197 10.09897146246104
Pb 17.76810429419662 21.340794168425326 11.835015753251222
Pb 17.611560651434942 14.909202621089223 10.085189439214496
Pb 17.452959805386456 17.53629239615473 15.9366529464525
Pb 13.453558064454077 15.005438305520807 21.35701607571496
Pb 13.978186507141677 9.890270969803323 14.188695477511166
Pb 11.8000090192891 17.72200080683766 19.948609208759397
Pb 10.301618931466127 15.041276072063507 20.898714517379556
Pb 10.755538886208988 13.368903726486204 12.609549066245107
Pb 12.045245327467072 10.503847622123137 11.57288536585433
Pb 19.95993581873007 16.25128392591546 11.824852041262618
Pb 15.773622652868445 12.33730441666569 9.081101392363472
Pb 10.112359056517752 13.025501317989743 17.409370029073408
Pb 13.705070140490514 19.923481453149094 14.958264106861586
Pb 18.082739587584832 11.823267196178165 11.192132867613319
Pb 18.43633234351616 13.9372167652319 13.837614350647016
Pb 17.229246064787795 10.600220559642109 14.038403168287337
Pb 9.315206941669782 16.292180439472713 18.145203001189454
Pb 13.354873585331653 10.317948965319955 8.757615608233456
Pb 11.20918352842385 18.52775142994653 16.733462643952944
Pb 11.708686170761146 12.266720895370165 20.319966014830165
Pb 19.154827219765604 11.891001855990515 16.397881588099576
Pb 14.403020746134596 18.285461853104383 17.852693501180152
Pb 10.468212183931282 15.646844755938705 15.134566794569253
