40
Energy = -132.05522016 eV
Pb 19.11718860008762 13.031508074550928 14.48596289165728
Pb 18.17526016849638 10.016815929615435 14.906664239649045
Pb 17.05498822223432 12.064329353477229 17.164431525895353
Pb 17.422667748933687 14.870002152928798 12.112002150426886
Pb 17.099387093225772 15.245454838135773 15.760975646179705
Pb 18.03599244806558 11.367154374414499 11.804900016245055
Pb 15.03721325611845 9.743909106992982 15.988940869125498
Pb 17.552356501918638 13.305339964671019 9.142645072311831
Pb 15.412900422544775 17.34919169382434 13.963020253246386
Pb 15.744514359051026 12.346500437471 14.06181294729635
Pb 15.713269166804135 15.905189438740791 9.454803868767625
Pb 15.567466211354898 14.644891824226576 18.55569248979959
Pb 15.865446934709974 8.997451698819294 12.79843964996649
Pb 13.566133619425568 12.13458806883304 17.938244890861345
Pb 13.504236423988473 17.855218617920418 16.45059638647431
Pb 13.462396876121527 16.270716407966137 11.825986779449764
Pb 15.731515002795794 10.515694741977722 9.354453953754486
Pb 14.664904499294293 13.220883745355266 10.92992529860531
Pb 13.87863644392683 14.70036035038598 15.690512647987168
Pb 14.657875401394856 13.30247141216421 7.659318609138823
Pb 11.755265614710359 19.12045993131117 13.858813114989402
Pb 11.163179458284153 13.758466805443303 11.951768184237695
Pb 11.706920082930028 13.042922684113067 8.845912920139648
Pb 12.356359620990563 11.880600311107623 14.71371049390948
Pb 12.725661959328388 10.62358847380666 11.46462248006664
Pb 12.67834022735402 7.930496397339057 13.305473957661528
Pb 13.940242648813397 7.801083530831826 10.218604928630828
Pb 11.06924889945706 15.949574560718537 14.485380085761129
Pb 10.419024698981662 17.26956491192225 11.405149736255922
Pb 9.971478700163047 9.64307737988625 13.165298135797663
Pb 10.192916110417519 18.196113641454684 16.68249965295769
Pb 12.553776908144362 15.684744208263531 18.56891232941778
Pb 12.248128865248704 9.812440147840466 8.253166896909429
Pb 10.61559417758227 13.48644634168772 17.233097962822594
Pb 9.663893044053102 10.852584351312938 10.105158983572212
Pb 8.531385136543536 18.30849799575418 13.903923564190672
Pb 9.159905486550775 12.712536792057866 14.451156408435182
Pb 10.76418424518257 7.853218726000266 10.585474470620058
Pb 8.170065378185354 15.330884260915653 12.630245608078024
Pb 8.218553257601961 15.700793352477541 15.934663971713007
