46
Energy = -152.59038486 eV
Pb 17.899793642269643 16.640249247013998 9.38370678236343
Pb 14.822672979582919 15.385371505060881 8.674151592292155
Pb 17.32005486414265 13.405539500529057 9.038904494650998
Pb 13.865703859226281 11.106039293775904 7.381817648499557
Pb 11.53558802794649 13.638619057360053 8.674966595536494
Pb 15.317219522895112 17.987384741750073 10.763099625110522
Pb 16.556482988021045 10.137274803270904 9.108644991587516
Pb 18.150716602966696 17.439337408431744 12.493112075752249
Pb 12.307090281437373 16.267783787442564 10.624372072852497
Pb 19.080011929942955 14.477776162850265 11.624633122259862
Pb 11.062782014240282 10.368013077565124 9.132427976631186
Pb 9.146797756613331 15.527496244571305 10.256612078655214
Pb 15.855808011258095 14.876980309820485 11.840297730783922
Pb 13.705263863838061 8.609218411326857 9.39252960785651
Pb 8.636992382900125 12.375165129224053 9.80629303372933
Pb 14.1470430922752 12.076583876685406 10.36209057563111
Pb 12.831023288786898 18.445968228172536 12.84156968905276
Pb 17.358753396898905 11.605616839091425 12.072958296141136
Pb 11.061678213015893 13.204989013822287 12.033703703730156
Pb 15.460120946629425 17.448340779413734 14.358516972908648
Pb 18.856114768646066 15.41682291444859 15.211093406887967
Pb 15.452961133009152 8.848636179379046 12.156438228937986
Pb 9.942750601126638 16.463913195360846 13.283399280737482
Pb 13.649394177592297 9.339575497726276 15.374395714386841
Pb 14.240459588915327 11.941393813338848 13.568505670584397
Pb 16.738074339124896 16.53459191674911 17.46863617430984
Pb 12.198997242028604 9.547496518622136 12.249959630393297
Pb 16.13728806771471 13.737349033797843 15.800609797005468
Pb 13.371971213968767 15.674010167004019 17.051093049902235
Pb 10.035830062342317 16.660195483376178 17.683342654109197
Pb 13.08469109291314 15.230960732469397 13.845741708357474
Pb 19.0648389456601 12.205413519541322 15.590069830100315
Pb 10.510506099077803 14.009854912548468 15.942747173379567
Pb 7.682067255299034 13.951539548693363 12.825722444855096
Pb 8.832541014846099 10.874850558244717 12.744650951370797
Pb 18.645027602546566 13.980953888585317 18.263109220510746
Pb 16.727087546032887 10.012136163685415 14.947253783177619
Pb 7.6524280590744835 15.6230692202998 15.648520557855951
Pb 10.75379492019969 10.867932652425367 15.305722215772928
Pb 15.536286740565986 14.084965658936563 19.184156570260072
Pb 13.293654609118585 12.26350907158735 17.25226389096153
Pb 11.345656915558711 14.204611690434122 19.292373288895938
Pb 16.761852403999587 11.331181361635235 17.99473789248488
Pb 8.142098751786508 14.167282677978069 18.5686685239962
Pb 7.63540152775263 12.2576584425251 15.86491653058579
Pb 9.909023978535847 11.461472328293215 18.356021426117973
