42
Energy = -138.33882341 eV
Pb 18.441281543028676 9.826964228030555 15.871036091171794
Pb 10.70965105285945 14.20514113204073 19.787375527637053
Pb 13.032968936519257 12.264933230999223 18.93933499809022
Pb 15.940309862888071 18.43241761273601 18.879461832184113
Pb 17.886414314837545 13.336314147359673 15.961162947686269
Pb 15.94628746916145 13.826157158444472 18.635200620589814
Pb 15.608467017919676 11.010075435140852 17.002448643527337
Pb 18.15209223788103 16.223154016164813 17.80478099730726
Pb 18.307644978306058 19.341901890121427 16.81892999955599
Pb 13.393933009535392 15.782084952841782 18.996255865041718
Pb 18.711037089883813 8.475225905299727 12.931171834118599
Pb 10.529264632847447 16.135176465445163 17.279716465267068
Pb 12.790522798055916 18.597044187911305 17.155625420206302
Pb 16.589142846468178 11.24483486488462 13.525795090339724
Pb 12.641054824583117 10.682005724351669 15.917735887537475
Pb 15.81120502303649 8.292984152406406 14.419796013981891
Pb 10.36158560537411 12.824553810240367 16.865278757842024
Pb 20.05911565100157 11.33919607079331 13.523748979408966
Pb 15.392975536687638 20.57339762700389 16.50410606092787
Pb 15.493503575563423 17.0118093442073 16.042467720529906
Pb 13.767637612676607 13.805907708882902 15.95704093384344
Pb 10.987984849508988 12.541664948482776 13.543800237477457
Pb 8.915856610538478 14.925151726806067 14.623806463881907
Pb 10.353960850897582 18.270476990270033 14.709649088900516
Pb 13.506457282449896 10.27711637893111 12.527831214962612
Pb 16.055162694623228 8.634432104932548 11.090690029640836
Pb 12.160382304477151 15.901221915657883 13.513457608985798
Pb 13.553845564643343 19.4282584386415 13.991072994178541
Pb 14.32181558121899 13.433302848029873 12.3708682067818
Pb 18.562132238972264 16.836671516887197 14.616561524698772
Pb 16.926451613812127 19.47902957674237 13.809966651216945
Pb 18.314533171420774 11.039949402891983 10.655212146015716
Pb 15.64762624570747 16.396345759389696 12.873469056986508
Pb 8.197852821311047 17.30858298502734 12.637164010308226
Pb 18.232317576695607 13.927980587747182 12.774233714029755
Pb 15.01488780105082 11.4193335945477 9.709659882952248
Pb 9.729743166152748 14.811601016792325 11.27791128991592
Pb 11.804895137794587 12.411785116636617 10.365109262683218
Pb 10.906209571546897 17.940120644511158 11.120812701170806
Pb 12.910852881689182 15.470460590820222 10.141235886400231
Pb 14.098303876684174 18.452489140711847 11.036754529293257
Pb 16.545581653050707 14.175694163597703 10.105211926085113
