46
Energy = -152.51646766 eV
Pb 14.038053289773472 8.78903770523725 19.37506576824956
Pb 17.188543567828173 9.919380203917363 18.510834364146326
Pb 14.98429986984839 11.602794211373268 20.450473092312084
Pb 15.283013425384063 7.862361071329332 16.561097621472864
Pb 12.12470303419792 9.074059250853265 16.782631639716335
Pb 12.038177379366873 11.410499289445447 18.9975144313623
Pb 17.135257123952787 13.269965673943773 18.813319432236707
Pb 14.681518199977877 11.344389138975611 16.96031255850141
Pb 18.358397868928474 8.962221320787046 15.125911627572288
Pb 18.646998633004145 12.18301688648764 16.175454942931292
Pb 13.918674391700469 14.178081688244704 18.444100903771318
Pb 16.038402833889194 7.411555702731069 13.413839540701835
Pb 12.994131477360831 8.61131639093401 13.711744878739049
Pb 9.454296990926865 11.721420662179636 13.595651745325158
Pb 7.910679513722565 14.017732867332557 15.39508816566862
Pb 11.141625370467041 13.121692263414804 16.186571908341406
Pb 16.0598683629011 10.877989417903281 13.85851792783996
Pb 9.921934579982162 16.228266924210967 16.540829227844874
Pb 16.130150462337227 14.7644450674382 16.1268179598158
Pb 19.401218867461754 11.48102853820147 13.101599714469662
Pb 18.11220840309829 9.017762645094894 11.629591156908294
Pb 11.49247508209005 10.029024465860182 11.1438164797078
Pb 7.808209115464186 14.296608349314242 12.185491063496467
Pb 8.034010307272407 17.019968122121984 14.002791015276413
Pb 13.074433521594985 16.12713331753262 15.784319948760816
Pb 14.863573548008938 9.431904248846601 10.942804373218772
Pb 16.859072274414274 12.049628936235756 10.777860358448308
Pb 10.840403484071834 15.101129022809195 13.343545391547469
Pb 10.232922136507009 12.879049036123345 10.556313149159832
Pb 14.411736753754502 14.80594608860422 12.619441894637953
Pb 17.618799577769774 14.123608440314753 13.401063126918983
Pb 13.562320743153688 12.297078296807816 9.926427416392777
Pb 12.784891187192727 11.928915383082096 13.47744393574788
Pb 11.00792939933294 18.519280846944568 14.37532593343286
Pb 13.553075438533112 18.03610349784903 11.723639753480867
Pb 15.609806622703374 17.77715599944197 14.205738780885705
Pb 9.885639521073772 17.491607021944716 11.270782454913514
Pb 11.192029758851131 20.505731876935844 11.728913866081806
Pb 13.959315656969771 20.71074980757344 13.616964952235865
Pb 15.195986372160224 15.08376865053127 9.38039279203937
Pb 17.000819783315766 16.81595281534822 11.4258584292682
Pb 12.090388990549668 15.432821435840076 9.920910720153579
Pb 12.153418541179477 18.900183356844785 9.006499790606638
Pb 14.039102036468474 21.26978175719477 10.329720294462648
Pb 15.486027356883001 18.64243815436579 9.02684479466364
Pb 16.580126014603778 20.031983360726436 11.806607584908013
