47
Energy = -155.27214239 eV
Pb 7.819276467471998 16.737129025158826 12.537647947702313
Pb 11.037977083067119 16.57523589128548 11.223434817859626
Pb 9.936949796176597 18.97249549742459 13.2721531984402
Pb 8.993838039305377 13.802067977596327 11.754404216910457
Pb 8.40163686269359 17.448129228488636 15.792322213783281
Pb 7.515473530831748 14.376124965979026 14.761924663862485
Pb 13.220731614149706 18.454990281033535 13.182431856989096
Pb 16.221489927006314 20.119158009643 12.621862173117579
Pb 10.61550732165159 15.668842388719602 14.267675107411556
Pb 12.53962596858612 13.580784070473337 10.068325749564336
Pb 15.699806568735797 17.382468051522693 10.767635656109617
Pb 15.319966923432075 19.753214582680197 15.599641057830743
Pb 11.5307706318995 18.71937077234872 16.114467946218635
Pb 8.747284185612564 11.444809535281864 14.178889841108989
Pb 11.093386911080536 15.736775831914056 17.557065759442
Pb 18.80097166118299 18.864579144988376 11.311628613262506
Pb 14.023497732350037 15.262770326196728 12.74344961175851
Pb 15.841004375475004 14.175388201496416 9.777250845031114
Pb 18.877126123728775 19.37644637378936 14.72638617849031
Pb 16.893113752073916 17.01002392220856 13.804272898272252
Pb 14.696780849220088 11.108196065667848 9.055006284548785
Pb 9.715349964701996 12.845453090205117 16.88002929753443
Pb 11.771500602129114 10.425154771084497 10.125329792130202
Pb 18.74985416572481 15.661530851453728 10.852367609069955
Pb 14.718132096556205 11.842319522253892 12.163199231093452
Pb 14.190511039299116 16.613539356035346 16.028387596973754
Pb 11.598323441815259 12.177612230947553 13.017507315087348
Pb 17.061295322080426 17.715638212687438 17.349729606848065
Pb 16.7565327928797 13.552427660029261 14.322643347603332
Pb 20.75841232764824 17.115845346755304 13.075884621286274
Pb 11.261937751399435 9.767411500797865 16.017993714312105
Pb 12.808155332999293 13.558616863583056 15.724015622706887
Pb 12.40798133182151 11.591655685403571 18.514046714182218
Pb 11.721883001784459 8.890595046286027 12.90167290110422
Pb 19.335187905616905 16.06770448232247 15.828413251239402
Pb 14.009763991351136 14.41782579805681 18.662370828310596
Pb 16.940933065302065 14.33876684591134 17.526842142885783
Pb 20.020670906120902 13.964960046135342 13.476381310386829
Pb 14.571032867686432 8.753533485500439 11.161491514713273
Pb 17.99824506126755 12.493773996034163 11.478444742563722
Pb 14.66507545535456 10.998065039518012 15.780164975099739
Pb 15.8062079145831 11.121510882112183 18.79966677942735
Pb 13.745536024757067 8.603422323319277 18.039264481332946
Pb 14.249091193181542 7.930046088395549 14.81014653944193
Pb 18.173629861466928 11.383983947515313 16.450642172146896
Pb 16.989905008567398 9.85929484290391 13.753376406282767
Pb 16.744671894558298 8.483001045405949 16.845709220873257
