45
Energy = -147.52069063 eV
Pb 9.829057438275207 14.452035978705423 9.604641631419517
Pb 9.429446716574473 13.491563148141642 12.696776770070814
Pb 11.984999549147727 12.329158367050848 10.64155318421439
Pb 10.860939224334697 13.134090167704102 15.89429138717616
Pb 9.388495983269552 16.6622306580902 11.810357825559898
Pb 11.158892094179535 10.918464112469406 13.331256098900399
Pb 12.466491509110158 15.702546049122423 10.78512977133407
Pb 9.333130294019634 15.880751632797717 15.240558128456351
Pb 10.943885347770518 15.639631435641524 18.29397663755589
Pb 15.104144772067546 10.125266249894326 12.308084603556956
Pb 13.041694444973059 13.716779424838148 13.530384518864683
Pb 9.281787088452024 18.84035432250175 14.062118723012336
Pb 13.889278063462438 13.482052742127777 17.295942172075858
Pb 10.41283470117892 18.749672739342348 17.157455045018512
Pb 12.119609316835435 17.011187458860952 13.774089427834285
Pb 13.627715057290398 10.676838518512863 15.296872407939322
Pb 15.343688165624318 13.168007984073054 11.0546541038821
Pb 12.042548431233561 18.43974719769056 19.9504538890612
Pb 13.585470061648328 15.688264445205043 20.17294150634405
Pb 13.453683785387847 17.10517828440271 16.895296847888616
Pb 17.78397645923195 8.295992250374288 12.407964526563662
Pb 14.712771510233758 10.326747449260063 18.27642550726931
Pb 16.556301846933987 9.147656870347381 15.297818884114339
Pb 20.558691589591195 9.467782542026521 11.459765015415314
Pb 16.262088742369304 12.504649709731027 14.275730730682282
Pb 12.056248829590773 20.344246024180535 14.558862470860008
Pb 16.07418585846673 15.966315511085101 14.31737329280022
Pb 15.681809603153424 12.695757915978636 19.94317743779114
Pb 13.190754920609713 20.511395162685215 17.694869438470292
Pb 17.58198861883592 11.52765718297458 17.4152821211849
Pb 15.816947726056156 16.46158027927341 11.108743483352363
Pb 18.01894909031709 11.235799544282418 10.951157962186283
Pb 15.257848475657317 18.453735231780524 19.32044132924157
Pb 16.898186612460886 14.750669116962355 17.33700846453578
Pb 18.58703022477881 14.692759195923536 11.046494688530112
Pb 14.845389330346729 18.917520080351885 13.309650204876519
Pb 19.47305846672915 10.410321007082691 14.333546142075495
Pb 16.335656277749294 18.738337437184438 16.222402192969042
Pb 19.245273745821933 13.62125593138707 14.952352901772674
Pb 16.762829703137122 15.64754938147118 20.33381031590051
Pb 19.036632302089274 16.776830470020727 15.675974117762475
Pb 20.883117809806265 12.591660146727907 12.172588279801921
Pb 18.386361683828667 17.64748132396704 12.611886429573309
Pb 20.894272826758883 15.719488409550891 13.13042880652084
Pb 14.946896323441425 21.478051531049413 15.19447119841608
