40
Energy = -131.8457567 eV
Pb 16.0469996122514 11.42063333477894 7.851983208832329
Pb 15.918226002014642 14.570779176713968 8.887844860247382
Pb 13.137146627328042 12.79610693379453 7.878503734805076
Pb 17.901646786017974 12.403745137570313 10.450097503718137
Pb 12.686151228204912 15.75518673205272 9.342371943550088
Pb 16.450973775069805 18.422735339519207 11.685720901633816
Pb 18.054963749059166 15.699138494765142 11.418009127272375
Pb 16.349021106146612 9.342886127810266 10.226893220018471
Pb 13.367180477067574 9.833504867362947 9.08462463686678
Pb 14.56299201533803 12.226694036814937 10.900338235372686
Pb 10.14715234537734 13.367783464528456 9.37823711472346
Pb 12.178298967738339 17.83696438301481 11.90663864324498
Pb 16.924264235785742 10.51762675914271 13.158120199646298
Pb 9.598402665956838 16.260307435454983 10.427306501965163
Pb 14.806551292229052 15.54224880423155 12.027251689375424
Pb 17.169000243714713 16.92023455881904 14.446487322110606
Pb 14.487989863808151 18.877066269623644 14.061547983095977
Pb 11.645652335157772 14.251857613911904 12.38605283564155
Pb 13.721962614980253 9.360174240000333 12.570668940078273
Pb 10.941221715252262 10.974296136446547 11.62890966790337
Pb 12.423639980442292 7.701179807208289 15.656138217258407
Pb 17.892619757816387 13.593241287671272 13.939508796179823
Pb 15.089196025674365 9.382215367694473 15.719291267296839
Pb 13.362634735244438 15.558193100269689 15.100931871820316
Pb 10.05892022880347 8.509399709756737 13.58388115773536
Pb 11.889593790999536 11.088431319143098 15.023503055656706
Pb 8.456642089104058 13.700113208681193 12.239933203005927
Pb 9.454957516372094 16.63866233507346 13.547758816907715
Pb 11.760100370960968 18.383756341438534 15.530589703202587
Pb 15.537161806914314 11.741159604224885 17.677236174443742
Pb 14.68634644897656 17.700521225384225 17.150658158593068
Pb 16.345232918641564 14.694847964236988 16.709003792452986
Pb 14.78213859786249 12.614134649177322 14.511824321595263
Pb 12.517899149476166 9.867810074035466 18.181601797490803
Pb 9.583807224950217 8.855405571680437 16.73044740665194
Pb 11.787190737846807 16.321029415653268 17.960827036100653
Pb 10.243853818070146 14.349105697856427 15.72199555946397
Pb 8.641271568362695 11.245858083333918 14.548013356286756
Pb 12.87824839295158 13.386415856663705 17.96468406576262
Pb 9.873592760311794 11.85304735669459 17.740313167694715
