46
Energy = -152.08362243 eV
Pb 12.825412783234286 9.43030205935567 18.407726362008646
Pb 12.178462003243467 7.624872811730114 15.967849249675162
Pb 15.099661863840824 9.153387864908813 15.174211502909317
Pb 9.813195108557524 9.894520674417706 17.15408564237792
Pb 15.030384283847036 11.648907619371384 17.672653952387464
Pb 12.93461640405774 8.2611225024449 12.707083093060977
Pb 11.696626998376047 12.389841001331751 18.652649655603067
Pb 9.854745704629284 8.54547675648257 14.061535378209678
Pb 17.877772372901454 10.595266998122485 14.119664110383301
Pb 12.308030914075037 10.94866121583706 15.338975947518401
Pb 14.11791355117632 14.452210627501607 19.225633657169233
Pb 16.652462273845355 14.482355615488633 16.99682859167212
Pb 15.697065769864786 9.878612650558905 11.710210135674991
Pb 10.379952418292097 9.741191898204514 10.994908150754203
Pb 8.393357321179552 11.40449599524271 14.254489481360393
Pb 15.415776300169107 12.60423419256552 14.355588225753502
Pb 8.8668133496234 13.486095147960015 16.790388446728198
Pb 18.378139787951298 11.959202969528361 11.170657253701004
Pb 12.970921025653274 11.837192245550368 12.056527764643928
Pb 11.189217338112828 15.649449336068729 18.093997197512216
Pb 13.219364770246433 9.517723594429752 9.553221600556672
Pb 13.471995025710175 14.880150179706545 15.927624521793646
Pb 18.710349654241064 13.695845763230595 14.183685668311497
Pb 18.078723069606696 17.594536425509162 16.441096604237433
Pb 15.095219126219343 12.42910300233296 9.528839556708428
Pb 7.393177050043433 14.47679966697053 14.021131684934817
Pb 15.13625438440806 17.244429719082785 17.872011607935036
Pb 8.940396144551242 12.994994811202307 11.324554599256965
Pb 10.764638656658228 13.734606080988083 14.017617909313813
Pb 16.415213268096178 14.81119106303621 11.780569134696654
Pb 11.440304186839423 12.21221460309917 9.216779810123436
Pb 19.954759445246303 14.779357848929477 11.35250717342611
Pb 9.511339949773449 16.466742132790248 15.4024095703138
Pb 19.122560454010614 17.06555228082326 13.399754994877853
Pb 12.727377921669921 18.28831288754388 16.004907917239382
Pb 18.05411637040714 14.206689799222495 8.836688026238678
Pb 15.71935672829693 16.969833432000314 14.331253313127059
Pb 15.981287047517947 19.901431015936147 15.85318722137607
Pb 9.544069796239725 16.04409728689129 12.084951774441814
Pb 12.958309280493816 14.866001980631843 10.503832493379521
Pb 15.409250291400879 15.943828237745572 8.700680592682685
Pb 12.591450182317445 16.758895157587443 13.074577894707236
Pb 17.921875693212183 17.405649913429574 10.274853344534122
Pb 17.06558820158472 19.69882203094549 12.592594824347694
Pb 13.982660027985231 19.908830267256917 13.409968303339742
Pb 14.594831142161768 18.361228032096783 10.682789145112125
