47
Energy = -155.51059812 eV
Pb 19.355810319180637 15.272372492837215 14.857643062205474
Pb 14.253401318545125 13.1451054604104 22.047043313796713
Pb 19.68551472356183 12.119297447848732 15.139712042412402
Pb 18.061154577198998 13.739128013464585 17.680837838098896
Pb 15.690416656531612 11.857387213721042 19.473466266903408
Pb 17.08802527915001 10.759346586263575 16.569692661114765
Pb 18.762195967174748 18.487437878185784 14.696215461603538
Pb 18.003691054399248 17.10740726501357 17.694871120686372
Pb 16.213529647307297 15.014773511570528 20.301619981369925
Pb 12.42847165417948 12.34468092790659 19.654400485203567
Pb 19.204234364255523 13.335689727281148 12.086070497171146
Pb 14.2081090037415 8.750532615840784 14.161727271328978
Pb 17.43083610164178 10.567516009154938 13.242107468795954
Pb 16.58272122540006 13.467318788461343 14.703527006720474
Pb 14.513151150596803 14.391110108964272 17.468209544410662
Pb 12.971652660213747 15.63522136070741 20.28705490082543
Pb 12.125186103171604 9.325476617663108 11.54580981290028
Pb 15.754896749017703 16.904127716203195 15.09634982285724
Pb 19.00203034420454 16.64668154895767 11.61830606687492
Pb 13.76011014372391 11.212468477667617 16.600391682687285
Pb 14.918486052521155 17.76410210310021 18.44849001601507
Pb 16.52590744847991 19.845338909855755 16.410960974288376
Pb 16.80774738587371 11.909680765369288 10.141591752938636
Pb 11.171060771608646 9.86094679263758 14.527357052249263
Pb 15.27519176357781 9.138768295198751 11.1557014062404
Pb 14.044378258803683 11.792457631304496 12.978204847086998
Pb 15.959831765320232 15.222181741036643 11.687013112499127
Pb 10.536916100343802 11.215067056269449 17.426447899531
Pb 12.371322457493232 16.4249430313577 15.51613981062492
Pb 18.27398313683646 14.651682888918206 9.126780962322114
Pb 10.737580498767253 14.661742725569548 18.0003068471033
Pb 11.642579370105272 13.154859870885593 15.087298008248412
Pb 11.58013965038724 18.030247136494364 18.261860899515774
Pb 13.43357340095273 11.67762318532151 9.713083728459365
Pb 13.443081092142206 19.598001464238827 15.985964893291893
Pb 16.539253190545658 18.729707474868775 12.293764367252912
Pb 12.426724251204327 15.225962859356912 12.34914996133103
Pb 15.059227245838471 14.543771884618856 8.551047625204044
Pb 10.765442981144037 12.402417479112357 11.771798010556482
Pb 16.612018721136 17.431232443255908 9.246498356933646
Pb 13.35413661600222 18.532839137463373 12.884058759476275
Pb 9.264955653500284 17.325244399651705 16.048962279448407
Pb 11.63956634944185 14.554223888521905 9.189634396577771
Pb 9.109207838714838 14.876554689970648 14.01210256653951
Pb 13.456810668050176 17.198605429076213 9.840951098182698
Pb 10.222299115622397 17.94329777710667 13.116260693371682
Pb 9.408906147567746 15.880886146492873 10.978980341920979
