47
Energy = -155.39709984 eV
Pb 15.195335260048013 16.169354335015303 19.571624837593717
Pb 11.88994221317566 16.00714852807318 19.83779472541837
Pb 13.70624534674507 13.295615622459934 20.178911030196858
Pb 10.578378930435695 16.568293205660105 15.43778745826261
Pb 12.838179656546494 18.326524943706488 17.511828269579315
Pb 8.481152038900094 13.872118189974488 16.33125628792781
Pb 11.362276017807321 19.64084033916004 14.526317263024346
Pb 16.53995279173512 18.64078344106087 17.32592080647703
Pb 10.878293853635308 13.28654293591078 18.57596742311656
Pb 18.353001355973348 15.958266160871668 18.279877386025717
Pb 11.14297506643585 17.47499016007049 12.191327711213834
Pb 14.306316519991233 20.420197038662206 15.456877547085348
Pb 13.443204692476622 14.877559818843094 17.115000820013794
Pb 11.307964505549348 13.194609662533678 15.125588981544468
Pb 8.973829428393673 14.782684649637925 12.901988198898767
Pb 13.764250065239802 17.182034441663774 14.579455984015878
Pb 16.26568771456645 13.28088700682772 18.148971519232198
Pb 8.403749656372165 11.585365164249879 14.102999003010941
Pb 10.66337576665811 10.107562414459318 16.051869165918873
Pb 13.90407333328772 19.44768141341926 12.35430807857085
Pb 19.540685974759153 17.92541397999066 15.989349860438866
Pb 13.435448020926724 11.421976032974516 17.375416911154836
Pb 17.057005874254962 19.07373679630789 14.031122165229828
Pb 15.206774105224818 12.97388104962538 14.840053799284522
Pb 10.211657248932227 8.969368029721869 13.040177364184547
Pb 16.817785527947986 15.92368431351085 15.415301614081669
Pb 12.591985226890033 14.564169544223557 12.483696270227917
Pb 19.75057135092129 14.69698507486996 15.529476835046454
Pb 12.848058575335914 8.020483611560223 15.0263453040882
Pb 19.08703178534668 16.651011490382707 13.032715002122432
Pb 15.863100850640057 16.016990220842068 12.137006227710474
Pb 15.658509248896056 9.495779533355396 14.913565151144592
Pb 10.082113323627427 12.093652054867416 11.345351442176257
Pb 12.950122461879888 10.880376943570218 13.376287159254762
Pb 18.079870200090046 11.731571517774372 14.908460809586293
Pb 10.521544308616653 15.051643448059343 9.929664679058645
Pb 15.166997306234842 12.715491211667173 11.084517812711075
Pb 13.948865672336026 15.482206353089788 9.421225672378924
Pb 12.035511129466707 9.535432632724621 10.368199901447221
Pb 12.390150705497495 12.473186815859306 8.917299086580112
Pb 18.2852985289347 13.462253258589291 12.17051541482149
Pb 14.420806876090943 8.097070274930408 12.159379929233914
Pb 17.331843493582074 9.976055988728891 12.078011899690853
Pb 17.253263893304712 14.865953397046662 9.360359339182924
Pb 15.17658635042131 9.870827411533641 9.41567443924897
Pb 17.902003552388397 11.666050033223055 9.257843368484467
Pb 15.358191955614414 12.968390706221376 7.670361821069424
