45
Energy = -147.78801279 eV
Pb 13.693880778868415 9.51184366176225 15.508277671516971
Pb 17.6197342107251 11.124934733822835 11.351164848970559
Pb 14.453628580376117 10.72421443052173 12.122074520232895
Pb 16.657625147349012 10.077044790191964 14.35542222276509
Pb 10.73828949226712 8.99322066640582 16.377608803523746
Pb 18.850000808726715 13.628074840618966 9.746471039816303
Pb 11.165490994751382 10.738750288343443 13.640217833852788
Pb 15.589502972154934 13.293042244033229 9.964806467823822
Pb 15.774085628475266 11.989443124184122 16.903521846644825
Pb 12.877174086612557 13.546310123683286 11.931733532123975
Pb 19.505293462033713 13.25765044513456 12.916569482429482
Pb 16.140276990104663 13.268300303432595 13.623258843010627
Pb 9.921134152403724 11.98738585861035 16.68047171072615
Pb 18.78954393177075 13.476499346586598 16.380345816579204
Pb 12.548159644985732 11.057728632236186 18.26265568393749
Pb 17.20675409071742 16.44168164516451 9.798111638923531
Pb 10.000568695003603 13.972195130303541 13.903813658383072
Pb 20.36980441462778 16.10414531422372 11.295659366785646
Pb 13.986386122877631 16.186791014176663 10.330282911519554
Pb 13.021801638810876 12.70766611502106 15.365533901305588
Pb 11.371825130194447 16.637609982730318 12.38685694643553
Pb 17.807735043506145 16.580510560490662 13.431681570884342
Pb 20.79069158296888 15.701993354904488 14.766481320338746
Pb 20.03989522433096 15.781782717402105 18.208820866179806
Pb 17.746744220549846 13.855418154788932 19.49888603395079
Pb 10.886947363043864 15.590190602320856 19.259131927607918
Pb 8.725558737034133 14.992362452721672 16.92388271915243
Pb 20.783435087776468 18.739117847799964 13.407603094810051
Pb 13.800174956633 14.114580204682085 18.70831646690043
Pb 15.419050854996755 18.658890679835512 11.89427119339348
Pb 18.672224092385726 18.99341567400004 11.00822082705017
Pb 9.082048385770436 17.265114037335348 14.630612216341003
Pb 11.940773106460647 15.701543714348544 16.045713248102306
Pb 16.26596586421163 15.54997316156754 16.98384968861635
Pb 19.147564645308833 18.290690011057396 16.182073585501197
Pb 14.386451239196186 16.184064311610914 13.736533661886238
Pb 18.677946489697888 16.621225192573075 20.93917668201013
Pb 17.909564929564286 20.16496026800424 13.911374239105323
Pb 10.189825472923717 18.375761327023287 17.322805364827172
Pb 15.587017649751193 16.112177206554602 20.491318479268955
Pb 13.56930950096599 17.645619975710936 18.233820070046868
Pb 12.194389140436494 18.759545909426414 14.802320439902763
Pb 17.139767134635775 18.4226440791525 18.833934524708425
Pb 15.73315368481403 18.587919199058522 15.715050672401132
Pb 11.184261525018073 18.547423572259195 20.18071926552375
