40
Energy = -132.62305247 eV
Pb 10.640988789820527 11.149714638688486 15.785845785988128
Pb 13.918380281017864 13.743035406072432 18.384206992299845
Pb 15.213029367182799 10.891668141314671 17.500563916819406
Pb 9.007670327228652 8.979355481586001 13.869341840410378
Pb 10.055238649476868 14.334916227996993 15.228185077297445
Pb 16.88010162116116 13.026301546214508 19.50692431784421
Pb 12.20839423340262 8.512971673547653 14.135711533704796
Pb 10.680529997333647 8.034292051108693 11.302182753330936
Pb 7.783169458709558 12.005250360169475 14.183433543955132
Pb 13.283230123018116 13.084067558829954 15.263190100246504
Pb 8.494489559350098 10.421641497474855 10.903361006534157
Pb 13.90984852749084 16.29589069396418 16.20663023155799
Pb 17.066212878877426 10.476466014620028 14.64435006662791
Pb 7.30137031850751 15.241793845954932 13.641482198939457
Pb 16.30732039759801 16.069160022534806 18.48190806744518
Pb 18.531804012081405 11.079256161067418 17.626534058169227
Pb 19.229705220758575 14.445981064458698 17.616363228847245
Pb 11.376341565777915 11.159604394331573 12.518299225922089
Pb 16.597060029704704 13.544070491099516 16.129269861202282
Pb 13.721576581910902 9.163886657906977 11.289846939958698
Pb 9.843366200127445 13.930873550962595 11.845926823885486
Pb 14.806682634982197 11.886568849582043 12.631321594198306
Pb 10.051382699731018 17.04528361601523 12.995256814667126
Pb 6.7588578054345 13.294766924402365 11.044086826063886
Pb 11.48200484517021 10.64587829489231 9.322094156789325
Pb 19.821175714945817 12.371072039885576 15.024193156764806
Pb 7.8323777833515384 16.40295232218571 10.6620943313928
Pb 12.921509835872872 15.110745161469435 12.19546788093082
Pb 17.131287938546382 17.4735710169272 15.6677934130214
Pb 18.137109166512214 12.513029974635195 12.249827667209983
Pb 16.09227369540326 15.134877198153907 13.3014005389413
Pb 14.558326939130312 18.076441035067024 13.619248914508553
Pb 19.36989372869246 15.463159577501632 13.835016675354595
Pb 9.078354220621572 13.97526055897601 8.714794076436933
Pb 10.933807725481936 16.556929774602327 9.831952908760615
Pb 15.435171210817767 13.628795534369885 10.106728316251541
Pb 12.356708619541099 13.75515981689997 9.055307797150537
Pb 18.217729076446187 15.476108077012567 10.633345986463471
Pb 17.668984670955286 18.051157709117632 12.508052209467548
Pb 15.275643636490896 16.91751488085488 10.60780722513618
