47
Energy = -155.81068413 eV
Pb 18.669856853241768 10.576200037410894 12.032028574486144
Pb 14.360575216315 8.75687971129917 15.19658854889355
Pb 15.912254779878573 8.99638470123553 12.137497695724946
Pb 17.100403734750735 10.490193296904819 14.83301685208296
Pb 18.66820669629792 13.32861304953378 10.324195923306592
Pb 16.898964839621907 10.582213058555341 9.212482558808718
Pb 18.260826607824793 13.222112919058485 16.4033696312851
Pb 11.265829322321768 9.222817851554233 16.58177993148933
Pb 13.81835788934415 11.654064491529759 16.805433243259625
Pb 16.341246313931943 13.58159529644816 18.986374360132384
Pb 10.7767012165519 11.919356597399046 18.39660728992314
Pb 11.955558212104219 9.139988698202554 13.072085943432658
Pb 16.943115656791353 13.434968865330822 13.247913663055016
Pb 14.121936492906864 11.55508667675746 13.422594517740981
Pb 13.587272775874405 10.126633580269745 10.22510080419786
Pb 15.40633413104674 14.937851271890061 16.10007097917886
Pb 8.219539691631798 10.434217007353094 17.128097386363248
Pb 17.446198619173128 13.200885642405945 7.363893957814238
Pb 18.460692145151253 16.034679106330348 14.8364482696315
Pb 14.271532251115273 11.93814002927174 7.457443694139528
Pb 8.892940999661123 9.101490202636821 14.246183991006193
Pb 18.054677309649637 16.132847971621846 18.012695970997264
Pb 13.192162918252713 13.79146315675646 19.486954338370765
Pb 15.006820204114963 16.765730004009395 18.96464589530547
Pb 15.022135350768027 15.263707568047211 7.143206852420862
Pb 8.665011179102873 13.729969821358885 16.70450237615862
Pb 11.03268119093941 11.37851932779736 8.307165890763272
Pb 17.354762858992284 16.087083484065193 9.218590749169913
Pb 11.935567221480099 14.602894209898112 16.454156370515125
Pb 15.364718457784738 13.61891437250853 10.161140690376628
Pb 16.158115447819554 18.15277998321106 16.120368528178894
Pb 10.698531840588144 11.955820276218672 14.66886500773958
Pb 7.369639241281017 11.915378259411911 14.325543920399532
Pb 11.952139234407596 14.530644126184143 7.761568004713582
Pb 11.932776800858496 13.028990861925488 11.0364317765997
Pb 9.327045310619113 11.168686938093199 11.455930039683823
Pb 13.57016750373254 15.156651861424036 12.990737619280617
Pb 11.688941337245382 16.568837662320586 19.199954907961583
Pb 16.36383055102823 16.816944624882975 12.459519421969459
Pb 14.148513268720897 16.900693166747732 9.941233547098685
Pb 9.103867416913584 14.245631023593445 12.563896661731674
Pb 9.189190118261143 13.796258739418267 9.292196008240513
Pb 9.620726913546699 16.84757048274022 16.844980307498172
Pb 11.03109448901641 16.247055409153486 10.524352377075548
Pb 13.816490373186934 18.407649022387787 13.536632452693935
Pb 12.82881406484644 18.201114589484398 16.590761641038284
Pb 10.958587064864284 16.938425782268848 13.915719450859273
