48
Energy = -158.596208 eV
Pb 18.502909544165984 11.135500443322993 14.143585448667912
Pb 18.50862354562612 13.968258729963352 12.193802637323369
Pb 18.186787124894877 14.6640918810974 15.757464030666657
Pb 17.408181564264734 8.660906631031063 12.172776574691959
Pb 16.968684051881972 8.426637086948904 15.449637226362146
Pb 19.157320620453657 11.085088568186253 10.911055958573039
Pb 18.00463289404977 17.695794619799535 17.325965179171856
Pb 16.85244055681265 11.874391135177241 17.028675119348588
Pb 17.488666790141398 17.34726175275408 14.107935050259867
Pb 16.73059195073544 15.085560684956299 18.937707703251697
Pb 17.324468101406328 13.249812195836704 9.090540075925786
Pb 15.500724787647775 14.466972278773527 13.557823453469046
Pb 14.663872580625757 10.327128263956071 14.204604443530028
Pb 16.527530797114885 16.153025355358963 10.651744664636183
Pb 13.81327902360135 7.380385621142387 15.23865072557866
Pb 14.352882990550883 8.850686979194228 10.983374909992337
Pb 15.496543669714848 19.331727710287378 15.956300695507005
Pb 16.036792615640895 11.683251676968286 11.605923756778687
Pb 14.681671190740829 9.534176110202566 17.61260480018588
Pb 15.139309183070198 16.165155672799752 16.376921889338057
Pb 14.573204845860896 12.597552339552234 19.38400393961493
Pb 14.80527721549748 11.234931476046626 8.49558829916279
Pb 13.737322108546936 12.620446598813313 16.21048218266496
Pb 15.364057010976358 18.186229085640544 19.093771085808747
Pb 13.071232563127051 15.693964113493577 19.44174001527737
Pb 11.946245025618959 15.36323006572881 15.900144031971072
Pb 13.704555065132705 13.90989037535975 10.433305776651954
Pb 14.632557032995878 15.529676446955806 7.734331050292344
Pb 14.088321963327692 18.063469680515208 9.696872923153995
Pb 11.972215063688278 10.738261002168446 9.973365855499775
Pb 11.783780738573585 8.707939311723782 13.10952701421353
Pb 11.45089965017399 12.92367449518937 18.623102847809548
Pb 14.327346719795154 17.547536341640004 12.979963422081289
Pb 11.766891926620664 9.965507865811514 16.24730971559961
Pb 12.355772744805384 13.112591215362851 7.506855559696607
Pb 11.96795478450713 12.268572906482266 12.994110487177432
Pb 12.517055524221703 18.314319691116072 17.47510266193252
Pb 11.53184177531787 15.613478651492079 12.625687693963224
Pb 9.755883223275754 15.837341665366916 18.20979442620234
Pb 9.419176027909499 10.797696472148155 14.171952416833745
Pb 11.507202062789721 16.133413084681283 8.704237778579714
Pb 10.1225307934651 13.300854356574677 9.978449795843751
Pb 11.298986331827784 18.52947168761628 11.208420895812772
Pb 9.172417153441135 13.337995112827011 16.334463939326522
Pb 11.278158243356971 18.439371730049466 14.488617607208871
Pb 8.896525026067984 16.37219718057056 14.924982173033284
Pb 8.66959275196027 13.781094212821102 12.953348051373263
Pb 8.97563253770874 16.361239589720334 10.80757477933653
