44
Energy = -145.29948865 eV
Pb 13.282153231300503 14.857057716408557 9.394618809413439
Pb 12.951146803674469 18.70318673926991 13.46276283031989
Pb 19.874008482564285 9.292436768372191 13.20298821245986
Pb 14.539844489558153 15.526681641918554 12.23001759784283
Pb 13.216856107626493 16.149684458188876 18.909263479881307
Pb 12.602606635727279 12.409528700671068 13.790838392039042
Pb 18.29088861556575 14.398920661826809 17.405765508949663
Pb 10.826282399919812 13.231664761722325 11.036745939500397
Pb 19.331553857843737 12.318623730168591 12.097747004457855
Pb 14.61653825280318 14.08103325150845 16.3310522758713
Pb 9.150016084508342 11.77359194587862 13.596504910269674
Pb 16.106476811054538 16.457322396880755 9.327087428937002
Pb 11.109412296371238 16.624963365641065 11.410270236459175
Pb 15.729175027736863 14.076560889220206 19.473272995993128
Pb 19.38381605327972 18.00809259975002 13.500476634116083
Pb 13.79657901741948 18.445639237470463 16.469272554831157
Pb 16.331051409376062 17.060446383778846 18.14227565263069
Pb 18.52584985295993 15.717531742765658 11.37223917613398
Pb 9.756048991288068 18.430641948367025 13.95046959439851
Pb 8.27005864829346 16.68832453051716 16.071302361890694
Pb 17.19525378089204 9.15748707553704 14.786930894820058
Pb 10.792873434122141 18.037557705862685 17.39547165043957
Pb 17.170770563190185 9.972236802910476 11.551447215358143
Pb 16.38132859494041 12.348768448449857 13.761840533189448
Pb 16.57453062853242 11.540265981923733 17.134286898226186
Pb 19.387983777044095 11.619194692717954 15.36367001682937
Pb 19.857083674522556 14.779530598168211 14.360727106788111
Pb 13.656876930908401 18.250343557131515 10.332544348136873
Pb 11.695938123107211 15.876926625712173 15.081991065424539
Pb 13.770149318809581 11.562024146683456 10.56822323429372
Pb 8.729726477471722 15.26134872083214 13.174068390164189
Pb 11.111602157759519 9.44206981862092 14.81357959813568
Pb 16.780092645767155 19.15495517809898 15.20078941310893
Pb 7.916283094622333 13.573447733754723 15.938090015865342
Pb 13.538706233015002 10.672327581214919 16.63346132256284
Pb 10.280769408177118 11.674710412731061 16.968052590651887
Pb 11.22437850266954 10.037103529068995 11.735577555162799
Pb 16.826148120572757 16.026757207294917 14.569807350319056
Pb 19.20265040334051 17.43382292222496 16.578152131847613
Pb 16.449343437206906 13.279343712316562 10.422448719602421
Pb 16.539221557638026 18.523955014142494 11.912666443054542
Pb 14.262412223038472 9.6199698670798 13.306187292261916
Pb 12.739317964152415 12.933572343311937 18.854443163479633
Pb 10.099859858585488 14.844010832844077 18.254235432839224
