45
Energy = -148.95998352 eV
Pb 18.629381537464557 12.521550804060427 17.01397191989059
Pb 15.856216686109967 10.881435650765775 17.423667674655643
Pb 17.176247230458713 13.736967095176936 19.77213305845392
Pb 15.22349642799079 9.697791167136547 9.271271301046713
Pb 16.18840102947368 8.632732952903188 12.173767109675403
Pb 13.341295347232949 12.297601002879995 18.69773033529165
Pb 19.431682244735793 15.405798089176873 18.13793620777446
Pb 13.280695207213046 7.698014396831643 10.935724614311237
Pb 17.092297438935525 11.577157598500335 11.036487577437649
Pb 14.793116609858645 9.076764287696076 15.032081081812661
Pb 19.211119023589546 15.146999030250326 14.887776634912786
Pb 15.6563343150009 14.400791802773831 16.970557529611373
Pb 16.854936429399817 17.060524886275687 19.255772454606415
Pb 12.017012672166336 10.373162554721972 9.256025457445022
Pb 14.258672688324403 15.152387081710017 19.994586205924808
Pb 16.99209483759144 12.011516014715793 14.311259220726503
Pb 11.668302882024069 9.465263899474898 15.14587545685785
Pb 13.516432280109006 12.246326783719404 15.358881538388442
Pb 14.479042688524832 12.9254135688207 9.530913797509552
Pb 14.947335013110218 13.906071698710003 12.698029700378301
Pb 19.01934808995678 18.238955073007247 16.48249758932896
Pb 10.57838973601334 9.064308958736335 12.06233782814093
Pb 17.974222777225684 14.771970713331363 11.957426590684795
Pb 11.743716402781876 15.081729903814086 17.921681552328437
Pb 18.542799818507273 17.874885292041885 12.891325262912174
Pb 16.13205432043888 17.220878415790825 15.113021242104034
Pb 13.592666567417377 10.741598906112756 12.21804750594972
Pb 9.361731444497119 11.514951883279423 13.901983680923474
Pb 15.662924717361102 16.522204349275317 10.647864624738752
Pb 13.72909126713768 17.8234150158866 18.056785477963313
Pb 11.514596628520662 17.439782626330278 15.657215194342273
Pb 10.555493272413328 12.022750623048667 16.97830974535809
Pb 9.181106590445467 11.950071002306869 10.526884810104258
Pb 11.34822706596216 13.898643509421964 12.225498466241385
Pb 16.25744089040468 19.776144701766324 17.441982483222535
Pb 15.524023338882094 19.253886094639572 12.212413309265004
Pb 17.34543568929233 20.388312831274938 14.532118086741407
Pb 11.402560889446761 13.664964750785055 8.789532814461415
Pb 13.405885699607726 16.73528756547885 13.174492167312225
Pb 9.477785733600552 14.820620596911153 15.501888254063623
Pb 7.934772747968211 14.236166044287605 12.734724042733038
Pb 13.958027628117085 19.7697279781775 15.036882593924103
Pb 12.10899422975006 16.584442317539263 10.175882991060371
Pb 9.91206733529515 16.92183668114631 12.740914453079128
Pb 9.03922415411185 15.384893423780335 10.03053998077547
