48
Energy = -159.00122637 eV
Pb 11.110610728148098 11.735233823371239 17.74025204079387
Pb 11.912768360164716 13.943556798311848 20.059266521055665
Pb 10.319576787485337 17.817026572306688 15.013576998143472
Pb 10.93022519539528 14.805742260900624 16.479262944098018
Pb 14.855726567033413 15.422931583133545 21.172686035120645
Pb 8.971063293976462 14.996189918602239 13.632987127546679
Pb 10.697774359355082 17.01683275152973 19.07494221964186
Pb 13.730324150387297 10.009023292909161 18.04362306669545
Pb 12.841807046177628 9.966817142522478 14.958484764551217
Pb 9.872351261759926 11.898310074729563 14.59392323460669
Pb 13.29196248008887 19.590020542009817 13.636586211858146
Pb 14.914433795759532 12.78139757440644 19.037748212784713
Pb 13.66983477582195 13.007823386666223 16.05228228680437
Pb 11.050485839213842 17.625726906533924 11.872234750227726
Pb 11.90471533823523 16.422702954945866 21.976360174143796
Pb 13.27181121303529 16.446502538795915 14.570112627770067
Pb 9.526525700197487 15.140960709338517 10.39433107396678
Pb 13.72761794040103 15.92730709535545 17.99315485584573
Pb 18.60328495089963 12.581679583911043 16.838452614587563
Pb 13.628654893145539 18.420833751600494 20.195723282597307
Pb 16.020415517350116 10.718921244371376 15.83101809572598
Pb 17.68957943103807 14.33255075861927 19.523492730443575
Pb 11.726805236040379 10.557610169973682 11.932304827997084
Pb 8.92642738894148 12.220791174575595 11.535867097221422
Pb 11.952571998775287 13.867706865936288 12.57431309917144
Pb 16.679761153288233 17.362208863569748 19.034578504416515
Pb 16.661057199194452 15.332555285284233 16.386030453829967
Pb 11.254088708384907 12.56718632104467 9.389943387434215
Pb 15.260677071362613 10.386031675897577 12.691421012918237
Pb 19.874477981936447 15.570857984541453 17.280908216919247
Pb 12.399851449093878 19.01165053356257 17.078074670061312
Pb 18.440630049730515 11.61657988513048 13.642748795026227
Pb 15.82192043866692 13.646505629607317 13.418774869768399
Pb 14.020099511842014 18.37156371311064 10.828796663916245
Pb 14.32107744458934 12.60107706747776 10.485394210219978
Pb 12.744648566297704 15.64091851995813 9.607091781093578
Pb 15.416375567823268 18.678369724174377 16.237493722767283
Pb 21.55436277386161 13.755073972961512 14.874416902843615
Pb 18.97312502492011 15.184045776396191 13.60737584533304
Pb 18.667388287632768 18.144945963072182 15.684183074282295
Pb 17.787941197374355 12.970994846627512 10.75384806190068
Pb 15.959996758497569 15.64915903782725 10.6809625968177
Pb 16.31648483894603 17.715090129472713 13.210715072436924
Pb 21.767340853867072 17.088015225949924 15.078092382327439
Pb 20.86344016437594 13.015287714657916 11.687476669212945
Pb 19.500970765103617 15.807069323429124 10.32393685087686
Pb 19.896892707434947 18.237109844166213 12.582118354174288
Pb 22.16629743788329 15.889763687657895 12.198891208958157
