49
Energy = -162.08347037 eV
Pb 11.770599830725956 9.13193485339135 14.98922201582551
Pb 11.398511716330331 8.049192552639774 11.924652268120914
Pb 12.486945541443873 11.129513796745663 12.113580956701803
Pb 11.486008572869284 17.370775023055764 18.58792989954208
Pb 12.443602492304024 16.60514792266697 13.970011773761492
Pb 17.07933076160773 9.991602359301773 11.38686811956445
Pb 19.668223258102714 14.922646481335121 15.814949131775615
Pb 11.862987803705808 12.547973879255633 9.06964267190765
Pb 9.644839668133672 16.657017445982845 15.920284709551794
Pb 12.618265440959561 14.84352682540414 20.31711183232427
Pb 15.18364484806951 13.267009259791251 19.178308258181307
Pb 15.339949597704502 17.165678131022926 15.475388126366646
Pb 18.10290914527518 9.0337506934387 14.440180606417085
Pb 14.948184278744337 9.13598703334892 13.832041069209478
Pb 18.077090754409248 17.349757021011037 17.225231722837577
Pb 8.822883005077191 15.760863127854952 12.706466435897617
Pb 14.176155710913557 14.166224419531106 12.172394111696697
Pb 9.962066670956242 14.407800403178651 18.35711704771362
Pb 13.54101148244189 19.454127797261695 16.918345747278774
Pb 17.156577169853 19.851093125643455 15.347052832489789
Pb 11.372653121169737 15.365982343655444 10.797842488992275
Pb 16.656873708379525 12.088833400607484 13.879581487804609
Pb 10.919789891442717 19.48726250879601 15.026993891348026
Pb 13.526697454198793 11.872078704616973 15.423272664379414
Pb 12.985239959678037 14.82074007306891 16.93635046079409
Pb 19.57687987251771 17.7819731224038 14.127259976374802
Pb 10.97464376875389 13.53306250229076 13.889497055127833
Pb 10.000927460715385 11.440964448425516 16.409660882560882
Pb 15.142265353365119 12.188933614016165 9.730323152163002
Pb 16.99738774618602 18.759167892084207 12.298294507277669
Pb 16.17843544921399 10.38655781369417 16.737385214799662
Pb 9.14725780917725 12.784486824505604 11.141487436057696
Pb 19.064918920955186 11.642993130444934 16.170708203712458
Pb 13.07261640150619 9.533756812465823 9.412459113111721
Pb 9.92008223500253 9.962536430525867 9.787395019121046
Pb 8.114781443631069 13.928799068752872 15.394600770451936
Pb 14.92116333098203 16.71121577073787 18.84749462677068
Pb 20.583463546003937 14.704035920116874 12.70905082300831
Pb 17.230121864941616 15.511742883630674 13.2245441960593
Pb 14.027611480915434 19.74291919746324 13.710517193952187
Pb 9.247807047393687 10.221142431347792 13.159951923764265
Pb 16.543193717703208 14.28218608484955 16.45677206871277
Pb 19.858069620469106 11.287517862245712 12.966881555834025
Pb 19.062107421074728 16.77673835249938 10.792594054975726
Pb 18.263030271479153 13.307907587309064 10.931632850239664
Pb 10.84548704777066 18.5322255701335 11.967793266484424
Pb 12.246671738634058 11.99683323055819 18.727909560130335
Pb 13.977173461045027 17.5932190585492 11.246179266603876
Pb 16.144238624250516 15.46983543868079 9.812557827683316
