48
Energy = -158.76880761 eV
Pb 19.43921885166361 19.33740201897296 14.943610328698139
Pb 17.22865518419974 18.3825534100395 17.25168568055753
Pb 15.32399868875249 17.36979445566937 19.564331919047135
Pb 18.28143891053613 15.428446827213605 18.984352847892087
Pb 13.962838895333803 20.04362615572459 17.834197509847044
Pb 20.22607728868977 16.59730641347807 16.59544884761354
Pb 16.238609474472863 21.07608356857107 15.498136376805315
Pb 12.196209952823567 17.061001854970005 18.791521744686925
Pb 11.337217042645145 18.967368719575482 16.196081507325083
Pb 15.295066773904265 14.144875470587973 19.939704012814847
Pb 12.91313962105199 21.553901169121335 15.05933178926166
Pb 20.133556884200015 13.373728958158258 17.17044933762345
Pb 17.446876548196865 16.542208380907123 14.444431759132094
Pb 20.668445512139265 16.997208248877584 13.212855104641056
Pb 14.848900939340302 20.625200014515542 12.590952644113601
Pb 17.847020205807446 12.181373203031702 19.232070125600462
Pb 14.552068926234321 15.552921074179398 16.933934542862612
Pb 19.683968209299337 13.955978568994318 13.892328587541579
Pb 17.097891111585437 13.480200323222585 16.254303514407177
Pb 12.20773962823302 13.450659426543648 18.74289303348942
Pb 14.492684269485977 18.438195130158135 15.006737308784048
Pb 17.948823258573267 18.945834779814273 12.193152674366893
Pb 14.541630378597446 10.98586714836924 19.146953385149573
Pb 11.058183086212685 15.493419205105798 16.290303724127583
Pb 16.75300560173927 10.191916835971137 16.77214245837734
Pb 18.359176298557756 15.819804268665116 11.127462131441241
Pb 13.677308969966795 11.99723617336449 15.947738964340454
Pb 12.780696540571627 15.877488878342806 13.648510273215896
Pb 15.225236615231328 17.189964351524207 11.822636494649613
Pb 15.728478427070922 13.898665428704842 13.035382628048177
Pb 17.494511074919906 11.246758982626556 13.73427540061032
Pb 12.016946813911904 19.129943897593698 12.97922850578299
Pb 11.476608764587189 10.329451837257693 18.152561854413882
Pb 10.148873806430274 12.36876368185511 16.018475648822864
Pb 18.36677311386148 12.644118679329376 10.929523010190934
Pb 13.933274152964405 8.64094385936871 16.906443853953153
Pb 14.629593933631208 9.462942198102805 13.659021312680133
Pb 9.600729798846656 14.655405469737547 12.963052383135421
Pb 15.600748512178388 14.308382986193713 9.843699301402815
Pb 12.408371435758896 12.88391260033914 12.461321684018875
Pb 11.769793593183175 15.44475204846542 10.4889916010739
Pb 11.519273766980394 9.645683135817587 14.92267732158966
Pb 15.377611934583824 11.330035749901263 10.983236958103653
Pb 9.356689496882586 11.44341330325344 12.676123328928803
Pb 12.166971515537824 9.94441734924729 11.400530030241686
Pb 12.472023147260042 12.572042011624063 9.167564674130617
Pb 9.323691505720774 13.448586257255679 10.00444830069867
Pb 9.770879542343799 10.467743494355954 9.512711578457834
