47
Energy = -155.42579587 eV
Pb 19.62597498372088 12.067846097716929 11.503190051721646
Pb 19.765042519057154 10.196634382534997 14.337205343574004
Pb 17.88234079596784 14.986893644968825 9.886015267523868
Pb 21.000969685056916 13.123094196428909 14.34455256941142
Pb 17.26442186460264 9.928861254825307 12.38563983791986
Pb 19.740655093466017 15.568423624626135 12.43775302752072
Pb 16.007668841722005 12.381777267120688 10.688766633258895
Pb 16.288221266476764 17.738598878933097 9.681293645028635
Pb 18.952658274168126 12.209829692724412 16.8455837265213
Pb 16.701048624120624 10.11207104750682 15.594748999134262
Pb 14.451818152806732 15.110312565944302 9.45902849085929
Pb 16.220382053819655 16.05570996542151 12.492105019951882
Pb 17.650482759516805 13.03383027408584 13.896839201790025
Pb 19.317066604589918 15.634009129779814 15.775406790842116
Pb 12.46765710921843 9.452250855030949 13.08732934573159
Pb 10.809185705441116 14.992300269406856 10.228405311621152
Pb 12.478110669741863 11.970883521032436 10.457026127002502
Pb 18.4097024126665 18.39242140897698 13.788938270870702
Pb 14.489419025384576 11.945567013627512 13.52695450625339
Pb 9.201187239142579 12.291783339614353 9.708882580245996
Pb 13.158979446938678 17.696465128371873 11.017831488698278
Pb 13.143347226877758 14.72632937106946 12.5302153642586
Pb 10.141950012426062 9.503258958695108 10.987965907859875
Pb 15.619225312910064 19.361752712642684 12.42839923242673
Pb 18.59534333691702 18.631018911298295 16.889915760655356
Pb 9.426984034435758 9.536375239951356 14.414537545849313
Pb 12.689442958568867 10.827264892506703 16.056737059701977
Pb 15.495285166277394 13.057593949821765 16.693561964482058
Pb 16.008291441000377 16.446294203411462 15.925043352997404
Pb 7.369627257460928 10.818911348449923 11.879330079117931
Pb 10.384046316047112 12.395735031276992 13.18481938651503
Pb 17.587809168474724 14.980691759979091 18.622021633329627
Pb 15.695983005402383 12.702750252345668 19.879224413097607
Pb 12.201913838560822 14.389216092178422 15.694603791569085
Pb 12.962042514445443 18.47473068215388 14.224729145330548
Pb 15.72025888755868 19.720259552543325 15.929488735115784
Pb 10.406758140848506 16.568424714661468 12.998538238086834
Pb 9.930527540139343 12.179418345813735 16.900143860992
Pb 7.794012987448059 14.176471859838545 12.10617464859985
Pb 16.279634472013615 18.09265431653715 18.934796819934558
Pb 7.31902025026511 12.031927905778728 14.778651094641411
Pb 12.724971064577856 12.670403754237476 18.94358976735015
Pb 14.311223640065755 15.586857577777183 19.725157571967056
Pb 13.322740063940474 18.041258650858392 17.56597431768364
Pb 8.770092189253138 14.83668619555771 15.474717217983475
Pb 10.46014603289973 17.447738858280257 16.21367868637121
Pb 11.176594366882863 15.445138532341767 18.592876151065504
