45
Energy = -148.00431145 eV
Pb 18.392543611512387 20.372095406441165 13.773888665164918
Pb 16.00727548940541 20.15514868837911 11.385956154863658
Pb 19.20480529538855 17.387847521634967 14.842775869564289
Pb 18.43693052678028 17.77558909707741 11.584403963258605
Pb 15.525418526811157 21.486481503518686 14.526579186355445
Pb 18.295722109896545 16.552966307040872 18.68678803275912
Pb 16.996137538504897 19.556533606605104 16.699591056773183
Pb 19.230525459181667 13.744340987878614 19.976454316012966
Pb 19.73225182564473 14.462667088763322 16.649197731711713
Pb 19.06395926309699 11.379887883499698 17.688534634151956
Pb 19.11463713463029 14.65514113836342 12.654591810858392
Pb 16.232037252311986 17.669735757879483 9.173175531155628
Pb 15.867206545543594 18.0886660747139 13.976543136059698
Pb 16.48909424672294 15.444336986630443 21.135465933200372
Pb 13.585718775946878 19.389743507754357 16.13380601777752
Pb 17.83569777666582 12.522324492380026 14.733068398596844
Pb 18.110429568242324 10.901690823023246 20.924577922517837
Pb 17.724761588561094 14.795833421256644 9.816778512735407
Pb 16.747761659121167 15.442121057735294 15.91541366628491
Pb 13.014832084557675 20.35858376205178 12.790646563408677
Pb 15.137715176832248 17.10782393904507 18.339513205460282
Pb 15.442149210044601 12.403698359246043 21.902686130532555
Pb 10.354055100642038 15.382322923432048 12.609148100492751
Pb 11.259180056919224 15.42722000031541 9.530111863834065
Pb 11.816319397966263 12.76803064089823 14.929280145947889
Pb 12.844827748527623 13.323568881913037 11.614309309958955
Pb 10.664748784581287 18.35300363631791 10.961391090058529
Pb 11.408936897253792 13.388757537126857 18.20836779693954
Pb 10.137121852865429 15.456288075338293 15.890836751684706
Pb 12.635496362304497 11.451870121836865 20.433161135199065
Pb 13.227728760961105 10.786705431661558 17.198606725396324
Pb 16.267583288930535 10.028106325521701 16.39871226628815
Pb 15.794954444160924 14.76747021074612 12.741371195786366
Pb 14.500005443911538 14.833944791789786 8.946152259484503
Pb 13.453035741949304 16.94867001223422 11.840506401440832
Pb 13.419602328829239 14.640055483661671 20.527672415687242
Pb 11.021502752587772 18.20892700646428 14.205615683277424
Pb 14.792361391247894 11.7360208496817 13.96579598472799
Pb 15.258421348721015 9.83339859572685 19.63831896489416
Pb 15.851380160903073 12.319639133706362 10.703459104713579
Pb 13.348984005591538 15.897691898873958 15.421193132325273
Pb 13.027885697449955 17.922225643354363 8.750485278904055
Pb 11.992159496252262 16.584042631581212 18.337980376391215
Pb 16.15109641367216 13.171424846603133 18.552548380635457
Pb 18.055370342640114 8.587726394566024 18.75490768099872
