49
Energy = -161.87028508 eV
Pb 16.47993343114324 18.239789023742034 10.774135685397434
Pb 14.314774970791891 19.299802027745795 12.97207838647982
Pb 15.653825465742768 18.694236755484667 15.76188925063223
Pb 18.552189828044874 15.756030259631094 10.838485984363418
Pb 16.13315838624756 16.236337777164216 8.151401063201678
Pb 13.598122691930321 18.33525892335779 9.375498716915907
Pb 20.74437675964524 12.355076160977355 12.745016853557763
Pb 19.766175323998898 15.386969198100433 13.892064829669442
Pb 16.30479211927475 16.286426907997708 13.457077077914798
Pb 14.512868793593624 17.341836039095174 18.41885018372263
Pb 17.97429348071454 12.974594365866706 9.238553708356017
Pb 12.38816895375667 19.278684711363653 16.618665683425178
Pb 11.182176371625536 18.894022021757305 12.841085634110867
Pb 17.376450807097793 14.992608172772663 16.267950973638097
Pb 12.765460878843486 15.430770588751443 8.01799672627876
Pb 10.56940167285404 17.349995320816657 9.74576341766017
Pb 13.167319747612023 16.703241111694553 14.905230910421501
Pb 15.216627139196973 13.203552523479312 7.432390088139443
Pb 17.646184898085185 13.050511334543385 13.089015776161501
Pb 15.292464151629465 14.293114664479408 10.640315936218196
Pb 14.771357063130345 13.494438522161488 14.641666528082444
Pb 12.785372340191625 16.100651192632515 11.76299890864286
Pb 19.867162499985763 12.78312373722564 15.884573692408676
Pb 18.395071225082706 10.356006341529165 11.446091777534885
Pb 9.127716823991689 16.437692232648608 12.51648765448834
Pb 15.4417324050055 10.968110399022512 9.98452552394561
Pb 19.07716010438705 10.018434090883867 14.540042246229852
Pb 13.009024182175365 14.441908856241286 17.498010794065003
Pb 10.4075126879807 14.081986889969672 10.5951249669137
Pb 16.188817718649872 14.635813971264737 19.27417716827747
Pb 12.981004823567568 12.056831274236202 12.301663002358458
Pb 9.908425359260834 17.413535299130668 15.681796161473804
Pb 11.39226957630604 16.916716065448572 18.946879670879216
Pb 12.569784093417486 12.282926308237462 9.005101656651897
Pb 13.42977658332946 15.070753857502979 20.850225468124126
Pb 16.820692098294025 11.602983654797796 16.423984217399354
Pb 15.69395931463211 10.257467382492319 13.619657931594768
Pb 10.951090609420538 13.867890834169524 14.370564651112304
Pb 8.010374165390115 14.711271712623647 14.89791831682
Pb 12.727804924114935 11.185635684382637 15.867074381443032
Pb 10.082325765154566 10.646069214754824 13.797633441357993
Pb 14.278188592413962 12.170472736258667 19.454126680334404
Pb 12.70051640962364 8.733722643337881 13.53661145836338
Pb 9.342272780483949 14.681771218591193 17.733558738710478
Pb 11.155695454937913 12.960576528214784 19.90162218409534
Pb 14.095889301330455 8.42041948672421 16.506060508966844
Pb 9.727591997102977 11.373352872016417 17.030536520438257
Pb 10.79778910688652 8.363555374208335 16.04985761389483
Pb 12.075601881319379 9.78086566956793 18.757903845525284
