42
Energy = -137.95392386 eV
Pb 18.74729820772751 14.95685995456249 10.194567040772998
Pb 18.55680667693661 17.274055662977226 12.570793992835684
Pb 15.954268670569329 16.67432446850954 10.479530333644663
Pb 13.259449519121436 15.06641106845485 9.414895420336784
Pb 15.874602643682062 13.293169769987694 9.955725391198596
Pb 20.13561233911713 14.281918171051188 13.021040094592756
Pb 15.457205094664541 18.69576112337812 13.142506615102263
Pb 18.503033194019636 11.92121488227372 11.256067411295817
Pb 12.716311043366693 17.325767293692163 11.650345198510058
Pb 13.80948942822894 16.19429136948732 14.685746041958419
Pb 12.206635921467019 19.210062755337713 14.246129606465276
Pb 9.6505563204561 17.285998029046844 13.323928082679766
Pb 16.721897148802828 14.400619566420772 13.018953889135743
Pb 20.471353184582846 16.99742161547563 15.257614514300116
Pb 12.616776446998955 12.431175296416088 11.282492441438112
Pb 17.944762070919904 19.36928880449714 15.284188232177339
Pb 10.297532057836566 15.192666294612248 10.767936262469544
Pb 20.126425796981675 13.91005971607892 16.270882132414744
Pb 7.7152385803697445 14.747170821029885 12.788669011762074
Pb 18.397197725613136 11.731734086655326 14.466767190883047
Pb 15.520170346971238 11.111536094436044 12.451098178229008
Pb 9.474833841816043 12.190511071491061 11.711330682264691
Pb 17.05641611049174 16.132272700181023 16.13869797044303
Pb 8.398830093879475 12.266938365566066 14.697365516947977
Pb 14.685078386610211 18.929311660410963 16.42473617274043
Pb 20.209208429337174 19.261794414803298 17.512650908171523
Pb 11.167017197067473 14.12510968994955 13.942794637364605
Pb 12.798958061331902 11.007402155836683 14.258966289748296
Pb 11.30182095863813 17.19687123338612 16.4991056929273
Pb 14.206653164904317 13.265471987886537 16.564663597353125
Pb 15.667936054140641 10.41715966565742 15.84256601273265
Pb 17.243749171062042 18.53553099478547 18.465948134307094
Pb 19.668579093927452 16.240525161579434 18.432196451713867
Pb 17.46108799776328 12.914040076919447 17.834185591846637
Pb 13.92032426581341 16.325535197679464 18.179176951395952
Pb 8.73631214216376 15.250889649073597 15.880706654084248
Pb 16.66894960098738 15.56390172008515 19.66568899991251
Pb 10.873202114979623 11.967943536690552 16.647124043825194
Pb 12.122098124246937 13.627133545774493 19.04160317492991
Pb 13.216216892125972 10.586756968295319 18.47897664020158
Pb 16.35950969106955 10.17963935162306 18.95153253714805
Pb 14.941780175102704 12.804937993838317 20.161290243632617
