49
Energy = -161.04706621 eV
Pb 16.71386363993614 19.437830947846308 19.021964287914873
Pb 19.074979429808554 18.96218423879113 16.711409356556967
Pb 13.76471002859407 19.278974929948834 17.672370770735927
Pb 14.662050990423591 17.222283084429495 20.219933724007564
Pb 18.06663363945629 16.467950317982464 19.12603711991897
Pb 17.252582179744863 19.251176852245962 13.887178954255376
Pb 18.944923537110665 13.369619509915788 18.72230547692932
Pb 13.932631669425454 19.20906848260641 14.424486651017983
Pb 16.176196812650197 17.478261368103915 16.416518583830364
Pb 10.773669429980798 19.408998208968864 15.76016501975651
Pb 20.688193252147798 16.14772683139947 17.18013742963703
Pb 15.651188026806977 14.104498618664726 19.872539809906936
Pb 11.28987037959932 17.28495469078857 18.595399034462602
Pb 12.415954426725044 14.912578580317126 20.51119507567198
Pb 17.90084881640926 14.769937452666523 15.821835654595219
Pb 16.280284626493568 12.273781809135421 16.929865507802084
Pb 19.71981055661944 16.931079630802998 14.010330034662209
Pb 11.26571631744085 19.19261411959895 12.439062897456965
Pb 15.619863175947469 16.19543972619933 13.168431251515377
Pb 13.830211463975132 15.41022781036485 17.432783777701278
Pb 12.081713586001609 16.41011995951732 14.508187095887251
Pb 8.305675357195863 19.243910346322284 13.898867354984853
Pb 21.86811474949445 13.257816612796795 17.337502697386945
Pb 9.038052518808776 16.627559162548632 15.838418787329678
Pb 18.03389795852862 17.59564965409598 11.291311063435678
Pb 19.532525312174243 11.382499875896817 16.12889978081106
Pb 20.898473830737778 13.871814157613246 14.349518118685431
Pb 13.12501820632412 12.255310878955719 18.705744389694836
Pb 10.723884560102553 14.201290705049681 17.6268259838788
Pb 9.351805158050082 16.606449794959644 12.558417304983555
Pb 13.060069231955428 12.94791738983905 15.3308613810464
Pb 18.524077047003534 14.448822096871407 11.612265518397548
Pb 16.07717397616981 12.718906770462208 13.389631408266512
Pb 12.742447261824049 16.40201173110428 11.263611290387285
Pb 10.044321722753368 13.349503165142542 14.037342242790182
Pb 15.753279365595505 15.8520014193086 9.896182100188968
Pb 13.130313639969234 13.03764090079629 11.914100657226903
Pb 16.87726675716174 9.793745882733875 14.737835819335317
Pb 13.82876871458033 9.901845446461188 16.4182819232462
Pb 10.966494870388349 10.448354748440932 15.107111941702065
Pb 13.58719389320281 9.521464741193476 13.187355913013716
Pb 19.142601698990727 11.53927096393763 12.892392395056403
Pb 10.235855842908887 14.074142690113353 10.72409282290376
Pb 16.204586925779765 12.630877141088089 9.849283950994604
Pb 10.729415103680354 10.619333483484446 11.844032434764078
Pb 13.318956875335008 13.846364656799363 8.730330815542303
Pb 16.434988310899996 9.91458888911935 11.492754741554387
Pb 13.585992842041758 10.316107906722827 9.878739238293997
Pb 10.982117317268845 11.713300511575204 8.781499437140281
