46
Energy = -152.00957839 eV
Pb 19.63085984794456 17.556744443016754 12.9680816189445
Pb 19.17984094622702 19.144183088421315 15.78955048878349
Pb 19.463624501209345 15.852527664512108 15.827152704394518
Pb 18.134337777301976 14.878045871379276 11.45642218039964
Pb 18.083534745484634 20.43664044390204 13.133127698529881
Pb 17.169421919349812 18.167518614318805 10.886343869822056
Pb 15.95488270346796 15.096223572372462 8.991825699976856
Pb 16.802454286772427 12.159363288576806 10.144621888866915
Pb 18.135551358770517 13.17438336811384 14.36143509757015
Pb 14.763406191465423 12.28177981860576 7.793623817347955
Pb 19.52766467732931 12.75392543333417 17.439297832520925
Pb 16.63031719385812 17.277800730122983 14.281330215088353
Pb 18.9938456974917 15.434647828458676 19.090550337183796
Pb 15.932071919513803 20.240426340840656 15.704653898581203
Pb 14.916721974577166 19.898117166524603 12.605294202305748
Pb 15.20507516610341 14.542601980745292 12.48399648946745
Pb 15.10693332086973 8.665657422581443 15.532467581028046
Pb 13.992904427205934 17.169598791698817 10.61364856820723
Pb 17.79414361896495 10.286952992907992 16.0265692332599
Pb 16.47930414675548 14.411338690013123 17.087043414645876
Pb 18.54017335429533 10.139132066688486 19.05669969029791
Pb 12.908273414632465 13.971261797177958 9.647330864028657
Pb 15.852939340762331 11.011032934410087 13.003303619258988
Pb 13.692797729703193 10.740138873168297 10.3922334344052
Pb 14.306545985895866 11.983968936157954 15.716474440331405
Pb 17.319158334064927 12.915672363469827 20.02023658087783
Pb 11.817621019244447 19.416123459695175 11.790876504422096
Pb 17.08493334028937 17.814977632812198 17.870464299272736
Pb 12.904048791291753 16.877756739807214 14.015911225786
Pb 12.807462934361205 9.647508697633356 13.509418258350648
Pb 15.350504394025828 10.450322599824439 18.507330326109983
Pb 12.530715402197039 12.865957753658698 12.716036084708554
Pb 12.279206323506704 20.02035942089721 15.015343024701231
Pb 10.968339923499617 16.121144374591946 11.49508742077715
Pb 14.821392685963323 16.221163483964396 19.566324269877974
Pb 12.937913694806307 14.888485646734532 16.92751858470232
Pb 9.606230944054095 18.234869322480098 13.646005686647044
Pb 12.322629901080015 9.361916404480624 16.86676163927865
Pb 10.845092763505894 11.80925097141179 15.39458498742408
Pb 14.12986496692827 13.208308083973263 19.93602535459028
Pb 10.331256334728574 17.840047905481605 16.707584245326363
Pb 13.527420799281934 18.53647540472482 17.638638378723567
Pb 9.983821471623573 15.14988109836244 14.468933023931054
Pb 11.636518760561982 12.090266976526012 18.534738992290464
Pb 11.591757928913339 16.533588960862648 19.398298782216642
Pb 9.751725579435876 14.467153079874052 17.68604598405401
