46
Energy = -152.57470105 eV
Pb 15.086218815444507 14.213877860851152 8.813278434698331
Pb 11.805957721874153 14.434793982588701 8.973044539239886
Pb 16.117386946439026 10.906576743156705 9.914435780075573
Pb 13.595835815321163 17.19177088812526 9.407202162428964
Pb 14.070716156335399 7.778992778047354 11.241140985296756
Pb 17.212731174260796 8.360269875274684 11.786057905506517
Pb 13.10200800468673 12.00570504712098 10.585808471262592
Pb 18.15475576312541 13.432656831844945 9.686149425208564
Pb 18.496308867326615 11.392655830536864 12.20892502346845
Pb 16.922753802105767 16.538659547366567 10.31351404215663
Pb 12.912060919720789 15.486580856688272 12.010244049796714
Pb 10.250408491979016 16.767865088658937 10.331462998024385
Pb 11.556737752955323 9.546241433084619 12.230204100022602
Pb 15.655706256796979 6.601810260443165 13.9555881574078
Pb 14.672434790503221 9.928802227172195 13.60743890529306
Pb 15.801780013171022 13.23083015693928 12.23470446944978
Pb 9.85298882731295 14.0929046953423 12.241820971685712
Pb 15.198196577143051 18.786717680847804 12.265165267169156
Pb 12.545884857184772 7.019865119205623 14.102065302527988
Pb 17.55485932849169 9.02222589221972 15.17701344564775
Pb 12.474978569835718 12.609933274009862 13.751746945406484
Pb 18.388753676512337 18.185504724669823 12.75124764374938
Pb 18.953906389898282 14.880806944677296 12.565064506146626
Pb 11.888698079307462 18.735466423635135 12.376509346027389
Pb 15.898432258068732 16.112198036972494 13.824038406022261
Pb 11.531710695658969 9.806963082567597 15.48272398435071
Pb 18.389387431175944 12.24873257317871 15.340295500980355
Pb 10.442032152821312 13.242712261122884 16.165412059077976
Pb 8.457146804673332 17.738917356724077 12.895829845221927
Pb 10.768642099803934 16.422152989485863 14.771002293692625
Pb 14.432426575383396 8.35551126942642 16.553050899181454
Pb 18.7138413422494 16.296981590971356 15.522281779194888
Pb 16.524478347794624 10.944010933755974 17.804417075259238
Pb 16.69031948241086 18.96293587136696 15.379587937740139
Pb 10.125393681819451 19.845626814939095 14.856893008900268
Pb 12.400029600978085 15.552899789914562 17.441161408828663
Pb 15.31043871033115 13.358753361503048 15.789417396256862
Pb 13.338867178621422 18.353417677829196 15.434084648634066
Pb 17.98622321966872 14.005258930320727 17.95454268792397
Pb 7.764604011206998 15.012567711201788 14.778699611759844
Pb 13.301768617006173 11.42155474316963 17.611516800452726
Pb 15.845705891562579 16.437251820765972 17.290322133782084
Pb 7.738449614255022 18.000488599383416 16.125039865729814
Pb 8.943454168619299 15.583696689104984 17.81342220491523
Pb 10.659057827862307 18.34236840716029 17.70033064377417
Pb 14.976924609899129 13.715172239523865 19.0310836084364
