42
Energy = -138.51244979 eV
Pb 14.641976226782552 16.6536784085148 19.35954700781971
Pb 13.088453274322118 18.336506895823074 17.17823079414159
Pb 14.79435812054853 13.485242697904312 19.249768694147242
Pb 11.892099628919564 15.27908398508897 18.556812993262138
Pb 9.955023137957882 17.77133399494805 17.03586551733361
Pb 11.513252103203547 18.994144016610043 14.17433815737117
Pb 14.777755964501551 19.76823028272822 14.485598785296308
Pb 17.55640707296062 17.816591471998965 14.66460226734865
Pb 15.354805388613904 15.564364603879246 16.461753550101044
Pb 17.755956654386917 15.967105129271328 11.908195754324293
Pb 11.586083959591633 12.013220852914635 18.915415208672176
Pb 16.568201612752002 12.359092914134592 16.630390157880452
Pb 14.386108456019091 10.42990186858103 18.29425179290847
Pb 8.91437544740304 14.759465221929693 16.5936121560849
Pb 18.370574519897502 14.577439319963373 14.86994656853095
Pb 14.649960304292794 16.658531193830605 13.430019803958153
Pb 8.762573343155594 16.908872923428518 14.136127433789854
Pb 13.177918612799784 12.727112588499 16.03989435610565
Pb 11.801904898298972 15.675245334973603 15.102601878445517
Pb 16.563841528223016 19.044065820427488 11.826766559701122
Pb 13.401919850882653 19.113559627421708 11.442350966684158
Pb 11.843062810720562 9.693481185061225 16.58399809753219
Pb 14.894982420623665 16.392931479551333 10.23979277789167
Pb 9.469517245805203 11.66016174667997 16.091904393093465
Pb 14.84628744237855 9.958237673140923 14.886669935311174
Pb 17.74785000429157 10.355791160310346 13.345143173535943
Pb 15.919294865006067 13.204750317533682 13.360375699388857
Pb 9.526394249099225 13.72406397074649 13.501757688403252
Pb 19.004268023280044 12.827416987936296 11.942988856989489
Pb 11.180374344112714 16.62742201292743 11.906838398978154
Pb 12.799618640983082 13.701509684778205 12.319232243187967
Pb 16.260433271862244 7.802093433712786 12.037202853128449
Pb 11.7055174124938 10.67990585172717 13.349989953294244
Pb 14.653874797573716 10.72556377403441 11.375127104871737
Pb 16.39315440103655 13.290679192127062 9.964928769981361
Pb 13.076607431845876 7.892429900451091 11.948650256296807
Pb 17.556985012265113 10.004172908709227 9.94471096707598
Pb 10.371631981277483 12.290023343909267 10.675988051982426
Pb 14.818312561299276 8.042175098455278 9.114483798328106
Pb 12.930640898639702 13.40952418660418 9.080753573475446
Pb 12.147525091644003 9.862527271350505 9.431282337802386
Pb 14.963325029010365 11.016314266854092 8.004640137302959
