45
Energy = -148.7273789 eV
Pb 9.503326020535239 10.922621697046498 17.339535755127706
Pb 12.75698180073921 11.71483678360797 18.181824558774842
Pb 8.21774245069267 13.013278170824327 15.390373330775297
Pb 10.536375097760367 14.060672529679138 17.877333412218768
Pb 13.875220348151615 14.990036440354684 18.902832907005582
Pb 9.314791863825898 10.06711291586164 14.1503951270212
Pb 11.764002946377436 17.215521905332526 18.125257886493756
Pb 9.592676319085815 16.398096645305024 15.710707457090594
Pb 7.456413644317625 14.998734016554202 13.06637822247495
Pb 15.467979649391898 10.090728423177696 16.551442728216582
Pb 12.03893847207497 9.32425697358443 15.82541997083868
Pb 7.762788671768656 11.99298853483412 12.156778629179934
Pb 11.653646904274526 12.436443654422021 15.105931041213468
Pb 15.312027134745778 13.44695748718386 15.741531314439396
Pb 11.140044228354638 18.01724403645357 13.340552847374779
Pb 12.932464155191013 15.872211301527015 15.441042903283954
Pb 14.81435570828403 17.94754697007342 17.277472342567773
Pb 12.130012930605156 8.795710742417102 12.564752935133525
Pb 14.071871421226865 18.867650726031375 14.162476827628032
Pb 10.585273762684658 14.699763220486561 12.947360162616098
Pb 15.993316473899451 12.549026117620745 18.77634059328961
Pb 17.51241872039203 9.151909029501148 13.958294702470615
Pb 17.03232384120377 15.459878069910062 17.74422316022161
Pb 15.217089770095718 7.9552484782703425 11.937945173584737
Pb 14.598973798890425 10.798046066111093 13.513832341076439
Pb 10.06045350929524 10.239577505531104 10.504454765094192
Pb 16.550096319372702 16.872375618755196 14.61521709118621
Pb 12.5642394671035 12.441405553961436 11.26559470820651
Pb 16.0878083077515 18.35123458937245 11.599131652234993
Pb 16.15969858701345 13.740088705611132 12.41747236414971
Pb 9.632171637914297 13.539435080420963 9.91023193388319
Pb 10.882056669297894 16.870165935187135 10.345743827258831
Pb 18.24869667930459 11.557134755367711 16.1228540651377
Pb 13.66302471111052 16.04851537739967 12.082471961001641
Pb 13.524825991359032 9.563260328078611 9.619161837551207
Pb 18.62503144934374 14.454670628816482 14.820273623144024
Pb 16.878190241913355 10.50553633529784 10.863439464464294
Pb 13.779045485648561 17.899247913022414 9.352002089006078
Pb 14.980509400558816 12.448817635075699 8.87072761963631
Pb 11.722146307559875 11.70197588086058 8.072105321059995
Pb 18.504003086469893 16.11327614490789 11.927770384345243
Pb 12.794662136219866 14.82221846077023 8.587567803035364
Pb 19.078853237090225 11.832072412398995 12.884020300889352
Pb 18.258472145188552 13.349388141107756 10.009705942110074
Pb 16.170899495791385 15.715653778487276 9.427075212748495
