46
Energy = -152.26953093 eV
Pb 16.886274048373966 18.981018483890885 14.223897733180733
Pb 14.265114936000758 17.987285626522212 16.012655810556474
Pb 11.817931510905147 20.062683492489374 15.17943097377012
Pb 16.97406607447152 16.16527763131917 16.07905969031424
Pb 11.131590526012928 17.608043945173304 17.32462660001155
Pb 13.967149124755197 19.55818657963679 12.754764352199452
Pb 18.504468960322058 16.298151209507378 13.251256310855519
Pb 16.9230810576691 18.106105608150436 11.069578130391383
Pb 8.831590234732166 18.86703992573013 15.316903259231879
Pb 14.975972970946282 16.36252477423275 12.935013881276513
Pb 11.301840496006529 14.389174485540735 17.624453334807296
Pb 14.082320125333272 14.370386842327495 15.650086458547342
Pb 16.482071637102482 13.450424860956481 17.88474743523795
Pb 11.50573844631472 17.009089271124648 13.874437476499157
Pb 10.176474840057846 19.6036116620773 12.423441424658076
Pb 8.581605581319737 15.702973556411848 16.138968752294517
Pb 18.76143546140696 13.247173556314207 15.219548830775832
Pb 17.98037841034259 14.756909555850852 10.535162878999701
Pb 13.703184247361076 17.835754388385787 10.067625081329146
Pb 18.94968569740485 11.980044688630183 12.212957139112055
Pb 18.906614625964 11.120679345047803 17.659097836933384
Pb 16.207529811668852 13.308176504413336 13.124558369097558
Pb 15.077766265290268 15.137282067810991 8.98073748648115
Pb 19.134224878341524 9.582704352284063 14.778203477672147
Pb 16.080326610162622 10.341000791203403 19.095308883725053
Pb 13.402454560664243 11.648998580257672 12.768879220020013
Pb 12.696285471541477 14.471536688513632 11.165297386747486
Pb 7.532233500113243 13.523605280696524 13.790065741822744
Pb 16.108437548987528 10.786277760148252 15.542026421035816
Pb 16.27500161460175 12.076467234567769 9.757085361101728
Pb 10.555885469816264 17.04832574559542 10.499170273111892
Pb 16.48914859550623 9.76291622505854 12.085001712287989
Pb 8.14489424406632 16.766435224347433 12.861434043127664
Pb 11.04745648527998 13.724986988567517 14.356283769807478
Pb 17.65589185244378 8.13594102106947 17.415935898257928
Pb 13.479980731711478 11.805622729825691 17.711341112523236
Pb 9.355552453824405 14.06918820364384 11.138519437765941
Pb 8.996845486259172 12.378240412311584 16.40530018279677
Pb 13.272601665697842 12.631940715432671 8.441216033374848
Pb 16.572905560397416 7.493168426473566 14.49019621411263
Pb 13.653788217477326 8.40843987738786 13.318261982198083
Pb 11.15481356938194 11.308129113593926 10.330069868389083
Pb 14.38478372593402 8.385967574454583 16.912051265055187
Pb 13.924691759042632 9.712912106925955 10.075674747573755
Pb 9.55270932015504 11.08641591359363 13.21622477001905
Pb 11.943859401291595 10.300229403895917 15.370801668579212
