45
Energy = -149.50070865 eV
Pb 18.12359839559322 12.03143494746819 12.919183446520307
Pb 18.388916941965 14.250108071568997 10.463028220584821
Pb 16.59387613650519 8.76985195960322 12.622043146764348
Pb 17.97834634453775 15.150282674054147 13.577376704454432
Pb 16.591871126068128 11.493369318269728 10.0720908809883
Pb 15.313576380156643 7.6425373838505015 15.612197846122312
Pb 13.985447899802562 6.775906443167344 12.792099602831403
Pb 17.650684331127845 10.106517930527094 15.546773967614662
Pb 17.293317592830864 15.134406057051816 16.847192096927824
Pb 14.06314723708066 8.889697820111977 10.319511448700743
Pb 16.478036857933716 16.71242759996279 11.19547244134978
Pb 15.326916092478434 13.773716273307487 12.171022680064217
Pb 15.535501466026584 14.44735253853015 8.936203931833855
Pb 13.831763221621767 11.49971667543119 8.24788779370197
Pb 17.693711377902236 12.158146634242396 18.004848854915817
Pb 12.486425259766218 11.668761322036888 11.32034109918591
Pb 12.026494220350134 7.813156517761517 15.119803512363646
Pb 15.113587068859058 10.205381697048198 17.724440637194633
Pb 15.805922731246154 18.316749948223634 16.29162265936324
Pb 13.949748248275304 10.127664632617616 13.915767235923743
Pb 11.297852970900983 8.493398947312379 11.97580689891914
Pb 15.51842762038873 12.788430682128208 15.480603748055595
Pb 12.020840819095795 14.504724180144242 7.855272985922359
Pb 13.530051811980705 17.222360940099193 9.48444161206452
Pb 12.475250553274291 11.926974849813426 16.906596943289426
Pb 12.188379584794951 13.886561551816706 14.272268016097948
Pb 10.681194275465051 11.450966038812362 8.56579680524108
Pb 13.635153217006083 15.953684083160137 16.70220824013207
Pb 12.779525876181339 19.23313186353553 15.49312146665409
Pb 14.861899915978693 13.389720297908823 18.91511365499992
Pb 15.726492320871243 16.679938188147172 19.250185514721565
Pb 13.83569512547314 16.794770495994612 13.462551476104045
Pb 10.553234359926448 16.79953585733055 14.622935070328646
Pb 13.620104503795638 19.052134902124315 18.632610526136055
Pb 11.63961726374835 15.067525937319477 11.111891746100463
Pb 10.563163647897866 10.803791446325944 14.271945809180778
Pb 10.686336388498265 14.644439377127421 17.300870963822327
Pb 8.942009275735415 14.188496197497237 9.25607376180844
Pb 10.325086469932245 17.13118919795523 8.654565111797675
Pb 12.524759484470088 16.091749727638515 19.753191204227022
Pb 10.71436887190614 17.922327176970914 17.71532824721334
Pb 9.174803989492599 11.090342113829578 11.275645941843424
Pb 11.362063467133227 18.321257485041155 11.631753806129424
Pb 9.096087354903625 13.866741905705528 12.936715650806711
Pb 8.644426184180556 16.65674247748337 11.379746386480486
