43
Energy = -141.80040103 eV
Pb 14.582022420134193 9.47901023037607 18.231020737737463
Pb 13.024497814368846 8.019180934447572 15.813965755421014
Pb 15.367776241197001 10.383910291846933 15.070503729482573
Pb 18.259627842619604 11.697307248162552 12.382038298204764
Pb 16.075971882496614 9.328022672223252 11.800160112039283
Pb 15.147021435992766 12.85181900960755 17.759779426457104
Pb 11.48119315144896 8.514046316329557 18.60037740979765
Pb 17.918571141406275 12.390958954546512 15.65806836384928
Pb 12.963211478917676 9.777703042866747 12.9740408403239
Pb 12.25146381243712 11.21959571277365 16.47477551121075
Pb 17.000814037824835 10.750400258753256 9.126338318093255
Pb 12.456922565701303 11.337770582722115 19.864976562990222
Pb 15.186114623154294 12.489680579429256 11.63589943368945
Pb 9.82454275769475 8.927139523659957 15.847199002249342
Pb 17.420736582078465 15.159743172347488 17.02586859755491
Pb 17.956838793336708 13.782116494861882 9.931946094119104
Pb 13.84447645504285 10.37320603831537 9.598395314046348
Pb 14.106440839263623 15.966680786003332 17.15087056007232
Pb 18.14898292587804 14.98326329902461 13.737933195161512
Pb 15.07119595615074 14.116789185691228 14.636762397716602
Pb 9.39224717547894 11.15586891782432 18.364531397272195
Pb 10.947684127420429 11.774298527803442 11.59371120241946
Pb 11.236990782560081 13.911154860890981 18.5388724444593
Pb 14.947480077154335 13.215569490369884 8.420742892317175
Pb 16.461540708156463 17.46901310985341 15.075916194367771
Pb 18.0825865152316 17.39440433018336 10.960823882183925
Pb 8.590266291171634 11.753650653268478 14.14200971654115
Pb 16.67169489896296 16.138034016883715 8.18258821939373
Pb 9.733756770843325 9.110663858392403 12.665364172576298
Pb 15.318014245119167 16.037637034849087 11.470172369611166
Pb 11.225241323044184 13.717057588802565 14.495408900274112
Pb 13.244477815904803 17.615274073635405 14.220293341294127
Pb 12.306337396708326 14.930578915885759 11.607990968451523
Pb 10.770121817292308 16.26412465031176 16.456560566429907
Pb 10.57129572278804 13.653280961770404 9.114477113300723
Pb 8.62567695566439 13.83615941931226 16.60874873454201
Pb 15.627717359434738 19.230149224138465 12.544059050233496
Pb 13.254991381570715 16.360792117450504 8.63528940972035
Pb 15.54053801482879 18.78826551566135 9.36888427213386
Pb 8.69040303261739 14.192133132915856 11.905469483762076
Pb 12.613453723526263 18.469169541284472 11.042103490545657
Pb 10.127526718311193 16.84853999859448 13.212066837039584
Pb 9.898769434583768 16.586004711174713 10.03153954403417
