49
Energy = -162.19652736 eV
Pb 16.23985802729525 10.913099634867713 7.845154631685142
Pb 13.848012571873998 13.020992017272693 7.789291708446656
Pb 11.340117981547923 7.478920498106205 11.43654545508743
Pb 16.87796662050078 14.150715885626836 8.027615413431748
Pb 13.47633247344642 10.332627055403586 9.836867682085321
Pb 16.434850830684848 9.602836267539976 10.875710326950822
Pb 10.293597461102793 10.376708071581053 10.451740794267339
Pb 18.447027446980954 11.968827179454053 9.941401016646294
Pb 14.289874239222932 7.739842983702924 12.858019711226342
Pb 11.038662385981958 17.55892049590869 10.047849488563976
Pb 15.34139435940521 12.873611440687885 10.782432963315646
Pb 14.531637674072979 16.042582607498062 9.583304299411383
Pb 9.232182474656353 9.243251272350332 13.400044663558281
Pb 11.963343727821297 14.31059158829871 10.273196209322366
Pb 12.291926521652565 10.283363497856282 13.223111775100666
Pb 11.457984483524973 7.172223667321981 14.63387236945459
Pb 8.825647855345695 15.258010892131738 10.688486856677937
Pb 15.510816020504514 10.971088310771123 13.752515216589664
Pb 18.04382887986442 14.93907715634323 11.248785371218748
Pb 18.524342109316144 12.49009382554871 13.604040295274148
Pb 16.87614393212447 17.970512951982478 10.588877824394515
Pb 10.117537458703811 12.856603797126187 12.576988544124069
Pb 13.876605189346066 18.945565985579567 11.545608849343038
Pb 14.058029761523688 8.719045408678294 15.92561244343827
Pb 15.438135998302405 16.31141979114474 13.091168047280071
Pb 7.764186252806981 15.231239261138448 13.872660985855115
Pb 17.334158644112122 10.814078289951276 16.454654038565415
Pb 8.838718019737666 17.998689320043713 12.366708579475082
Pb 11.767087148374817 16.62084347058195 13.021216049214516
Pb 19.664777269450475 13.124490480395298 16.58719181962414
Pb 16.39721610668074 14.061890626540967 15.812823506118974
Pb 16.659448853337185 19.408704849816093 13.401745010043353
Pb 8.16054835943982 12.215528643915144 15.48102890973637
Pb 18.884690906577127 15.773410780638796 14.592592743233398
Pb 13.282470620949844 13.642617456644333 13.511856281997279
Pb 13.870580031640294 11.938775755359286 16.556708422027327
Pb 13.72804653300688 18.890196676003484 14.692598654589652
Pb 10.64431605884721 14.174894430719323 15.571608229801155
Pb 10.864479483634568 10.023205467684363 16.20551469357739
Pb 7.791036783400062 15.160670725209984 17.191031291628786
Pb 9.697720066389147 17.400356034590907 15.541304940305658
Pb 17.24062103218683 12.945880087049183 18.848737681905877
Pb 16.41265781557675 17.671124096025636 16.23087372361069
Pb 18.598187529851515 15.806939687283649 17.925619045206496
Pb 15.441626245062585 15.68207228029917 18.795153187159872
Pb 13.339890687513336 15.873716258677971 16.26508999666248
Pb 9.743431636249522 12.805067859340209 18.353755398283493
Pb 12.834671273196223 13.658015485343093 19.044195989022548
Pb 10.692146180430319 16.036175659004346 18.453822949999658
