41
Energy = -135.09045815 eV
Pb 15.780966186659816 11.134565391667502 17.673340889611634
Pb 17.997092150736616 16.138267333607516 13.476962675514555
Pb 9.65978936101772 16.844399869976264 12.979774679854454
Pb 18.13534004545543 16.0079043334477 16.614648361841297
Pb 14.606563868667005 9.926445791586104 14.808710797170015
Pb 14.159768755948926 19.996911726858098 16.852876354755388
Pb 16.191302092971767 18.467041751584564 12.107792736143345
Pb 9.089756068669546 13.594581157064214 13.666686196696702
Pb 12.137642369707887 11.994149990211733 14.078550053068604
Pb 15.665241149529347 17.41056890024784 18.251770504066858
Pb 15.17208298921365 13.366149003641786 8.27590501268437
Pb 10.100272002817368 11.288196153870611 11.539408429954799
Pb 18.853682481618605 12.773133951315884 17.13177983476029
Pb 12.403291355170612 15.142447386123775 13.425341312288062
Pb 12.842268511411765 18.199025889841735 11.991676844363937
Pb 19.448241502524724 10.981625124088714 12.093450384485115
Pb 12.164925635392466 17.530982256344874 17.9016191057776
Pb 9.8144771554027 12.47477346559465 16.53103489145039
Pb 10.283032931030888 14.536745181314572 10.76729503318056
Pb 12.478814286772103 10.81114118499013 17.315033500032776
Pb 13.359322647637235 15.492715360062917 10.122533690160624
Pb 14.852381398857988 12.740975601501125 11.768554483150668
Pb 19.4890108559405 13.362975053479785 14.129512625533424
Pb 13.005766804449523 9.81734976825447 11.700963725459362
Pb 14.304885179474068 20.519494678958917 13.736353230062209
Pb 13.76889355818677 12.438950254772422 19.851940379600162
Pb 17.600296243405587 12.246135261335533 9.953674655262478
Pb 11.63289827183876 18.87824903959354 14.885131060239077
Pb 14.630413114787395 17.139189150036387 14.80940694668151
Pb 16.941690179201107 19.23475840428134 15.277984716798356
Pb 16.619464162438714 15.365891829861004 10.636069156896472
Pb 12.315347164247417 12.290639418919787 9.421071002165222
Pb 10.230447092761592 15.727132177799875 16.060353521634237
Pb 15.03905450522912 10.338816648392815 9.109489955962262
Pb 17.847323976320894 10.516199885173938 14.934254193425872
Pb 16.29643268758445 13.577173348319388 15.100769667506237
Pb 16.484324188139908 14.180690929051773 18.87574498262774
Pb 16.534406070377 9.650609630521112 11.985755570370387
Pb 10.997254816501622 13.962103805778296 19.116085976064568
Pb 13.464190443251049 14.241832302914087 16.955674566940747
Pb 13.592291378656823 15.649707247619613 20.07566393576242
