43
Energy = -141.42684424 eV
Pb 15.753898527724195 11.754665102896062 20.01476597795127
Pb 16.50472483064585 9.588182825098233 17.65433456359682
Pb 17.937432623926355 12.44527597699713 17.633229279708132
Pb 17.074608240962895 14.72556289641674 19.950860729233934
Pb 18.49683976466644 15.689215348266169 17.24461158008058
Pb 12.575566880477872 11.37172775344929 19.770565795846377
Pb 18.109245223548804 10.269246828610685 14.855699150692226
Pb 15.73495627984032 17.237769791183815 18.31524385144619
Pb 17.56363676196898 18.44870790803508 15.876219947592412
Pb 14.039038671758716 11.965552434581292 16.820091695048724
Pb 13.894347603586676 14.417131909581226 19.383791143269963
Pb 15.21965206117544 8.566744825774641 14.692309296037028
Pb 18.395043200394294 13.75329080019096 14.56006759482013
Pb 10.719131748963907 10.600015865102245 17.35912985067909
Pb 16.792000747078152 9.426317611677383 11.880957202184943
Pb 18.71773073917249 11.83199288064592 11.995772003364392
Pb 18.017818609748204 16.85366405972042 13.138194376234246
Pb 15.659627197846445 15.607269737482449 15.407321103206877
Pb 11.08772840081018 13.851640592217672 17.77834532578367
Pb 14.470934761476407 18.823137481050818 14.916474249778368
Pb 13.37407987209393 8.820702346198274 17.64808556292035
Pb 11.966038029659083 9.485282531595598 14.580259871815269
Pb 13.654620369583457 9.44342320106015 11.870056322963674
Pb 16.74513990267193 19.85197175835337 12.676147897213752
Pb 15.438433178758865 12.007876003604425 13.620444931260288
Pb 17.055911845270426 14.39481520381327 11.315985577868506
Pb 16.989729893370686 17.79699045197131 10.083222678793044
Pb 12.772006900591055 16.574010258944366 16.89720490111717
Pb 14.320548096592615 16.633089477759054 12.099313040992488
Pb 14.505412697790492 12.39895541491959 10.567214675042099
Pb 11.440822472067497 17.89138517045001 14.013980043325203
Pb 9.921504780682538 12.498839470046734 14.86684780238338
Pb 12.387888295155753 14.585634158387418 14.118903838516879
Pb 11.604457078760372 12.017763700753374 12.149188378097099
Pb 13.446348989373286 19.999290157227104 11.97689263340428
Pb 15.724480652947237 20.766698230160884 9.827402318103479
Pb 15.04884797557299 15.393762586718543 8.960544917649532
Pb 12.002557701871003 14.70551891843096 10.27226874148647
Pb 9.489995315500554 15.808496541604478 15.470233789143059
Pb 8.569050464454014 17.98607346464938 12.863615636961498
Pb 9.444832015025128 15.01636389999457 12.343770146382646
Pb 13.785686724611038 18.326175658995126 9.159792246262898
Pb 10.910961540130089 17.733086433689007 10.733957000048914
