44
Energy = -145.45354696 eV
Pb 16.329476679306282 11.888239439069425 10.29273433124254
Pb 16.08024167179927 14.308965988403845 8.024394812339084
Pb 11.921749874693957 9.117729046961392 10.572860527600298
Pb 13.423212988027057 15.921045820212756 7.207207751421911
Pb 15.06604394882912 8.956936507681284 11.339204900732794
Pb 13.166204780424708 12.741116032346879 8.287118943694907
Pb 18.303822941053582 14.760441440902296 10.449105915560322
Pb 19.08902981470633 12.0215643475515 12.21362366694963
Pb 10.254425747753876 11.79345854643084 10.050300588449815
Pb 12.996237095258321 9.06614851658728 13.764027967672183
Pb 16.755101925602503 10.808738769610635 16.891585735125982
Pb 19.002535163008165 12.869505217029532 15.43250645787704
Pb 15.702949276703867 17.371666651426825 9.193923410544329
Pb 13.960806757412554 15.06932779259426 10.577633970128684
Pb 10.916283498754137 15.02990227929285 9.202801847696414
Pb 10.220878267849093 10.509345403572597 13.075526222213545
Pb 20.078323427334745 14.982247753555134 13.09976289002972
Pb 13.228999544472424 11.839009459697193 11.793925703461069
Pb 12.471498016564876 18.01809058120756 9.353258645319533
Pb 16.362426012153367 10.695310720673708 13.666356837931486
Pb 17.630970334006996 17.199431455864772 12.69783654222957
Pb 16.63290787893095 14.09699592537092 13.211942070052276
Pb 13.699540896120645 12.06434362085986 15.076954562956601
Pb 18.609799585008922 16.15174460970853 15.71170773557301
Pb 14.218011655212116 18.064050532880096 12.229490852906247
Pb 13.185691843514773 15.216943577090115 13.990355548634874
Pb 17.03543295274174 13.070048573740452 19.390589014781074
Pb 11.096474054730757 16.873427204240482 12.110312670678493
Pb 12.037613546015933 10.377152944817217 17.154015824077252
Pb 9.896387364474633 13.74852054266711 12.521916223145167
Pb 15.975631224759692 13.934004502601981 16.45769570428846
Pb 14.406926692090536 11.270592478100097 19.08668972483534
Pb 15.541925467146045 17.236738473486263 15.500805152250193
Pb 10.143928340160924 12.54777298701383 15.709617867360997
Pb 16.56371626859194 16.153257064651807 18.650831452099588
Pb 12.563051907885365 14.887272884329002 17.418317807653736
Pb 9.9274741033774 15.869728594694546 15.200820431770273
Pb 12.462262586189729 18.073381568940214 15.61523034625601
Pb 11.447545898861481 12.584402955633871 19.66830779880983
Pb 14.256554825034346 14.417974909966462 20.553610519772565
Pb 13.63270359486999 17.641667655543923 18.954085812192083
Pb 9.275646954708874 14.610656004112036 18.21721034879935
Pb 10.450942205718267 17.57271248842671 18.06967884691805
Pb 11.314209916532516 15.7722433965439 20.564709260482513
