47
Energy = -155.68303517 eV
Pb 12.619899240550032 16.910720902812827 18.79982962888963
Pb 11.426531401795362 13.570799550188545 11.907893191746464
Pb 10.348553899303356 10.437761712469044 13.637358657757858
Pb 15.241981961720002 11.499528528984495 17.62754814934233
Pb 14.744211765572022 16.26518700127927 16.41196505973641
Pb 15.491322102450583 13.96285685328024 20.728086772588316
Pb 17.87542514491041 19.24225905422344 17.62889846876369
Pb 14.802792117852029 19.02695292156948 14.318991038761594
Pb 13.426494030855013 12.734139752589059 14.722137451862253
Pb 9.61377409971743 16.87213707623235 13.7572879992288
Pb 16.52705890880297 11.77048174213891 11.724178022188294
Pb 8.365935530041508 11.973806064604002 11.51929637702263
Pb 12.005829801983156 18.535905289753202 15.953737048621056
Pb 8.001453404829116 15.150926782443936 11.559529285068596
Pb 18.316092054594854 16.518933741285124 15.651990012485191
Pb 9.663851392799865 13.746508585136953 9.10387922630797
Pb 17.81009020097844 11.823618214588342 19.986517409736436
Pb 17.201785493157807 14.406210954763143 18.015495626662535
Pb 18.365366661772022 19.509860880250432 14.220792834982417
Pb 11.020041669002964 15.371504897429128 16.31402664324199
Pb 11.001071241442789 10.628401744246084 10.329363269336566
Pb 18.58895716278945 14.748216198552594 21.133557108937996
Pb 19.881555101464667 13.534747368963819 14.49619116779913
Pb 14.619086721476576 19.279419917833966 17.780881476957752
Pb 21.57656405990048 15.756548047560297 16.14165235862175
Pb 15.617866122937468 14.674582311173932 10.496766319093707
Pb 11.878710516170328 19.05108432677219 12.686017919892967
Pb 18.418858551583167 11.581081203311836 16.694651995413533
Pb 20.318977741881508 13.536914347470418 18.641473280859472
Pb 10.5307310269628 16.88060687020714 10.521158914471147
Pb 13.002209500200943 9.63224819435519 15.60116345197685
Pb 13.140921790685615 13.742656529474132 18.355853143408122
Pb 13.496011143885664 9.920243434024997 12.344674033443319
Pb 8.970349152114888 13.463382277002758 14.392490134143744
Pb 19.772654264397463 16.86699216448735 18.871652025829892
Pb 16.418679644398694 17.11324019897227 19.846522345379057
Pb 10.905022442130171 11.970147810855995 16.640665167158875
Pb 13.188540850335556 16.07641395705499 13.542990497214033
Pb 12.633534496315171 14.956714486215194 8.960123986257905
Pb 16.90541695968305 17.160004793554755 12.43114070057207
Pb 15.968591332471597 10.36559677875245 14.552998149224868
Pb 20.804596493869184 18.82023187290709 16.12103381577244
Pb 13.907001786939354 12.036034398764848 9.793010005960662
Pb 18.65333264421845 14.52618680811089 11.754038094300043
Pb 13.983946761516307 17.463348860414037 10.732523495379743
Pb 16.580213588751228 13.821629677729863 14.347484809270522
Pb 20.457965035059647 17.153081931480777 13.290340444602
