43
Energy = -140.64504736 eV
Pb 18.614871146233554 19.318412201329515 18.848502546328888
Pb 15.749665156473974 19.361847550940062 17.323585830846216
Pb 16.43339674617482 17.754442683025754 20.39834317348969
Pb 14.090987905545125 16.24757423501544 21.584392733790104
Pb 14.028365459873033 21.00862263842482 15.06209771649525
Pb 18.62667949939939 16.053827175266104 18.584702908845514
Pb 18.518488430947993 18.03465199035032 15.915927532554239
Pb 12.943437310287438 18.089227348903613 15.388250136844661
Pb 15.693602860599249 14.690209054895966 19.273918164952498
Pb 13.47529865313427 17.46597858452407 18.712986360590868
Pb 15.90434234865321 18.739157305350567 13.817038809902344
Pb 12.384418674937454 14.372769987750353 19.250543668080923
Pb 15.791909825133793 16.062265373646007 16.14411412669352
Pb 12.94138436028793 19.51172255093238 12.330294504893834
Pb 19.230684198833732 14.772039438886258 15.5743022958049
Pb 10.796070971457224 16.105530680663186 16.874606941265768
Pb 17.52716576720474 12.682627803000855 17.318047627214103
Pb 12.192978878687398 11.248128465861528 18.20917786272978
Pb 13.813621467416146 16.087803458320586 12.789453942884549
Pb 12.401610400309231 13.420308598931111 15.670796859143165
Pb 9.594311487754208 13.278591079521483 17.981637017936748
Pb 10.681304150827083 17.10478957081456 13.155456185306525
Pb 17.78392552895883 16.15883844004777 12.89130524592859
Pb 16.49056987079003 13.371954137895242 14.083949605591163
Pb 15.219940037980201 17.83448202289395 10.510253999970214
Pb 10.036341061958943 10.998736690278418 15.847031998055748
Pb 14.848665944013755 11.373806153594161 16.3663945585286
Pb 11.996547858146776 17.49289952791278 10.068446389751795
Pb 19.58315937686233 13.322535431164809 12.601525778863554
Pb 9.281770506923365 14.027687911674835 14.782428468883003
Pb 18.500788944151402 10.895926605375976 14.594876984747188
Pb 13.975712827610693 12.664790546999434 12.112945744537726
Pb 11.132751038631268 14.502626701701544 11.112577309368714
Pb 12.931874512456366 9.812647945501267 14.358642755958186
Pb 17.007473743479345 14.108567188086804 10.50326207032602
Pb 13.970258559904801 14.99265801865696 9.348001562118844
Pb 18.124661920123515 10.899233909144183 11.306541565051655
Pb 10.729111397351444 11.751094415004792 12.743841559560844
Pb 15.970228110849089 9.290156209344698 13.325987154389459
Pb 12.384818879547176 12.020864167393558 9.24803088120599
Pb 15.506989877647287 11.489575677969533 9.197731626137426
Pb 13.356244258186884 9.598239407300822 11.129304645342947
Pb 16.323281272051155 8.571862343499205 10.248454376882872
