48
Energy = -159.31118395 eV
Pb 19.18270733531462 19.78848941340293 14.415419227693445
Pb 18.776461600127032 17.545278654851884 16.743694699277984
Pb 20.14154040826669 14.73661561615247 15.865297884730872
Pb 19.329745188320462 16.725922117265757 13.356161120681685
Pb 19.34153335195501 13.113207337625454 13.169924438732856
Pb 17.341836422115502 19.240147949934325 11.662677350082378
Pb 16.827084689920177 21.783485029784394 13.742850742379874
Pb 16.904518907139277 20.377257110034936 16.93264768854213
Pb 17.470629500195717 14.64355709282158 18.050745759630747
Pb 18.20610848336598 12.039252654041988 16.06184151148272
Pb 17.22338908312635 14.978778224863465 11.512150994369005
Pb 15.868861270290601 18.483583663214553 14.516477747010397
Pb 16.086344991569245 17.495643089594306 18.566770137189504
Pb 18.396411806929585 9.956868701481069 13.482078624206169
Pb 16.795279801008334 15.035642215876914 14.922621111427896
Pb 15.951443179812143 12.220448873108552 13.40374863572798
Pb 14.476788963632897 17.18465939833577 11.721396840777786
Pb 17.61246867603519 11.538885073406814 10.788883233302036
Pb 14.088007207032764 21.29670964567653 15.338822905045967
Pb 14.366888257817193 20.562861234070652 12.088242195941113
Pb 15.091127485694617 11.798853854559821 17.314870758736173
Pb 13.435894868915678 18.31075725695771 17.018210897642803
Pb 13.978264066342732 14.827470995040368 17.780405967541288
Pb 15.037559717512407 13.323208195516067 9.63304400599905
Pb 15.415352751634066 8.638806244520186 12.401606017870707
Pb 12.578978967048496 15.564054937715095 9.219252446407278
Pb 12.747813511415636 13.571622196023947 11.938288872044433
Pb 12.562808923982843 11.592662867283995 19.28763988558697
Pb 15.921286132684346 9.118380383679852 15.615557779177465
Pb 11.098643920827493 16.882332409221966 11.77975835226484
Pb 12.301903354517256 18.932741748555845 14.069911416404555
Pb 13.363226888600218 7.274844168007963 14.639704977187582
Pb 10.668815316553507 14.053905410502997 19.249811907713845
Pb 13.175173032700078 15.778836166408482 14.573123618598766
Pb 10.778323377083419 16.275814738763756 16.90267688243185
Pb 9.85003323107186 14.267608615296355 10.455542645137639
Pb 11.651359621587593 12.94452823503717 16.185252062304393
Pb 13.155573229422853 10.615487984555346 14.0645393073701
Pb 13.712290198982561 10.418545600879701 10.24963410520545
Pb 12.764790623296559 9.16374848838934 17.221700027802427
Pb 11.941079759413928 8.224084191785986 11.954685952613648
Pb 11.811379853513762 12.477322012769465 8.747554613598258
Pb 9.634743830443256 15.07374426806104 14.090915636624363
Pb 10.465525737726576 8.97391940406009 14.812548548200093
Pb 8.364961014223617 14.024164968799251 17.051015869785385
Pb 9.564317641975595 11.072215910303875 17.817679157414897
Pb 8.815412908505156 11.945115144632169 14.624952631167014
Pb 10.462835572605732 11.134442058271219 11.747952345090976
