42
Energy = -138.28035602 eV
Pb 18.052440517897445 14.837922615305299 9.370313022004096
Pb 17.681661657223003 10.908787725863208 13.695389722158403
Pb 16.29720724014518 8.903077976738187 11.375092012525606
Pb 18.438351025208686 17.20213608669902 11.585055093178463
Pb 18.360039510232422 17.779603262019922 8.541070585709308
Pb 17.926001298860243 13.369105395787585 16.231180951534505
Pb 18.8272642831634 14.080357310182656 12.56336564045701
Pb 15.512635784917013 17.14366581561773 9.735623525042932
Pb 17.486040037934867 16.28955808596615 14.696088611053666
Pb 14.514715531911254 14.021709536703861 9.338252708872423
Pb 16.989649097294265 12.11077241185197 10.591162219008151
Pb 13.249433579213811 8.710677541116938 15.921976738862256
Pb 15.604108099072295 14.81604797906424 12.330313747988793
Pb 16.013615033465193 10.554179170085883 16.601182540328793
Pb 16.535117065916904 15.910401134434222 17.918360334905987
Pb 15.513278047884048 18.241214393800405 12.96338057028196
Pb 14.774049651133176 13.933124642693597 15.761266316316352
Pb 12.87108149423262 18.718789913216384 11.12170288150993
Pb 15.935236558026695 7.938842939734449 14.29039427584494
Pb 15.989143916041014 13.005881179262255 18.920777417921336
Pb 12.288990931927822 13.18345807539801 11.948027202510714
Pb 11.61928807670969 15.785910498967192 9.978155196996381
Pb 14.44734933662153 17.533840054317608 16.01558117981091
Pb 13.884833893226036 10.672860511498742 10.04819702588856
Pb 12.230012507122273 16.24653555216073 13.29193682714932
Pb 13.245619894094876 11.549583331484339 18.344107968424854
Pb 14.457374293916715 10.92233341341276 13.438626106993722
Pb 13.240471638274302 7.968165047926733 12.5150856498389
Pb 11.568167053901929 19.321936633361748 14.084725258040605
Pb 13.383914795142523 15.07632516409554 18.395328113411182
Pb 9.158571192220684 15.042085242840292 11.855452635563779
Pb 10.255280663556254 9.091101225101053 14.348959241998497
Pb 8.845693181770836 17.44723383634111 14.300664549464697
Pb 11.61802180192148 12.11563901521315 15.158460876603627
Pb 9.795886710554454 18.2462963788102 11.428072775429587
Pb 11.24201808245535 16.923006129592782 16.417924326152423
Pb 11.021660090663563 10.031065139908153 11.188675999111682
Pb 10.619121962944405 9.855439854027052 17.599632910665107
Pb 10.317020098884756 13.204991379165136 17.929644251477946
Pb 9.022305562816396 11.83105440879931 12.917162060696999
Pb 8.95834465897065 14.338175637707765 15.234913302981061
Pb 8.283361581495727 11.211485792693695 16.083095064251243
