41
Energy = -134.66504884 eV
Pb 14.062728120162536 12.29669919077493 19.044931937253608
Pb 13.46285268858179 18.422845709435755 18.981829053486702
Pb 15.644140015123787 19.899375437549672 17.270270647062585
Pb 16.413544026104432 16.888752586702164 18.706882057718264
Pb 13.468664964657732 15.311782643018834 19.536352365583987
Pb 18.033556829413325 18.28782500943545 16.13026279256151
Pb 18.237506202091183 15.03250767854095 15.635483097048263
Pb 16.35060630997347 12.703219147156632 16.85545916430517
Pb 18.906451717634084 11.788198253770883 15.077128573088627
Pb 13.220445214374044 10.361909068827636 16.64992661951744
Pb 12.707989558176436 19.329123595874524 15.834509430137196
Pb 13.204717864490869 13.909700334148548 16.24231962110801
Pb 11.03027661601121 16.625011168038174 17.795495424930287
Pb 10.974687270105079 13.301288846038622 18.45606850888418
Pb 17.54707984194877 17.07434182378102 13.17774804593788
Pb 14.918307053560097 16.77389359740031 15.900817215407505
Pb 15.422822269754468 19.466933644767533 13.996640811902385
Pb 19.103847832019262 13.976939450627746 12.530048117990862
Pb 16.062057701573035 13.08850797408556 13.508069182487983
Pb 16.158258926986424 9.98239220698793 14.897911147069472
Pb 18.254843885103956 10.598120600746832 12.30427372409537
Pb 12.935010567937093 11.698719432239841 13.641867964921193
Pb 17.39280030516075 15.954263650932848 10.189242282407292
Pb 12.43435591031194 8.427392354688179 14.058557205804519
Pb 14.91772921931165 9.039176344996111 12.045264809001127
Pb 17.20215754587362 12.782911229604993 9.956332509693283
Pb 10.241033448458888 10.681327521681984 15.655071531761932
Pb 14.872267880067897 17.6638521235767 11.155121504630083
Pb 13.023496467045774 15.316665780393674 12.827301392041772
Pb 9.37681566195944 8.920338644418402 13.17932090898885
Pb 9.924356250813334 13.954889855871535 15.410251442326908
Pb 16.875983918456622 9.632040639478806 9.675115855438813
Pb 14.533710862190752 14.694155011334727 9.243225446930524
Pb 11.699261774462345 9.943706626067128 11.160824019349356
Pb 10.469980464547106 17.047096209514436 14.703112331202432
Pb 14.205986686462227 11.379455611809965 9.468188687678193
Pb 9.503718980639142 12.124008051235196 12.746999638544239
Pb 11.95654758271 16.60717160247052 9.818624429246313
Pb 11.711446936342739 13.329797813119537 10.431214492213238
Pb 9.792998945460107 15.478070222453024 11.985646934350488
Pb 12.070585807067697 18.531223429528342 12.441919199019015
