44
Energy = -145.30220704 eV
Pb 19.69715926619738 11.492082356789187 12.096212762046118
Pb 21.17091667371925 11.674642762628531 15.09050464073086
Pb 18.64442527594116 9.592539996306447 14.637415864468677
Pb 16.591686743995027 10.225907055484315 11.956851784253196
Pb 17.45742725762196 12.071650363311715 9.461564277651037
Pb 18.92023363375609 11.45939799339229 17.43070581329186
Pb 15.174546054490955 9.808582625175474 14.878367041764653
Pb 20.60420640585548 14.394581361737393 13.410422809293083
Pb 17.957837878862016 12.849270560583971 14.733261087337835
Pb 17.23070487174908 14.144364376424724 11.881596342960478
Pb 13.289329814348388 10.020395875989244 12.188882593616194
Pb 20.2346130026871 14.381094432032459 16.59535226731708
Pb 15.524827865805964 12.211370091592226 17.005782286739702
Pb 11.029876444606638 10.18705806822444 14.542332047254064
Pb 14.227592038488222 12.206878778231797 9.886960383360105
Pb 12.298161049664209 10.476913530247394 17.57543517461281
Pb 14.566134463511482 12.73945875092424 13.594095426064582
Pb 17.18265202423609 15.047446446595798 17.699883114455968
Pb 15.86120257494796 14.825595246959299 8.823582610763939
Pb 17.825031212866225 16.3248504227393 14.531908933642198
Pb 11.522790532370912 12.7761572155284 12.216785648465596
Pb 11.374260925479273 13.099829583617177 15.890209181417037
Pb 8.993008021862446 10.558950069515616 17.02637002200971
Pb 14.035410585045348 15.512541618794817 11.734289475100782
Pb 13.37255400313719 13.625057808912901 18.90951467710251
Pb 8.580806965019486 12.245714215572477 14.163168603006193
Pb 14.22981006547813 16.7122752599012 18.85895080301696
Pb 10.370102975634133 12.571086410760461 19.17526538250462
Pb 14.455963261692778 15.426031650012611 15.849786269587963
Pb 16.608764940878423 17.326112245123543 11.199146540213652
Pb 14.238363176188239 17.5718853536912 9.030846864440766
Pb 9.580278825761196 15.239117654173823 11.28034342883905
Pb 16.287286343482346 18.125258193224024 16.879514299729372
Pb 12.427922338209676 14.840461076605735 8.989594657352045
Pb 11.616720173967078 16.179678232184504 13.900932277224248
Pb 8.232741022393355 13.69914561372225 17.044880575679905
Pb 11.602387662218561 17.824229963500407 10.71588251067581
Pb 12.997908895952659 18.738762945082694 16.62322788794659
Pb 11.097580622696649 15.809980204597508 17.648293834087347
Pb 8.328529571393013 15.69335142761738 14.329312522390905
Pb 15.152977052658859 18.556915747790963 13.867427334873572
Pb 9.065588004503176 18.289808146775147 12.489601239682722
Pb 11.988819140061976 19.54596575916549 13.563331717577986
Pb 9.796493020177202 18.279542138897728 15.692359527201342
