41
Energy = -134.86155776 eV
Pb 15.882142890642516 8.44559412489399 14.599010462981065
Pb 18.46889845229618 7.914721483045402 16.30248511082746
Pb 16.141482606553417 10.808561499300676 12.14630582909825
Pb 18.582045233524372 10.343889762169237 14.420610263741386
Pb 13.24326049185898 10.202126563986111 13.429726278325427
Pb 13.57616484696992 9.756963883271498 16.78878350279209
Pb 16.697847601495887 10.177486418877088 17.54589703350829
Pb 15.409994964366472 11.998409275140121 15.107852970116049
Pb 19.23853909302709 12.365399093551341 17.021153487071523
Pb 10.682415732251183 12.259487538836227 12.443016294371866
Pb 14.17991471337547 13.145758512127882 18.00425869236406
Pb 14.917477046722421 14.169021623614892 12.543620407551417
Pb 17.14846906189053 13.251928248062354 19.388393520038022
Pb 11.52653112189803 12.234174448840076 15.556755730920283
Pb 13.235812420937005 12.44226921988411 10.616088695148967
Pb 18.208069655371983 13.320936312529826 13.305094497970394
Pb 20.20712832825299 15.1655214028185 15.581341234551358
Pb 16.974530714314977 14.83882469775543 16.368819580185107
Pb 16.787301932960993 16.34403891647664 11.190570543170152
Pb 11.04617172106955 14.953860162967706 10.566344448283228
Pb 19.557322814826545 15.2281060612294 18.768897763898455
Pb 18.380293889194512 17.261731735865983 13.87943536576358
Pb 13.305441546616327 15.038136921327846 15.260565243693089
Pb 14.114271143109635 15.505135483536657 9.427451926115268
Pb 16.2811560696078 19.42243745191473 12.618583842356182
Pb 11.372319901252029 11.612373131126366 18.745412037092063
Pb 9.587123503823506 17.394920021622863 12.097182241202754
Pb 13.403576255596251 17.483804777132583 12.484383320125032
Pb 13.13498969235185 16.548796487638064 18.253253380703065
Pb 18.579524948361623 17.726531036665264 17.03715137350187
Pb 16.441916388906396 16.551927990119314 19.12532969666215
Pb 10.140367762161945 14.997306054998603 14.06874902459059
Pb 15.16334502285144 18.630099962927964 9.575720702338867
Pb 10.562786148167833 14.730150650019686 17.556126792425264
Pb 13.620465477860922 20.850277076418436 11.262839720662022
Pb 11.871338559864924 18.25519236875443 9.740652462072108
Pb 11.351695520324933 17.774540899696053 15.37018328694879
Pb 15.410510969111844 17.640008443886384 15.543948626435393
Pb 12.168134363915378 14.188034432785512 20.253962608086706
Pb 13.723306587876456 20.320686698123374 14.522144819715542
Pb 11.006440300243957 20.031354621867532 12.812422678400711
