48
Energy = -158.97798263 eV
Pb 17.38588814147131 20.729104187495157 14.782327388571286
Pb 20.371843011810302 19.26768657585909 14.055905462949767
Pb 14.592176150941436 20.603026286290827 17.903963434754033
Pb 22.12463780555934 16.233809314260082 14.263565485279537
Pb 14.942580614634782 19.214630386826332 13.371346767969422
Pb 18.16322082092642 19.692332863558125 11.858958005402904
Pb 17.60800951648234 21.535460837697954 17.866187684949217
Pb 9.20756102278328 19.02623420944105 14.83486651947456
Pb 19.583987141796875 16.72670309919299 12.131808058089112
Pb 19.330578909464286 19.022819009948968 17.063868602003804
Pb 11.34834817213246 18.94079977359407 12.5188525576373
Pb 12.348492764881504 19.85932876572858 15.534242678546466
Pb 16.960656445897342 18.689935028330737 19.3222494372971
Pb 21.271852104735313 16.192796957541645 17.412990010713848
Pb 13.926879740364667 18.75858449372806 20.410802974900278
Pb 17.45617423196569 14.074134138048773 12.295918557585042
Pb 14.823581862076129 14.24802730074164 10.438425772040231
Pb 17.454490121545327 17.376242750242454 14.498412892841161
Pb 16.21140719760229 17.175258380128327 11.13297295074325
Pb 22.926283728217342 13.66126333062551 16.054783647832473
Pb 12.377763107618614 16.26982964936097 11.244561052860751
Pb 17.84745180680001 15.913457310460558 17.515628828644516
Pb 21.553307005818677 13.204715785983952 13.083754689545168
Pb 11.819919870189619 16.585791084429577 14.800647257928409
Pb 9.337487834273675 16.227840601944656 12.80511214375535
Pb 14.329793511723022 17.4310876623789 17.279513635117425
Pb 15.645279184830281 15.840047046892238 20.23571825168008
Pb 19.579529427289888 14.242360428197072 15.237983945648216
Pb 12.44455853842675 16.01283192618749 19.894031587863306
Pb 16.267663694211045 13.100810358854298 15.550427411181122
Pb 20.41036696222182 13.157145690731099 18.229107954093987
Pb 18.23263618763609 11.05677327474146 13.749140460549388
Pb 10.758521490764268 18.021767866739527 17.724516475142213
Pb 8.56416296481851 16.151336162723762 15.956445572163624
Pb 12.133738701985495 13.219473526700682 12.352748839477629
Pb 14.663393933708488 15.30607228171475 13.573128579696045
Pb 21.04953112845023 11.163447823649348 15.622331855885355
Pb 13.326449337782092 14.127799366081257 16.904537181848102
Pb 10.137568125846679 14.573641501858821 18.27653608522039
Pb 15.046814002431233 11.711627999362694 12.573623019368688
Pb 17.108479308285517 13.065788057469032 19.211036522967955
Pb 13.790778868933868 12.974008319942525 20.033502210045942
Pb 10.39653918723483 13.419667817410792 15.166561413874524
Pb 18.070836950645056 10.716109777457794 17.058749881897302
Pb 14.697999411238731 10.882906651551982 17.784398097414083
Pb 12.678664884299204 10.945228225630252 14.931346551151611
Pb 15.641608390508566 9.546897627240723 15.010962484310783
Pb 11.506374252374954 11.55922606065789 17.8973666967225
