49
Energy = -161.58720714 eV
Pb 19.470775799233554 18.308676964754667 12.193972014684512
Pb 20.497456485056915 15.385593548580822 13.599901771665413
Pb 19.25777151297072 18.005194392966636 15.286839336457968
Pb 19.40970460575179 15.158459112661646 16.696412472229632
Pb 17.134690559847343 17.78172027449799 17.71402309267528
Pb 17.714778675469983 15.358429714953491 19.94591663152579
Pb 14.65431564694892 16.90175717286257 19.624459009855386
Pb 15.027011495464327 16.48258832023852 12.694517960002292
Pb 15.36741445735013 15.470176097250054 22.271646887768025
Pb 19.761659396113608 12.297803310414784 15.011858435470806
Pb 19.508909200433077 12.667429852210796 11.825663028273471
Pb 18.18687496894482 15.5902778895772 10.986053306793684
Pb 14.425633401424166 17.48559835751937 15.888614056011606
Pb 17.312269249698005 14.191005102772293 14.01476342383066
Pb 17.936519367756222 12.429821110302358 17.9566190576466
Pb 13.247467220853347 19.319948470609738 13.38128771243251
Pb 11.8774358080884 16.069805910733024 17.812557687647164
Pb 15.77794720748016 14.67431318517261 17.249618396801093
Pb 15.51892813904563 12.94838163195489 20.384545700849213
Pb 11.436762593538223 18.83517244285016 16.03601452663519
Pb 16.759699135066406 12.933178553213518 9.832457038501685
Pb 16.610883313812476 18.526458463513272 10.640389535918102
Pb 16.61709429722362 19.233142201075484 13.751955856859919
Pb 12.701300669089498 14.465788571406277 20.69509985758758
Pb 15.16774865024607 15.770556486248081 9.318989087777142
Pb 17.92701200034096 9.652114581700292 15.991229969392501
Pb 15.291351788440295 10.109722213484304 18.288446450997657
Pb 13.08694534235148 18.22829314084608 10.351851404380186
Pb 13.054979346730656 12.564305091751848 17.988976355320432
Pb 17.112007761423865 10.793246970756938 12.870307596108521
Pb 15.105833826998 11.721566858055914 15.383277628292777
Pb 10.122489377772618 13.655703404664722 16.63743029196473
Pb 13.052717565929283 14.485956388747999 15.193906644975588
Pb 14.348290099602313 13.119070854838363 12.216038889030306
Pb 9.024492765161575 16.573680469089236 15.492060441468666
Pb 11.33512710251026 16.102535730326274 12.557386032644638
Pb 13.62250720472213 12.782994538552948 9.078050846837227
Pb 9.871775561886158 19.067203056175824 13.278132247769477
Pb 11.779526659588083 15.42356243418401 9.008063174798314
Pb 15.978441678630947 7.335675927914529 16.962924534324433
Pb 9.822844045794302 17.806136783163563 10.145785214976945
Pb 16.02294270811404 7.878590315170836 13.862746021680769
Pb 13.427401772547707 8.890782211620731 15.674158481931743
Pb 11.652408485854274 11.654103144280286 14.247839616351904
Pb 13.824623599197427 9.826751727688103 12.578188154497187
Pb 8.984412496416612 13.742648402051772 13.563192263860445
Pb 7.780302398440397 16.690468957310074 12.543621478178729
Pb 11.151712474026219 12.505014514863355 11.080441009557095
Pb 8.875602423112829 14.651695389738967 10.322799735552572
