41
Energy = -134.14488241 eV
Pb 19.381148006074127 12.712083367295502 13.499888950947467
Pb 19.972857039503626 16.32537230279876 13.913265199757054
Pb 18.681831846207164 9.73264405944323 16.28217060534837
Pb 18.985142866547296 14.975663864745062 11.122654305502813
Pb 18.21030149353441 12.168010309919406 18.361469128647602
Pb 17.796640926204624 9.801084265226756 13.236866674160396
Pb 16.734040463803378 12.591405473032106 11.426692310161048
Pb 18.99893019633669 14.431118740659103 16.313686932124643
Pb 14.466305189956309 10.60442090473993 12.901848253096063
Pb 15.782890228690864 15.605153641222623 10.376490028678992
Pb 15.515265059503305 8.533000755841007 15.500993632707448
Pb 16.325767142050267 9.611730276734336 18.50046117566504
Pb 19.54286379352383 19.48389574643862 14.434960508607421
Pb 16.743834651180567 15.193177867557402 13.685055714757986
Pb 13.488656276190854 13.734606442590787 12.05643154200718
Pb 18.83005545824073 17.7812566031918 17.13433464645566
Pb 17.838958413944493 17.943329665492676 11.942149868034301
Pb 16.585347700639648 12.101487847796909 15.324233395525642
Pb 17.919064210472637 20.932325239825122 16.64601939794198
Pb 13.19321060950726 12.4537125270282 15.409188900336092
Pb 14.392513879375791 17.741798345118724 12.354265181315355
Pb 12.222198277932886 9.256648495996842 14.888585631593271
Pb 11.15955786996696 11.465097351527927 12.896234131105953
Pb 14.9394293894987 12.815889232668312 18.299608884679703
Pb 12.160303890478005 16.075431157385882 10.212472018157282
Pb 15.87346206110625 15.949638978312388 17.007986390598102
Pb 12.414925596837541 14.96954749601407 17.758062422414685
Pb 12.68408179413213 15.855497637166577 14.412189767999148
Pb 16.11337150863044 19.088913682939808 18.398894841574812
Pb 12.25962531160243 19.19716040050266 10.489480319482453
Pb 13.178215359353501 18.147528992039035 16.809159598609874
Pb 16.371829936246428 18.59869379112705 14.993883542937319
Pb 13.32059448026583 9.963197701144296 17.723547803762184
Pb 9.939422377052365 14.50777239880194 12.08602140768672
Pb 14.420588245627894 16.78283492717254 19.807509885491534
Pb 9.544325786187652 17.69184839692269 11.342622677058882
Pb 10.149034609776752 13.666251639591973 15.385936559286957
Pb 11.447187581919087 17.650929033562253 19.41341690992413
Pb 11.581846523143401 18.901194053438918 13.665331988305464
Pb 9.35690035908827 16.735742490715666 14.389694044100732
Pb 9.425121369844668 16.170551676450277 17.543882603631044
