46
Energy = -152.18833588 eV
Pb 18.982279346132938 10.785888466632452 17.14870086109177
Pb 16.100404138367516 10.223475950624586 18.81356741010977
Pb 17.191740477321904 8.239607521188356 16.46009886428278
Pb 18.712728728438638 9.766586056701737 14.054056867940417
Pb 15.911862635592305 13.523469673391057 18.737914969823745
Pb 13.93283530942191 9.02681784930041 16.534564609894048
Pb 18.95260025300952 13.065197411718309 14.590382307420766
Pb 13.108537854062567 11.683441508488809 18.36063577225743
Pb 16.142283847876786 11.516597843272306 15.708410598185266
Pb 15.529950986605192 8.836968128544495 13.607360986512527
Pb 16.848123422649813 11.661689876926518 11.947712524676954
Pb 16.355619129850062 14.775674468279355 12.970059558479184
Pb 19.37730682334561 14.147460514701205 11.553674456995681
Pb 17.156332373437824 15.419635242031498 16.29247559503209
Pb 10.580466631437863 10.288008377520061 16.529068130894235
Pb 12.075742716716434 9.231448708994462 13.461546209223524
Pb 13.08106614213038 14.86356127783375 19.17757746115107
Pb 13.867357929050396 9.916198632141134 10.837954004641226
Pb 9.863327807803625 13.188552609366344 17.976692924575158
Pb 16.83038997822398 14.040235551425983 9.576703262579949
Pb 13.807336470943739 12.016621375713617 13.292010056181898
Pb 19.155872389190527 16.540985821875566 13.834127504365947
Pb 14.578023761473236 17.33174796960521 17.015281539864123
Pb 13.999886310253514 14.165794604951815 16.06588357261148
Pb 10.838709246423223 13.019938188717662 14.697777636105267
Pb 7.714322528571321 11.90790760180042 15.843412351019873
Pb 17.654566133561477 19.12198366955633 15.897019603159956
Pb 13.663469030784645 13.041469380485761 9.988815158944444
Pb 11.275337014508095 15.980661196151985 16.718845530116365
Pb 13.069953365203549 15.65701854730465 13.173176618308371
Pb 10.849169497866017 11.50898532717673 11.111124466748088
Pb 8.979922417964666 10.267004234946736 13.48046175224801
Pb 8.223876803887661 15.037374954321399 15.771658191156499
Pb 18.671010118897044 19.471005043783702 12.64787656612442
Pb 17.961468112456135 16.95369807385951 10.66520983790611
Pb 15.462290516760511 18.172324087049326 13.657764513631736
Pb 9.903001781411957 16.375183120042326 13.29760826641013
Pb 8.296108424319536 13.408461507938908 12.701547440909346
Pb 14.657236577508021 20.491335960778088 16.086882293888962
Pb 11.041233501289392 14.839149145166651 10.68656862036799
Pb 16.638066256252827 21.54790556828139 13.762301199112503
Pb 14.48417398562538 16.291300001643666 10.11715064035164
Pb 12.12101752678718 18.663327260851766 14.838330331791918
Pb 15.743933110342729 19.82143152872055 10.905697246741651
Pb 12.562057416184867 18.45821627972799 11.4794842218203
Pb 13.536767153852377 21.111350889178453 13.083906047947277
