49
Energy = -162.70164687 eV
Pb 18.267024937794435 12.52944446687881 17.491348563952684
Pb 16.164368715765672 10.82351426879988 19.632129552169626
Pb 16.220417432797195 14.0268084414248 19.70470428086614
Pb 15.48888170244107 17.11474936161948 19.28857519534898
Pb 13.538618178126287 15.18118775173209 21.298638184394214
Pb 19.050784372976043 14.198296865329167 14.459524511390114
Pb 17.027787345873953 9.422485212246773 16.98157603229787
Pb 13.256285126252795 12.35024351059757 19.771113434649536
Pb 18.474138634622705 17.851516580587006 14.64559627414305
Pb 17.777645648391943 11.082121746088006 14.336816979856858
Pb 16.629580629330672 15.403400569409145 16.442064950697063
Pb 13.374764963306264 9.216791089577097 16.843389747090548
Pb 15.073309208673221 12.164503353312444 16.6568194114815
Pb 12.274307207903599 17.659280814933364 19.60958785609478
Pb 13.459961194633218 15.036176570070824 17.822098450226445
Pb 16.795646103228535 20.70150878799842 13.856382434771971
Pb 18.26015210464579 15.690522143927875 11.63748583111796
Pb 18.498523987599707 12.551889050403904 11.532471068590636
Pb 15.930182826157973 18.914692688852416 16.37959111192204
Pb 10.631648430211813 14.739557981687929 19.414385992197577
Pb 18.02098193354201 18.918904117956895 11.546347348648343
Pb 15.474437264732234 8.531461007132167 14.157802183403831
Pb 15.871806196784021 13.776623157357738 13.532807410863878
Pb 11.588261931002904 12.276731483571991 16.77181850545919
Pb 12.344431398374013 7.504063531285563 14.27123308826379
Pb 12.59973489601881 17.78854454378376 16.192007223741346
Pb 15.476618656495168 17.377821371426574 13.35944663332225
Pb 15.570150770811841 11.194757257374711 11.396260704556244
Pb 9.629422967551088 17.440058730789264 17.76650000483856
Pb 13.095358799306265 10.922722400960268 13.906963328359037
Pb 17.436981848437377 14.241518119016495 8.679811347687291
Pb 10.196913736149147 9.670736078658122 15.368921239355526
Pb 13.693260562777597 20.24316031008161 14.251606276087724
Pb 9.293100716751187 14.531493875064161 16.320946322754086
Pb 14.871849964003314 19.7901405508877 11.164276394586004
Pb 13.61872459506511 8.540486807907229 11.466123925873442
Pb 16.45006774868094 17.327066022216528 9.080951429874279
Pb 12.422875637359216 14.839200523653536 14.510918171795252
Pb 14.632887123221685 14.840948052129624 10.520386189151687
Pb 10.607292642189389 9.41686531424849 12.149637999900925
Pb 10.087508565935531 12.454060971377745 13.5332502790137
Pb 12.281100557115332 17.878452027444474 12.447471639371152
Pb 9.864467702204069 17.026099629198654 14.560516379445493
Pb 14.793632804832697 12.437177164145046 8.239229144777704
Pb 12.42259994660019 11.88816708091415 10.72300535576007
Pb 14.720163882453836 15.432149372380767 7.0486304479632675
Pb 13.15118978721237 17.450884893238033 9.120449900017768
Pb 11.165209171848451 14.904430106598625 11.432896881910423
Pb 12.05382726756099 14.286464136599442 8.358131778456272
