49
Energy = -162.12007448 eV
Pb 12.877433257832893 12.404822211723738 19.71306531735052
Pb 14.45108953508469 15.23545341044107 19.547508848436543
Pb 12.020685027939617 16.99058462837434 17.651705779220695
Pb 10.590222339834078 13.993294408907731 17.79593937355156
Pb 16.088584622195338 12.367425450654299 20.252703508238994
Pb 8.704976155035311 15.116954299466695 15.549323915727197
Pb 13.517262777702998 19.247097255024432 15.962682594740428
Pb 8.378916014869805 11.768119458273615 16.050305040123657
Pb 10.680027581684481 18.034277417101787 14.809268619336027
Pb 17.506411684651447 14.755754077682589 18.50450174150856
Pb 7.603538662844615 13.167741792767137 13.083397837865034
Pb 14.738454481784082 10.103235205675755 18.334430986750924
Pb 11.896594524590094 11.452910421494545 16.452358196589923
Pb 15.132861694644536 16.33138668810104 16.277070892168926
Pb 14.82716545807053 13.063364472037817 17.094146178544186
Pb 12.201055741428439 14.893067617047066 15.054306267444368
Pb 10.05957061353826 15.639884640236744 12.72428957952619
Pb 12.69265569099814 19.905458267374506 12.953213805459601
Pb 17.73651779337584 11.532061663553069 17.524779467554364
Pb 10.580277553359563 12.00223967692783 13.512809534983065
Pb 16.270305285836894 19.34218662910907 14.38397396432861
Pb 7.812688053075427 9.893452679022753 13.286778942958748
Pb 14.294071213358976 17.026846892904118 13.046048491090984
Pb 10.015894295575979 8.905913814376293 15.380657386516269
Pb 16.08842475411685 14.104024440134403 11.900119263014291
Pb 13.381310242405034 8.916031709612101 15.260373041705384
Pb 17.046535137647822 10.484162644828961 13.871982468345163
Pb 18.558266306301626 16.833601644228825 15.71451792125425
Pb 14.086505773312185 11.799132563902285 13.505255270938134
Pb 20.245094404925695 14.19814559964946 16.708109631336143
Pb 17.390332546411365 13.708480645856246 14.971609059731865
Pb 9.189834245825883 11.411917949832254 10.725690477984614
Pb 15.566332961380098 19.6195038654181 11.2433648736142
Pb 12.601059221961382 18.196150091988883 10.257932674047543
Pb 10.221883672413325 15.939352917113082 9.436287887928495
Pb 17.799685892653148 17.3338145923413 12.515886718968542
Pb 10.74867905740215 8.872933611471074 12.235167156963817
Pb 20.24241836860614 11.812889380292633 14.707594595573703
Pb 14.213235699925564 8.691413046522326 12.217438043336374
Pb 12.834988323785923 14.62374771341382 11.07462969951209
Pb 16.01978331975785 10.817898573413272 10.724449267873133
Pb 20.31255585722336 14.902146276458431 13.517304764472671
Pb 18.98733577706829 12.150334437777904 11.79238206389281
Pb 12.657738359527857 11.11933054495809 10.591911039412905
Pb 18.79318138145928 15.05081259236964 10.512460382628626
Pb 15.709786686019289 16.735910212481564 9.628238177838554
Pb 11.540599532083592 13.329370819738246 8.347032105664095
Pb 13.10382329775549 16.161262096764382 7.851804240462687
Pb 14.900275367732041 13.459516660983413 8.812472286094591
