46
Energy = -151.91335304 eV
Pb 18.780595371773785 14.509866752612027 16.15529370642924
Pb 19.168997970640746 11.24084741607793 15.718973343297899
Pb 19.114922970240887 17.219540447518273 14.062915836077497
Pb 17.879583704472196 12.138225282830838 18.4655731139744
Pb 18.81476352141153 12.8564379510591 12.760922697601096
Pb 17.30056185928631 18.075641572550314 16.8164032291807
Pb 16.244742521462115 15.049706244224847 18.442756834354736
Pb 17.87592348658607 18.271282188457146 11.297130678586349
Pb 17.148788967046624 19.74667630498576 14.070372730747893
Pb 17.245468770512712 9.882918169670539 13.43016105680481
Pb 16.245407050599475 9.806056068453415 16.709460682277786
Pb 16.085759814802476 12.908066952299754 15.680137708019188
Pb 17.68938943987601 10.801686330372025 10.379839438361897
Pb 14.290328559543955 19.270728233113925 15.530241884060123
Pb 14.672823778815475 11.97726944175575 18.757127759618232
Pb 14.734546236362513 16.085788170569185 15.752662105059478
Pb 14.537063596479175 17.889239116802617 18.607046210966203
Pb 14.596025913884587 19.09810120160318 12.000593583492748
Pb 17.37958622500885 13.975310036639579 10.03549024512971
Pb 14.576928399806937 9.461886669809278 11.285147053975832
Pb 12.75451358235775 15.155938899286435 18.740935000371127
Pb 16.61564193901675 15.703645411761478 12.880398349859977
Pb 11.961751037686012 14.445131198338917 15.46933871942869
Pb 11.343460808444737 12.186544322426917 17.696249703405726
Pb 14.939666397709638 12.02964983244724 9.161683767424043
Pb 15.353125458923397 16.656122512637758 9.841925599850615
Pb 14.368607596195488 8.25475732014577 14.35965817536953
Pb 13.288945827800038 15.872221818410186 12.325124711168709
Pb 15.416369406101866 12.58086761264949 12.284798458825222
Pb 12.355536413713251 18.034061645863027 9.887625885936759
Pb 12.925819600329497 9.27686388380126 17.156622474325292
Pb 13.1352781754559 11.251615853806417 14.635687342810678
Pb 11.635721595273608 17.56015282756373 16.801458273648375
Pb 11.563199366874544 18.45087796761923 13.119450561932993
Pb 9.608382449298597 15.144876345799451 17.822775734566946
Pb 12.420732327976882 14.487604577927446 9.401327350676816
Pb 11.73990832879746 10.850311411452704 9.9410248543154
Pb 8.804921089129326 12.900028086645507 15.625539006692117
Pb 9.425388520679753 16.22276581948676 14.621788495639164
Pb 11.345174907258514 13.137704887055484 12.354542724365778
Pb 11.537527183844116 8.988143134010365 12.718131651534677
Pb 9.981106970848508 16.243068850025836 11.035389053611288
Pb 10.152307796020128 9.87684988468213 15.525516225729849
Pb 9.44239512596465 13.115723028313989 9.61187293452914
Pb 8.109377209680666 13.97415799643598 12.537036436485417
Pb 8.984385946900591 10.926493540894274 12.0773018303735
