47
Energy = -155.44118411 eV
Pb 18.93046001751518 17.287638470390892 14.479825800279368
Pb 16.21523305739402 15.321078537165864 9.184695186667664
Pb 18.51907900449456 15.038255180409871 12.076682583233424
Pb 17.968060986943037 16.332167777731932 17.407649542030185
Pb 13.039551015989526 14.994789124994217 8.048513213722671
Pb 13.49443380272807 13.344097325755364 16.338536372261395
Pb 13.019601307319391 19.80024123012443 16.0264169897435
Pb 13.049766961479387 15.36313874182567 11.331220328116082
Pb 12.703427202926573 9.907824320992617 16.885307907549567
Pb 19.578715129459166 14.224587463554377 15.125282135997223
Pb 14.116952209215167 17.687712958127683 9.382366087670322
Pb 7.931380039134137 15.40743826296506 12.256410565601387
Pb 15.994089816621342 18.246893433101302 15.398124295888342
Pb 9.572730595175761 15.838640483111167 16.896596029264053
Pb 18.399798197217397 11.754939281156606 12.703189898429756
Pb 18.03038562259116 10.228200088786787 15.673293957527429
Pb 13.087511552523472 8.686918215771117 13.866190307078934
Pb 10.724640735660431 14.960465283251736 13.799517555243543
Pb 10.239162577984352 18.278681117842474 14.910546621969297
Pb 10.729918940887293 9.664203291598607 11.47097358250114
Pb 10.492639341467335 12.649144925811651 17.16253934218359
Pb 15.210115266748714 11.215725732917733 14.516864298930265
Pb 17.11555898406289 10.055737711825387 10.290719869149077
Pb 13.04803355724582 12.213009060758944 19.399417178585903
Pb 10.015752367529224 15.065940517828624 9.631604636239679
Pb 8.967878814216947 12.407741113743448 11.422704259375426
Pb 13.319295148019496 18.49070144118599 12.802851003196507
Pb 8.18011839271627 13.127804829804171 14.531259599405017
Pb 16.375409567505166 14.927251777805914 14.874301553637688
Pb 15.414989828024574 14.408793963071826 18.68719445546305
Pb 15.083152895572569 12.221961787302108 8.42602513002671
Pb 14.467460399842269 17.839081838060398 18.41096402374355
Pb 15.489294618502706 8.266039187653934 16.23600706012741
Pb 16.21194667718358 17.298924107952573 12.133554503715967
Pb 18.22994108737419 13.030745746126156 17.68621874614304
Pb 18.231372965931424 12.883483625674964 9.429556587307264
Pb 10.177559586758424 10.549871159009781 14.531867039533456
Pb 12.153904925288105 15.425339989089366 18.922975823995955
Pb 12.388395905949569 12.174945611407761 12.812668032180472
Pb 12.955865482684993 16.564657738220177 15.774442386104957
Pb 16.390481652048916 8.476558952602895 13.108848858597284
Pb 11.202897947027976 18.453929883157418 18.170115870711733
Pb 15.587126590994782 13.062292540239758 11.617584688254658
Pb 15.748445759602324 10.943609920235458 18.09064613612886
Pb 11.700401891599537 12.302259071218792 9.527122578962656
Pb 13.930458769180444 9.927454424791394 10.782840582209488
Pb 10.430650509730642 17.513130459913725 11.621814501383405
