49
Energy = -162.38812077 eV
Pb 15.990269639646264 12.091302812510515 19.70248003294188
Pb 15.407925631289618 16.951637105730278 17.01641015553222
Pb 18.357760579921038 16.581470329214604 15.431846575913932
Pb 17.168510087290553 14.205750634164888 17.54975002096096
Pb 13.80096231457801 14.238164288136886 18.600461729228932
Pb 17.79618487331916 10.87145107755962 17.122509643767852
Pb 15.726115046906028 9.030657270108552 18.98813095956748
Pb 18.76486090498624 13.330642830012092 14.71751023970365
Pb 13.742932324697614 19.520639206327342 15.788717992312492
Pb 12.037274229741621 17.008128256032553 17.21566745529618
Pb 12.989564825740526 10.99984937351722 19.312574695302377
Pb 16.091227754052422 18.257857616764394 13.849374349280943
Pb 18.55840580739023 15.655083510522225 12.342905372846083
Pb 14.613399331639492 11.418413867163606 16.571276452459998
Pb 12.234187429059572 13.762174484583895 15.761843584361383
Pb 15.808237497314705 14.71765262616861 14.389723475594915
Pb 16.657848059782946 11.145325871174519 13.548816582684331
Pb 16.122771644578926 8.307509604344023 15.77167561278998
Pb 9.702068533553753 11.999035332989497 16.66438689419991
Pb 10.740231296505474 18.989950680326785 14.914755177834353
Pb 13.208814356861232 19.448557005187823 12.545012012626527
Pb 13.044985660439906 8.458065293037404 17.314991651493433
Pb 13.022252676943332 16.557630049209415 14.09547396140561
Pb 9.590025252708003 15.744501638070266 15.074963536841114
Pb 16.617099955308348 17.768495149593846 10.455051480333417
Pb 18.368177372388942 12.613930114801956 10.91030489285671
Pb 15.491661642502402 14.750680267367553 10.778799106463001
Pb 13.345176910217832 17.57279541728335 9.649990921019427
Pb 15.848121167990746 8.166202112640603 12.516827570427884
Pb 13.358617596694447 7.3128871704400105 14.366516897357913
Pb 10.394306078604714 17.61144307497728 12.042196378973593
Pb 12.150361424112294 14.76775842116689 11.331904365084732
Pb 7.127297660929632 13.299979394301019 14.933395319308534
Pb 13.618093930895224 12.106605166846965 12.987860228298986
Pb 18.54594957147441 15.313971351828766 9.10771484505788
Pb 8.124772218152538 10.223414264738745 14.391433105775233
Pb 15.406711019728357 10.728391323763823 10.500848466218502
Pb 10.008828541973475 12.869531653920353 13.242934634631565
Pb 7.801629254252946 15.205123487044373 12.338047912156178
Pb 12.72689500491427 8.868989116070436 11.587438952581707
Pb 11.505859641229371 10.128290551505211 14.564420989285486
Pb 15.805412821321312 16.204214806633555 7.706666990397079
Pb 13.10265748542387 14.545534692979539 8.196726572432254
Pb 10.394086213171688 16.358217940402948 9.055587179009697
Pb 16.44620366029447 12.986204885059646 8.214062906823594
Pb 6.976781848826373 12.038707513621349 11.910312457938458
Pb 12.33651898467652 11.677997641892782 9.949203874467427
Pb 9.309159573728127 13.394378893587104 9.953897592441333
Pb 9.567170198354521 10.009802943611032 11.491103306925353
