42
Energy = -139.07098659 eV
Pb 8.54343239155121 16.345690092253115 12.281453916925368
Pb 7.25274786090812 13.614596037632676 13.478508103316592
Pb 7.990590541250254 16.134783384529637 15.419060773506128
Pb 10.0818916225555 14.24298958529897 10.278020662122877
Pb 10.86081485883571 17.423336971496635 14.710322254088073
Pb 11.967429634441412 16.745537199710277 11.80324991156225
Pb 8.220186151856343 13.244997785163939 16.63288343872147
Pb 8.854338000971408 10.61952554720574 14.354510254342657
Pb 10.994236599021624 11.30271581823929 10.81821909970101
Pb 10.38359813328757 14.082702706299704 13.930308047656688
Pb 10.81617890393873 15.300490461186909 17.092683920698406
Pb 12.448033012247368 12.653981265900622 8.160566753246956
Pb 14.320250117902924 19.1783430576684 12.217967673398734
Pb 12.582339830824157 15.765017068753508 8.825353020088011
Pb 10.835650185414371 8.650752592173992 12.595569460874813
Pb 14.86956065794179 15.22967641808392 18.556968010268207
Pb 10.194223333184178 10.76195054441701 17.410306235300418
Pb 10.533532215323206 8.150060117368568 15.754515542300352
Pb 12.137314956669398 11.028626154910128 14.593955655064228
Pb 13.979558116524759 17.249563901313785 16.331657963778756
Pb 13.167905563797278 13.625734464126749 11.585333982121531
Pb 12.707628374429309 12.821618809376165 18.070297204909735
Pb 13.725083279157483 14.265235922104146 15.367065834051012
Pb 14.178996483417508 10.787023773199484 10.024960474181357
Pb 15.249719497513901 17.547042055456238 9.574314100516656
Pb 16.380297028640253 18.67047990479731 14.632711456258114
Pb 15.473500223286658 16.102403038489015 12.660935080008317
Pb 15.339900629482209 13.867494526081227 9.060083291885263
Pb 13.4591728285558 8.034104798772972 14.323496030614658
Pb 17.451690851356584 18.800315854436683 11.607053087550097
Pb 15.927752711124677 12.203568793559938 13.379275256355857
Pb 16.985548145210334 15.28811540221879 16.2505176659378
Pb 13.317650859836515 9.496536753826645 17.218870236504596
Pb 15.834634492788899 12.324460601840537 17.28750814221066
Pb 17.384003718829675 11.379125305540224 10.33163640988531
Pb 17.86490906880224 15.804916206957033 10.33512690102567
Pb 15.830639704636482 9.006698769573724 12.166342025641281
Pb 18.897150600418335 13.309591996484166 12.420828096200315
Pb 18.613632578880402 16.497821110544066 13.561218495742843
Pb 16.428457489748304 9.626083661345064 15.405504188795346
Pb 18.555574322336174 12.288009410393169 15.48529031547357
Pb 18.68045271897805 10.09254324282118 13.08287516566076
