46
Energy = -152.51592768 eV
Pb 14.650322047529325 6.710485879549727 13.53873988762831
Pb 16.327192655800175 18.539581234659092 14.383019465826777
Pb 17.065894453689655 8.808705426884453 13.37297272046062
Pb 8.872058784996854 18.102754156201247 10.217442251882545
Pb 7.560143732109061 15.29152065228255 11.375640533512517
Pb 12.45243156469695 7.181897749760965 11.287138045132915
Pb 13.590772735838131 13.164703134066395 10.915883845757936
Pb 9.262236050075405 17.362706235178628 13.379822016392305
Pb 8.985385181816126 15.434602237818801 8.351590584806273
Pb 11.470304060687678 17.52042820498911 8.36838422790608
Pb 13.157916515276122 13.84230245193653 18.511464248821685
Pb 10.002823261802764 12.662747051134147 9.972164459507038
Pb 12.095388147935832 14.297690143538714 7.968175459809892
Pb 15.243928477343113 15.496524668669103 16.123062531284088
Pb 9.391364348425128 10.126526669969909 15.060096767584966
Pb 7.98727882845013 11.96877662887402 12.393397478625914
Pb 13.505069779183009 9.850193457089864 12.953639390733464
Pb 11.990230495443212 18.373569072465514 11.548476117313472
Pb 10.93358569894923 15.397647700300624 11.303741084389811
Pb 10.59538059974486 12.567649777151496 16.775413158892135
Pb 11.239540545912995 12.409593463783104 13.316042774808489
Pb 17.896215736684933 15.707579101729227 13.82564712946743
Pb 18.994491590505522 12.71459787734105 13.63006499349275
Pb 11.845018872294053 15.349794255883646 15.142042485874763
Pb 12.815757309415824 16.973605301541312 18.085570582577546
Pb 18.380460016690613 14.108301789719448 16.792122809383056
Pb 10.181324129862492 9.527456610646283 11.873629015836215
Pb 13.812197591023276 12.131476206770511 15.741889630798099
Pb 15.954558155955564 12.440670180697392 18.33895951119768
Pb 11.443882612992082 7.5745480342124685 14.426967513176766
Pb 12.733748094868277 10.129951803958424 9.58652401013026
Pb 8.728608445653402 14.317204738306252 14.398125288089386
Pb 18.239448284511543 17.319615524996397 16.80101615574217
Pb 17.10785095711814 13.781971496069508 10.85812447378846
Pb 18.003197762838077 10.589422556999173 10.860284280471117
Pb 15.4948482985464 8.463804003415461 10.438168852479082
Pb 13.220763499878613 18.373089205285996 15.124609733241721
Pb 15.448289692864254 18.714118030417282 17.542196312696152
Pb 15.634028125006648 11.607267992453671 8.956124574997142
Pb 14.05838313049615 16.19257283168432 9.74777508486293
Pb 16.372608214232674 15.744044782678511 19.084492972999215
Pb 11.97484651965174 9.642729847273882 16.983758780414274
Pb 14.393450561842391 15.977689945989976 13.026772998871204
Pb 17.628820973491045 10.937110360982116 15.93237148903845
Pb 15.935587812554461 12.039795826561106 13.220078051155632
Pb 14.960151190412486 8.851984808105444 16.031859425628973
