44
Energy = -145.2364345 eV
Pb 18.254241075704854 10.464073714023817 12.601637456235153
Pb 16.967169534257945 10.140863186418912 9.612530366857147
Pb 17.10679517463936 16.975210174599866 10.492936150808674
Pb 16.86206047514044 13.347573422741418 11.300437965101462
Pb 18.251191079823183 15.509077889862526 13.242287147321754
Pb 17.002920986492345 7.520949615886194 11.603079234483332
Pb 17.719317769857454 18.711895668740304 13.217622225143703
Pb 17.177459874308813 11.36627849765398 15.593631522436274
Pb 15.362112987184771 14.342759145444251 8.655629298953066
Pb 16.543934518374545 8.369992802127216 14.665766143552355
Pb 15.256417381988154 19.620625418717868 11.354461455832924
Pb 14.990526933254667 10.345211936388942 12.389691133667654
Pb 14.124331854928526 11.378966402705146 8.668095491239747
Pb 14.999316377190521 16.60491623328991 12.974264921073571
Pb 13.572678468920564 17.241037867495187 9.658816818339965
Pb 16.77782213884909 16.907150212836616 15.771252126704889
Pb 15.292234263105247 13.719889545502072 14.631783268512722
Pb 14.773176405290702 19.358779606445278 14.635784289604002
Pb 14.052867807133438 7.102059082040039 12.932894111644957
Pb 14.282670008079176 8.166417667686526 9.797124780673355
Pb 13.565220815434648 14.108691009669473 11.36280626078882
Pb 14.183637776322762 10.189308962231536 16.287726142337203
Pb 13.7247712169136 15.835974560635416 16.758341760630096
Pb 12.120894247165078 14.452889560621541 8.43088894721662
Pb 11.424429246029774 9.877296924256498 8.709141549360787
Pb 14.70213708581506 12.965088986273887 18.0144065791683
Pb 11.704629911637523 18.150250906499977 15.48072527821895
Pb 12.426221151767919 11.889039411996102 13.618697271478709
Pb 11.59028092793356 9.016853572954997 11.721189870903299
Pb 11.618569592221935 13.040461758818891 16.529369752251355
Pb 12.108381731670896 18.825223365134036 12.263624117574018
Pb 11.664413154534223 8.92648148015243 14.91044911313838
Pb 12.173701181015602 14.476363546466137 19.534154251786962
Pb 11.566718152415921 15.279961278646262 13.934769665529982
Pb 11.975056617184828 11.223760949325033 19.152500081198642
Pb 10.847489741368797 12.343489501126143 10.655390803854722
Pb 10.584268720303111 16.297236174627702 10.659472815726165
Pb 10.089997070011735 15.897711092431011 17.350121455756156
Pb 9.411529304369868 10.602334632050114 16.974909307811394
Pb 9.282644501323055 11.286039161175156 13.728860368098848
Pb 9.29527900079841 13.115921373924985 19.051712240905935
Pb 9.273787512956648 17.483795641605976 13.440429701316107
Pb 8.681738867886462 14.333075920958061 12.634204635641584
Pb 8.235810048238646 13.593548636353715 15.873716872858234
