49
Energy = -161.44576702 eV
Pb 19.212762363230418 17.708723286156935 18.93689259378557
Pb 17.92903982477371 19.011260303116316 15.882599746866738
Pb 21.15507398669392 17.89612335309014 16.242638102813878
Pb 19.736028000432917 19.215439884970742 13.118581175743037
Pb 22.07109166715553 16.332149129302238 18.96726402312942
Pb 16.727074343197412 20.292226991638515 12.738582565017484
Pb 16.282082442124242 19.09463935048023 18.93830910642201
Pb 16.491921948212937 15.634507483689026 18.910141327877923
Pb 20.386959589035996 16.14580592996797 13.551468542697974
Pb 21.82344228756967 14.642907769432817 16.270058630213796
Pb 14.909726066478365 20.422740755846213 15.867780776187264
Pb 18.091443833085936 18.385508530822598 10.31612507268752
Pb 18.451884222528967 15.615988583541514 16.21564935075381
Pb 17.02306100043425 16.981841907203933 13.270781024853557
Pb 14.956063613385593 19.233868707764117 10.221287930567932
Pb 19.702724725919047 14.262010898019373 18.948603427279366
Pb 14.024271204461755 18.47284413922199 13.291765724859477
Pb 13.106044552087482 19.788554927952188 18.58506177968461
Pb 13.676890777653373 16.928304794694593 19.969994264128566
Pb 18.095797627254363 15.168984540625464 10.771357514195696
Pb 20.193918941585988 12.971684040686442 13.251321834893815
Pb 15.03478887968023 17.213936792030104 16.457015806138063
Pb 19.537638959828975 12.191804966934221 16.311814366384738
Pb 14.315948094399596 12.362485719346493 15.91193058970099
Pb 16.76054993235131 12.345461006607353 18.137285137649872
Pb 15.4978980618326 16.161598378870686 9.257303303258475
Pb 17.893685701514844 12.08678825351298 11.209550122784504
Pb 12.910692970561648 12.528804580604952 19.16800037366375
Pb 11.824052616953196 18.20484581363712 16.07111201452054
Pb 12.48585339225981 15.122729229006323 17.327761874260947
Pb 10.526495758179513 17.908431758205545 19.219262679461508
Pb 16.981322163226835 9.952173085370129 15.861097339621768
Pb 12.533223998951394 16.96464112179591 10.485386749547208
Pb 13.625097915691073 15.134720895090627 13.877287535422141
Pb 11.151894347903312 14.809427833192174 20.60121896171027
Pb 17.056419361841865 13.264519196223885 14.164272991003095
Pb 15.807562990775958 10.303050451276913 12.92235009300666
Pb 12.983662736748077 14.269949358937769 8.803990517379033
Pb 14.860596053170685 13.434647638357491 11.277640809349696
Pb 9.264687738171121 16.182916154008467 16.61738956680005
Pb 14.512879122810158 9.797274310473467 18.056084358154227
Pb 10.813024812956186 16.738699330046035 13.316752321345566
Pb 11.572420734251512 10.649801110661377 16.572284392309378
Pb 8.296422622966796 15.675130099616895 19.590652522029234
Pb 9.741024440720672 13.134683466296746 18.16808446946593
Pb 13.902074144491817 8.871199359787216 15.092339031423984
Pb 10.585531377981491 13.724520159323497 14.852958952417415
Pb 11.412421331281548 13.958322999812415 11.56755091768556
Pb 12.582891204506378 11.319386106061208 13.353422172156478
