47
Energy = -155.25911176 eV
Pb 13.566247033422753 8.497222053710306 14.257064465461852
Pb 14.945267258565941 10.217557206762272 12.081416888321872
Pb 16.603035384389838 9.757583414169797 15.090879606791747
Pb 13.83783678123951 9.611665215048829 17.374749442918905
Pb 10.567688961128237 10.362288372650054 18.84973752706242
Pb 16.298130542415244 12.30384627484886 10.117754145779733
Pb 18.232148500179193 10.892001768082133 12.431363662388211
Pb 12.972252744216783 11.930206983332399 9.683696389052864
Pb 11.68262432283844 9.669977992898568 11.620887173099812
Pb 11.141506257225487 10.052901859312264 15.642584593314334
Pb 13.928609382494304 11.911203011548888 14.833323241682839
Pb 18.334848562530333 14.815147310328783 10.207067379726137
Pb 15.036261702538923 15.415971739782494 8.958944393999145
Pb 20.22062176553696 13.470599108586825 12.530796407440482
Pb 20.688062713344966 15.012412987251793 15.293513884648474
Pb 13.53923691626427 13.987365986102503 12.043774220449999
Pb 18.802105222552676 12.352608598267562 15.391174682406778
Pb 15.989841131507141 12.148906423050837 17.39870258353867
Pb 9.14962369957059 10.62582053688723 13.264494993899103
Pb 10.428562360310178 12.818593871168966 11.444931953596038
Pb 10.738483587399786 12.898776751851926 20.911257893769584
Pb 13.434722377164025 10.997434496353506 20.360311579877298
Pb 16.94838944501029 13.920180566543012 13.06799117906585
Pb 9.129799351704474 13.409315820967487 18.150727361190118
Pb 12.117162032825572 16.29241877190556 9.92713922341156
Pb 19.27621374996925 16.66126536395805 12.6868271877054
Pb 10.5605270448452 13.17404557987842 14.917551130860659
Pb 14.867249838594015 17.069077485963767 11.931483130065438
Pb 16.389322060639504 16.86073023667766 14.958977311699918
Pb 19.484848719196968 17.87620603570207 15.978353579309209
Pb 9.893398655422926 16.043166339525698 16.237642576582324
Pb 13.660201640947488 14.193045776899366 20.844717866018673
Pb 13.156238002683983 15.535928973781761 15.281546998825208
Pb 14.81333657766108 15.27672241250777 18.077904074397892
Pb 18.057031021827978 15.15581499554958 17.15980526702755
Pb 14.103030027832414 18.593473652370307 8.947897309836891
Pb 10.87740914855253 15.960209652224199 12.949218964771417
Pb 12.43301091735016 12.915081269198923 17.862353007556774
Pb 17.235353308949367 17.827208462958787 9.843197260962183
Pb 16.954359607289348 19.571461477259678 16.748067299887754
Pb 14.733820278043993 20.065977630913398 14.375600192876574
Pb 11.274818549460598 15.727195716353544 19.24252900517683
Pb 17.891347058487064 19.54464278998012 13.559192920031977
Pb 14.055520274818415 18.290611183554557 17.134997011042636
Pb 12.408139169554802 19.14700771788189 11.790449775829709
Pb 11.642261794435518 18.497366685939127 14.985994490385329
Pb 15.575595729973683 20.317854652421794 11.227509979168529
