42
Energy = -138.04054426 eV
Pb 15.916803324738115 20.082163669264553 17.455968668377118
Pb 14.70515093022737 20.015703516114346 14.356804993154114
Pb 17.718670497910434 17.490079689610038 17.982767633071678
Pb 17.774789786141454 19.058969894432114 15.075138796250103
Pb 14.512722677760728 17.542539595932023 19.023334250461268
Pb 13.327539969192317 18.552501778822858 11.555902235858488
Pb 12.810925099206928 19.345934801004027 16.901183250901006
Pb 19.21891385259407 16.2134915980144 13.560565427835623
Pb 18.58463423131671 14.690039439038033 16.287145273925226
Pb 16.1947543249566 17.41774217989637 12.5900376476
Pb 17.694911217957806 15.547899886816692 10.393380399594566
Pb 15.785512603825076 14.464479565106076 18.293898313654136
Pb 15.28003299461646 16.96390712294703 15.887075073280831
Pb 14.48607001907421 16.375667443924268 9.496581438650042
Pb 20.555490025662632 14.473805293395127 11.264306207250362
Pb 19.79188058991544 12.794808253200202 13.907782383473771
Pb 12.406986457512195 17.150945499679548 14.288080698004137
Pb 11.015377210661834 16.360184028415468 11.026864948058385
Pb 12.564609697045869 14.769619514998718 18.847468355388678
Pb 10.74091163818181 16.761976848084498 17.08723843067725
Pb 13.635344892708373 14.779086666148594 12.259853584507274
Pb 11.877997645031527 13.945632523035506 15.643697692789845
Pb 18.37340304960335 12.174034449924772 10.973226585395706
Pb 16.73661584215897 13.840159331783246 13.467276007418313
Pb 9.316703131062557 15.746501431539702 13.915559694166076
Pb 15.425994954460183 13.135589802785223 9.693984619833333
Pb 12.288066016494327 13.953434847024592 9.16768645806689
Pb 16.860236976055912 11.894296277216887 16.597323781136986
Pb 8.096710202446582 15.028301942439054 16.707378763249608
Pb 13.896819937636563 11.785539490897534 17.901637742727942
Pb 9.905535835097549 12.919552042884723 18.168261845036543
Pb 14.14462496793953 11.83217657693456 14.396391829452138
Pb 17.14799080218849 10.282778760956372 13.781645359981088
Pb 10.525301795915503 13.206919134790764 11.982959915544066
Pb 15.98340114611019 10.043230953627114 10.672617120989344
Pb 12.898723163928935 11.125867260608196 10.694320600324577
Pb 8.949871821437599 12.466706455944035 14.89977918138119
Pb 14.977625648362324 9.043774258583095 16.143765434037896
Pb 11.205128529632653 10.50260590981836 16.69151208415761
Pb 14.172635021460495 8.758278709130002 13.016608328004724
Pb 11.051817050112856 10.217197712565387 13.31072369523956
Pb 12.081402631977246 7.884514052985407 15.270903461412187
