40
Energy = -131.87962671 eV
Pb 18.78331741477012 14.219078552356436 12.245719256577962
Pb 19.307806753100223 15.957982129775624 15.096298058342486
Pb 17.428445446595823 12.557322070984714 9.65369948962377
Pb 17.735030052194467 11.085916275480665 12.454530782939377
Pb 17.88071858515372 17.425313626774564 12.603852987493108
Pb 18.319229931157903 12.801484788192367 15.407459808490346
Pb 16.95934399614901 15.849505866902897 9.731111254912937
Pb 17.33184716295007 15.344530534683843 17.504752725230265
Pb 16.18859635065886 10.259427269078635 15.169448116524572
Pb 16.69286956113424 17.930180073776988 15.543022166668413
Pb 14.469377755754822 14.029567812690889 11.364982399229103
Pb 14.481011105752218 11.066428484050736 9.950896261780956
Pb 14.888533090596697 9.179593097855621 12.533441997339986
Pb 15.969520738414548 14.926655494435725 14.322515121705766
Pb 14.973513949670918 13.761984039727048 7.974683333464765
Pb 13.639129969437388 11.908289242203484 14.004311048780135
Pb 14.605153366652036 17.200426023091385 12.147760456450174
Pb 15.168263425554203 12.821932909801653 16.952324160176136
Pb 14.321791167597734 16.332003759172405 16.977878866077244
Pb 13.876183234744852 16.48568288725804 9.094571017816284
Pb 12.206955552706024 8.837175164435326 14.434520444712257
Pb 11.952142889136436 7.847132520776262 11.1673627390704
Pb 11.867505704452347 10.956253075517733 16.834679033291383
Pb 11.898263385812113 14.120790579019843 17.284788936894017
Pb 11.53833151212956 9.978885568174167 8.706440413160848
Pb 10.639303833807636 10.910564437202808 11.719273759791689
Pb 11.929265055627202 13.337085573872823 9.186456427374843
Pb 9.221712981220525 7.9803458124832565 13.009434343683084
Pb 11.37409804489223 15.636115061393227 11.37321467855652
Pb 11.994559135556015 16.205302119363484 14.588734438294686
Pb 10.515706029556744 13.182546128332497 14.289466604847018
Pb 8.867668094858068 10.217549859427885 15.257581527083964
Pb 8.909036662895115 8.374406815126573 9.907226585735199
Pb 8.9655521525722 12.472369412888591 17.46086725797041
Pb 8.606554667302708 11.411316056085353 9.013645226577145
Pb 8.981387206663756 15.461604488469158 16.413970078009246
Pb 8.400539335567654 13.694340106483072 11.168268754680762
Pb 7.350892563019096 10.514217168417044 11.970503428291329
Pb 8.750819322483082 15.969012193560848 13.323265813672771
Pb 7.259372482404685 13.227660240127424 14.618911239102982
