43
Energy = -142.1178168 eV
Pb 12.35412165241546 17.77547049143915 13.23972822730695
Pb 10.190214509955934 17.079395335755333 10.995462780319924
Pb 13.476030034579695 16.13404474944367 10.204497974045475
Pb 10.028896268541656 14.06191647104067 9.994330577096234
Pb 16.336984657541567 17.6589405225391 10.582052676095138
Pb 16.131730625227775 15.524351582158957 8.208735167876815
Pb 7.819463420635238 15.029664083100599 12.491693251800903
Pb 13.417821065565247 13.78720736555731 8.00390820924117
Pb 9.005080589237796 17.66992314310616 13.908280172005659
Pb 11.442046495098362 16.83711875942412 16.157626205801122
Pb 15.548314881509635 18.078492935487265 14.017090729003712
Pb 7.913695005701404 11.958019350530446 11.407961485339401
Pb 11.027733800555415 14.791237433773043 13.407069346607832
Pb 18.43141826766216 14.720138231816462 10.510491929637684
Pb 10.678302181522064 10.814719640738803 10.321533633628789
Pb 18.424627286873484 17.005547112319846 12.943441854127714
Pb 16.124860834394074 12.557110933109184 9.53652390972588
Pb 15.603198642380141 15.121901577213205 12.571138810226957
Pb 13.607902303034727 10.556737796181283 9.00496580609229
Pb 13.029523030756645 13.010025996485155 11.260673180175676
Pb 7.768587899476779 12.184197358635108 14.551059312787775
Pb 18.53236732961934 11.4936559519102 11.619129647908727
Pb 14.928074823650078 18.006890986156442 17.25795263962196
Pb 8.722509313707674 15.024892679083015 15.781684661680915
Pb 17.640263322229487 16.344114242521282 16.12134836921019
Pb 10.003355993173168 9.969491014376215 13.34195779091064
Pb 18.632139748081652 13.879727524713072 13.871502122523227
Pb 14.433666925720031 14.98899967761896 15.954003053104636
Pb 15.490132502690173 11.75402437141519 13.209658811668946
Pb 12.440461830131552 11.86689120147463 14.887482343258789
Pb 16.10966186774004 9.425767833464668 10.893836886456347
Pb 13.077025004727279 15.943867055280814 18.974595300778084
Pb 13.029840069546132 9.127422590020869 12.10178727869871
Pb 11.31222316168359 13.59113511418307 17.473920505357835
Pb 16.251567902442318 15.682880077940574 19.010102294913835
Pb 9.746758433440622 10.498264378785711 16.42044485429892
Pb 18.0874465643596 10.687114054731815 14.756659442166486
Pb 12.598148053443042 8.51303645713063 15.327076419127966
Pb 17.247616063596187 13.185512423672135 16.99692120164474
Pb 15.186007324107178 10.421011331236146 16.372991335311774
Pb 14.466832113178421 12.91952094201025 18.82311348838797
Pb 15.723110740067542 8.35552389332961 13.893095683609854
Pb 12.440003594570992 10.42386146366055 18.05223676498738
