45
Energy = -149.05722503 eV
Pb 19.69017970723498 14.260019783375448 11.865713351811907
Pb 19.145140539902844 17.43604370851987 12.488487158154971
Pb 19.070801469888977 16.480746572706707 9.416928735613617
Pb 18.319081408315775 15.227803946664842 14.765135615490873
Pb 17.824193231392243 12.0779204654043 14.449672503536291
Pb 18.117742943451713 13.461702734377868 9.078530310200236
Pb 16.841838530666827 9.494890218754072 16.192747896409962
Pb 16.11605949879629 8.355413341177991 12.991271613849895
Pb 16.730148504997114 11.411734241502865 11.51506567386976
Pb 16.585548815289428 15.187040804053826 11.562576285536627
Pb 16.579933349498056 18.363714201578325 10.607934198651728
Pb 16.162572293719933 17.569271036007684 14.255787706288766
Pb 16.211872581295516 12.67395514440965 17.278419419957864
Pb 15.400869206307837 15.832511805492029 17.468467772837414
Pb 15.957687622722515 15.981581605087504 8.363401009369168
Pb 14.420991360930937 7.455247284969304 15.584209068217636
Pb 15.125131989720115 14.23877049184343 14.526730187787727
Pb 14.309985706006609 10.662933829671674 14.43373989129815
Pb 14.159929317705414 19.47856711828387 12.599991227031646
Pb 14.030169496621266 10.084040342730054 17.76143290755008
Pb 14.987217454116946 12.760968715548236 8.845176825336804
Pb 14.242206841665295 9.680471314089807 10.490619578623408
Pb 13.626603230844466 13.575949705821747 19.388956044600345
Pb 11.306776868692165 10.42328590420114 11.048143355284271
Pb 13.553848019122306 12.83741582910569 11.806727331355322
Pb 12.719966992627882 7.85727596692521 12.877404776195972
Pb 13.056485577799092 16.191767150165173 12.369538996517601
Pb 13.060778926076475 18.238382260504405 9.737621945263776
Pb 12.728078611952327 17.657837115928395 15.320921705218696
Pb 12.765487565402251 16.80456676732782 18.929000412562495
Pb 12.665965448365903 14.946832133057109 9.217410000835406
Pb 12.252006959700038 14.482978532237132 16.581322936163644
Pb 10.999487776935016 11.748382337813634 18.331566112757375
Pb 11.442339661478444 8.91521459757857 15.880284014952943
Pb 11.058713763709735 18.965457103789795 12.430390425288005
Pb 10.230323312821797 13.567991953561226 11.539344294372025
Pb 11.151616884821754 12.079729752328594 14.574631153621706
Pb 10.170991176660685 16.6918041456963 10.434947221073518
Pb 9.310921360177469 9.671342516868831 13.364914262296196
Pb 10.471844107541685 14.695821811402928 19.559795063547227
Pb 10.050626907884517 16.903948320580316 17.142449813547415
Pb 10.04530380604609 16.15064514948846 13.773594470096874
Pb 8.62576147100084 10.630606646141269 16.294377684889547
Pb 8.645666955025908 13.914794273913008 16.891189029736385
Pb 8.051499681759292 12.829275170310888 13.9427351555564
