46
Energy = -152.51723715 eV
Pb 17.71814125682881 14.78001955992009 11.497263440260564
Pb 18.98604792747728 12.053849159124152 13.016660540619513
Pb 18.44030660804767 14.89433342972552 14.69783531566386
Pb 18.19950923703016 12.191213617918113 9.37159479485602
Pb 18.773463330392996 11.91027500328424 16.281152777304644
Pb 17.991566686902196 9.378967671168994 11.188829963982794
Pb 17.32412200074383 15.09355879291506 8.248561503957362
Pb 16.254658657044377 17.308967331714065 13.592485293513603
Pb 16.225474417286346 9.583868538050238 8.538525286087522
Pb 16.642170926471277 14.1386481020762 17.406392757505134
Pb 16.284267072407 17.429412609837698 10.180749219491444
Pb 15.911516969430584 17.48346132854453 16.84273732642956
Pb 14.400547231457244 15.06854249816461 11.899776013020277
Pb 15.906090599929012 10.835755169651128 17.33499386999539
Pb 15.891992949426804 12.724834099607996 14.476097057374538
Pb 14.914861051968954 8.394638281288541 11.409022895987814
Pb 15.107094932136395 12.574091301337475 7.835744483941647
Pb 17.23861415095053 9.62945226666781 14.424051678463544
Pb 14.173818170001338 19.53308777217669 15.060427982458162
Pb 15.404690299881846 11.63834757493383 11.173647483276019
Pb 14.894909722038294 12.577067414560787 19.9265801215356
Pb 14.121053435272701 15.656627567202714 8.654460791052838
Pb 14.107373956164063 15.79246701619004 19.089529477481918
Pb 13.902500762246875 9.67778403965028 14.767213766806499
Pb 13.443197172046373 16.16448362351151 15.132680717983092
Pb 12.495723995348852 12.647968701733648 13.750294158828247
Pb 12.137992255629666 13.137276439729986 10.325539769571225
Pb 13.222966947984304 18.20170311140825 12.189231935677991
Pb 12.074380168333692 9.800967677422591 12.11764089022979
Pb 11.22060449437734 16.652044945038067 10.056826583675909
Pb 13.122639245311591 13.039300673256918 17.052640222197525
Pb 13.133406473383005 10.115705551946345 9.087631216172133
Pb 12.47753119850352 10.620046521785898 19.089884384056486
Pb 12.635616059606521 18.35060045665016 17.652482949529062
Pb 11.842671967061715 13.7409350042342 20.211173231156025
Pb 10.696318132325251 15.408939057201522 12.967936150094037
Pb 11.021179383878161 10.41706760991575 16.167707855754358
Pb 8.905004900110047 14.387397002675263 10.118158333368152
Pb 10.84620931632815 15.560531127205964 17.417611147343305
Pb 9.44637795822901 11.954951566709736 12.359576670572578
Pb 11.064978605972266 18.481958393084028 14.744867332396527
Pb 9.71045253078267 12.271987950837733 18.469678626485805
Pb 8.309645089922498 17.234388486849895 11.690940043537216
Pb 9.413207141624865 13.398970625108776 15.313944331524025
Pb 7.258813232493527 14.357278292903406 12.872471318349357
Pb 8.333306198482736 16.62498853617246 14.880422855699578
