41
Energy = -135.43863546 eV
Pb 18.81974167204029 11.574931607416802 16.365769356338078
Pb 16.18882448011481 11.343288917016759 18.406998209975445
Pb 16.91500247853468 14.20358064577738 16.90384095065936
Pb 17.217956443169292 8.806850247095955 16.483127705864906
Pb 14.496748265191886 14.049592068084326 19.105190825174947
Pb 18.139832803583015 13.27986569763865 13.626350510913358
Pb 17.977702707399573 10.112218711118329 13.624290038864888
Pb 16.38868458168097 17.75389887600532 14.732316792457146
Pb 12.91972485043733 11.23472350922549 19.284022287505188
Pb 14.046473973084433 16.561233386341303 16.602339193170845
Pb 14.019293038703484 9.136920253563213 17.006865813905684
Pb 15.07555944800307 11.415267558603235 12.843141443544397
Pb 13.90653988003237 12.38238286203147 16.194522524350617
Pb 15.343619189175149 8.2722555892084 13.908374976024728
Pb 16.68934085186946 13.320082611008214 10.440964228835654
Pb 17.33645344196995 16.245281489376623 12.149631910154019
Pb 11.372981705364932 13.696772502752527 17.870439165817835
Pb 13.852015077113782 19.740383900828558 15.012740483990795
Pb 15.211651922419984 14.707978325318013 14.090857439511524
Pb 15.65778111787745 19.625611322327156 12.158027221634073
Pb 10.723246963983469 10.587183625754056 16.913688409245765
Pb 11.811856945332222 8.850326721499878 14.203846155176068
Pb 12.410829847266633 20.684578109572172 12.334620863343925
Pb 11.536911020973248 12.019539874503637 13.485715265100596
Pb 10.832827811822874 18.50892703342925 14.181537674476273
Pb 13.371736281199563 8.807957523676375 11.287236787411798
Pb 13.405083543539252 17.347470147697646 12.508728859691116
Pb 15.230239819288167 16.217563624034003 9.54542522444358
Pb 11.820555097844007 15.182547405006096 14.82728944892208
Pb 15.285439156225106 10.61750726009788 9.599330956373123
Pb 8.742384388009468 10.125178031229554 14.367936661245766
Pb 9.03513688572495 13.202223712896652 15.454749334841068
Pb 13.456166760170243 19.07690071306448 9.628288342156628
Pb 13.331715772626811 14.009213398311346 11.303601070457708
Pb 10.04373265362398 9.737177607055834 11.408516888859946
Pb 14.180820247700378 13.460738120440624 8.134186369556712
Pb 10.471808196893937 18.569702975202993 10.918242499905693
Pb 8.655567744890261 12.54742297999184 12.246967235109505
Pb 12.128152364365771 11.490162292165332 9.624939697562258
Pb 10.369447007659396 15.484244050415741 12.010179290003546
Pb 11.986752239021579 16.119461805692698 9.137471826184514
