40
Energy = -131.43135983 eV
Pb 15.42026077862244 10.293903094661456 20.09652418066848
Pb 17.24160858742824 10.708614406440187 17.442260640588724
Pb 15.980001501160626 13.276575097585367 19.27912216919827
Pb 14.011855364076018 9.333344299767361 17.461175543237122
Pb 18.917740598175644 11.30529234889343 14.571514878819844
Pb 12.823707255828419 11.96047370665004 19.168440784162488
Pb 19.557134805494016 12.273313595591672 11.430548876557362
Pb 17.295047741915113 14.1032801035743 16.23502761098631
Pb 15.813885876436972 9.44387465907737 14.633230254496027
Pb 15.958121063861142 16.92603587072738 17.584708662825356
Pb 19.384330138284533 14.470297847922808 13.701940742166919
Pb 14.513711599909684 12.373721730366317 16.177164211387204
Pb 17.525403587280643 9.861194523785258 11.855490806741235
Pb 16.161452109282397 19.512805974710634 15.531238237012607
Pb 13.206514748587313 14.98027187354969 18.26402228644951
Pb 15.218653164083769 20.048651000331848 18.455909323097593
Pb 12.603323253515038 9.856559210856378 14.225610149095825
Pb 16.414966447550704 12.894270288214543 13.080788925443866
Pb 11.270309196753315 11.894870450917711 16.276604208336785
Pb 17.855685529282276 14.998238453175032 10.812128410730487
Pb 14.526095711767942 15.23446069358747 11.483354106432468
Pb 12.740717720879928 18.27429283320272 17.93633649032969
Pb 13.690279059575712 16.35160851827899 15.28735547316423
Pb 16.516350817686593 16.740465215336616 14.006788819519645
Pb 13.262667314072665 20.901034684938455 16.014524125231787
Pb 9.29524948445184 12.915133550793463 13.52388114251891
Pb 16.532873361659004 12.183878058716113 9.692400324245332
Pb 10.57557019113986 15.152555390016131 15.58797090605707
Pb 12.694449401271301 13.211762002149513 13.420167409393919
Pb 13.854184361092551 19.09475325636143 13.299104125882744
Pb 14.273994900882595 10.39351977245655 11.445560374940538
Pb 11.057315513056507 11.0979970368324 11.490063356735284
Pb 11.176798407113752 18.576789791209716 15.134586591805647
Pb 15.160158577217185 14.909848755095927 8.447762207966283
Pb 9.747884266232973 13.918994856233379 10.313549025528332
Pb 11.741257179171127 16.53784035513125 12.447926831865155
Pb 12.991169809318828 12.609420521811552 9.255732758990437
Pb 8.609492672166033 15.921672819227636 12.84007030809582
Pb 12.17141521828279 15.81209212217844 8.973447587564584
Pb 9.586245433684196 17.152758962529408 10.102342814917874
