43
Energy = -142.2445953 eV
Pb 11.492791729700185 10.616575253012007 17.911758879581104
Pb 12.072519014328467 13.203437190717064 19.633464891477857
Pb 8.868032886460673 9.741640850982979 16.375742883665854
Pb 8.864070832920893 12.742216295693526 17.86574686930303
Pb 17.312487599795837 9.623429395859935 16.30020780902612
Pb 6.852709451891517 11.98222428397396 15.18912266573027
Pb 15.644182045642989 12.216195931213147 18.21196701555026
Pb 11.004147406478312 15.42599929730633 17.618041081235624
Pb 14.012362145783962 9.974987498043964 16.12977202946834
Pb 8.463626513318083 10.069102977448491 13.137353606298879
Pb 13.035582197258886 10.144575047347336 13.05605620183734
Pb 13.202462881804045 13.215750142209018 16.286633888663825
Pb 14.302497362665239 15.25110433233106 18.70654220301921
Pb 18.700491883353358 12.426833323683434 16.999171485106082
Pb 8.295823679875259 14.890251157590619 15.469443567267948
Pb 10.378112307568708 12.17695387354425 14.778705175554151
Pb 19.253040945067465 10.726864353845253 13.953586976723917
Pb 16.25421534269906 9.308744074164865 13.157626616644748
Pb 16.193559111751313 12.343683607445282 14.73271682495326
Pb 8.202266906869498 13.28568928623537 12.516203673561938
Pb 11.595207753408648 18.933381172866433 14.259659415772152
Pb 18.252817284632183 10.095867779521964 10.758296116940027
Pb 13.697052566272431 16.475774615115277 15.515466321925464
Pb 16.831524065486498 15.074382897541446 16.585502180242564
Pb 13.13353129194955 13.38366851125794 12.699937596305565
Pb 10.975085657806915 15.711980287349995 13.840739750385762
Pb 15.066473460512649 11.145202567087129 10.516879421564854
Pb 10.695757058225896 11.464502291783536 11.217662939119165
Pb 16.29395599192898 14.040125802608692 12.01240816046283
Pb 19.297973434158628 14.040786908547261 14.21663990815853
Pb 14.786195764633494 19.524389611041546 14.159274390871385
Pb 20.37922261321007 12.35755356586911 11.44843675238346
Pb 13.755142080718702 16.913492336846534 12.167392748984703
Pb 10.654942185450555 17.96991286527345 11.258753239420257
Pb 16.833279270682 16.98357546021377 13.346708313014723
Pb 12.881905666248837 20.335590583949045 11.616593310585698
Pb 10.850217476041736 14.686421254438246 10.686374642945285
Pb 17.81097555567772 12.993216799500496 9.426672994388197
Pb 13.951133036598716 14.26066532856998 9.49996161787261
Pb 19.213597683300357 15.35645548703175 11.188477678422787
Pb 16.275300504684346 16.446165330247535 9.741101037543212
Pb 15.890603540529721 19.38423497061232 11.031070008298151
Pb 13.354306399335197 18.083963698406034 9.206658956844022
