42
Energy = -138.81462861 eV
Pb 18.588240912595683 15.436588755689206 13.805108950063062
Pb 18.6649651495575 11.497083735156576 10.21915182969663
Pb 17.511507738926287 9.040066638534318 11.952011511320544
Pb 17.4227556501327 12.132511821000609 13.462462702318948
Pb 17.195466044050868 14.17399667087826 16.525199422948745
Pb 16.335078174262843 10.86371950005996 16.46703908201625
Pb 17.27895468362596 8.984344878746416 8.706697923505484
Pb 17.23919135682692 17.5112714741321 15.795817573279567
Pb 17.07004947387366 14.3502317740843 11.0681990481486
Pb 16.595222650178652 17.612995988687842 12.482318863752878
Pb 14.732255594121044 7.917443591398765 10.481602812183787
Pb 14.616613135100078 10.047599922354799 13.713801232869118
Pb 16.464829003283565 12.050749041453214 7.816386532501762
Pb 15.29095627589018 11.206884702339357 10.662507672508811
Pb 14.24711045288977 11.846265787198242 18.826597658094727
Pb 15.26653148242449 15.09377908159117 14.010092679777985
Pb 14.694557539215877 16.050598760619692 17.33094538569036
Pb 13.7873689004114 12.730248215496857 15.739875122672471
Pb 13.658008833658497 9.200864705973652 16.96293529510068
Pb 14.279870468552868 18.25804345018213 14.777038970107336
Pb 14.2184060203245 9.660113169160292 7.7568364123713645
Pb 11.928613555194332 14.166923358311122 18.226066663123365
Pb 12.752026906581657 12.50740085753417 8.561796405737022
Pb 11.08693395512719 10.940691772060783 17.880908514158595
Pb 11.739451197969563 15.704763863274568 13.128880843959914
Pb 11.4100601480574 9.933552340391012 14.575127696250243
Pb 13.91147592423005 14.764375684924692 10.57305534216796
Pb 11.262189621751514 19.104194102398882 13.841790178946933
Pb 12.285837619262367 12.342750141015014 12.141937048056542
Pb 11.981478816531363 9.783897399542306 10.193498271360742
Pb 13.058509854856995 17.881397627606503 11.262918890245091
Pb 11.646374528056448 16.96151751751638 16.453045069025535
Pb 10.562859136714126 13.435628103317343 15.229978595572266
Pb 10.87637862752259 15.550513482698076 9.538847766340064
Pb 8.674356902952946 13.058712113425097 17.97086994884865
Pb 9.734640503082382 12.498125112451254 9.800077496307667
Pb 8.407315850938913 10.60451943857563 15.955859376994123
Pb 9.681342328132045 17.879111872647186 11.431225943372151
Pb 8.978995170057136 11.486252021171524 12.780815556180716
Pb 8.481043715194673 14.792259380088845 11.83902026368736
Pb 8.95159718990198 16.771494770483198 14.539123495833863
Pb 7.418372085344508 13.535147898173818 14.935237246973506
