54
Energy = -178.12365587 eV
Pb 8.107472133049892 17.938701653355874 17.70628291207413
Pb 8.579473649058217 14.861963828878578 17.030538350027374
Pb 8.306151119342829 11.718149598830117 16.24476944915706
Pb 10.582410280157674 16.361205579709306 19.09597847539662
Pb 8.902011560527734 10.893251181526717 13.248956541101016
Pb 9.739439430150073 17.38539691457606 14.96243524188954
Pb 10.94026591742232 19.23102163322734 17.344653984798935
Pb 10.512166139131427 12.536080367820178 18.485950408848364
Pb 9.585577161269356 14.011668230793486 14.00223928182729
Pb 9.23841416564928 16.35161472187372 11.81065189211085
Pb 14.236212726045277 9.086633178843913 15.051273430489653
Pb 11.673274853451336 9.42058628322667 12.6235766159037
Pb 11.975778295508542 14.845971106973085 16.171712336701603
Pb 13.531981098492787 13.680447002193576 18.966403577533796
Pb 13.117185476015802 10.285776152321016 17.996932081563486
Pb 13.557417312738572 17.230479924939175 18.043631225151913
Pb 10.780696772000066 12.524072049950485 11.184684591565196
Pb 11.581336602664432 11.566440612636438 15.351540382370281
Pb 15.733905442718564 11.465507205669363 19.33758662243793
Pb 11.243172056163058 15.559559180719535 9.515571582674278
Pb 15.038809168783487 12.349391914358788 16.20343856784035
Pb 13.02892794114565 17.992198121089945 14.82618019754781
Pb 13.93688134140203 20.426991627243815 17.047882171334415
Pb 14.031601068356888 11.957027933502099 12.893607130102184
Pb 14.67252343795945 8.72373737908535 11.703161897269435
Pb 11.72766555487741 18.310522850267656 11.724830867291194
Pb 12.484643160241557 15.227731959347794 12.658027565491043
Pb 14.750165391363144 20.818731022084858 13.98899385183765
Pb 13.189571238569073 10.829605104087234 9.910100489643321
Pb 13.971563453464919 14.02749325721716 9.994841628028206
Pb 16.04891618206431 15.86727359450448 19.611081320914842
Pb 17.114058840453204 9.75944922434893 16.612176978470284
Pb 17.40787915779336 8.764974676228263 13.208776874872829
Pb 15.516610413930467 17.832915126576086 12.303875249136897
Pb 15.843639185831293 15.632980448673838 15.890559221276945
Pb 13.762088700967668 17.644336007456804 9.07133645100198
Pb 16.8429434069275 19.149922087841027 15.763078334730848
Pb 16.414436425134266 14.682249566750949 12.543782594201076
Pb 13.985068073983872 20.399371076531956 10.86538968083497
Pb 20.114659665875568 9.130200221703065 14.78092612944768
Pb 16.201353949229063 19.047530766304927 18.981341262991187
Pb 17.782376009167628 13.60603712372069 17.97086458487853
Pb 18.030639173676978 11.96035742893353 14.315022713711018
Pb 16.734164281085082 11.465869389017756 11.060572217741
Pb 18.401315692225737 16.962552734416438 17.653059731115633
Pb 20.096964173498172 11.412215279650475 17.019175423829534
Pb 18.576317118521416 16.848773684262177 14.250242719727261
Pb 16.521742058614812 15.795824743225895 9.26660427945409
Pb 19.8478164364457 10.448205670058673 11.719451252610288
Pb 18.624245092074112 17.206964007936268 11.126745156090784
Pb 20.033862552882724 14.40219858553103 15.646693537339901
Pb 16.63778444239074 19.117418565974127 9.479274053830522
Pb 19.599051817656573 13.82155455648955 12.041754107424087
Pb 21.484994924292636 11.969975168162966 14.017111479257464
