50
Energy = -165.48720796 eV
Pb 18.644116712655393 15.875378867847765 17.180947764497194
Pb 15.735844507271867 19.393651975175082 16.096864953450492
Pb 20.67519431300313 15.034207667705369 14.118007893405185
Pb 15.471482550995328 16.452003501304862 18.044240222529783
Pb 13.025036563395048 20.393597588768984 14.704959053474898
Pb 19.251681656424985 12.754782756505561 16.164667341509876
Pb 15.215089013213221 18.956260916766375 12.829198835514807
Pb 17.224562465132834 13.461203140518391 18.70971227573696
Pb 12.784420285177134 18.701832054201578 17.57121566734712
Pb 17.552688851548012 17.19852239035321 14.51004390625554
Pb 18.087536992030895 13.490273432992367 12.912323199319449
Pb 13.735160699111852 17.031496458771116 14.901387740553327
Pb 9.566425638083816 17.65037138958598 18.31674888550265
Pb 11.603781242454886 15.454391675556485 19.6967238096457
Pb 11.666403167819675 18.656257240836936 12.136167294477726
Pb 10.242106232488652 18.658772735344325 15.192883565767167
Pb 13.989548763934598 13.492735317757095 18.01449055811749
Pb 15.59245169966522 15.477200756688234 12.264458993803014
Pb 16.433087091459736 11.088318253857679 16.628888606843883
Pb 20.948864369281694 11.79882503473931 13.322194910461858
Pb 13.017723467081247 16.28140459040895 10.289243498661993
Pb 18.981842007605557 16.55825219353014 11.680942511531065
Pb 20.95337542937828 13.963556860697855 10.982581742057974
Pb 11.272833046669259 15.319071008889393 16.55173845429389
Pb 15.989383657612013 14.2683295465638 15.564522812539558
Pb 11.339660079097332 15.48948566320189 13.138179460814374
Pb 10.864112030475525 12.414264923210524 18.501797543981585
Pb 18.051159299117202 14.355565552060241 9.570275101817641
Pb 8.588969288627698 14.648163998531096 18.696615945350427
Pb 12.26161145071713 12.324254717104768 15.171109197405238
Pb 18.044151253747106 10.144384363912136 13.839211415203748
Pb 13.510775453355182 9.361168437601535 15.999632937425776
Pb 8.661877648554507 17.170617095104415 12.44118778515873
Pb 18.96766100546466 11.358184145555681 10.640394691026643
Pb 8.086294336002677 16.05575759714148 15.575731140359482
Pb 12.666051465365642 12.933714639240451 11.726999885552743
Pb 14.993652128409165 11.243954377411328 13.53882604972499
Pb 15.497978788733075 12.48177324793582 10.142836385689609
Pb 14.667760083665602 7.879531174108173 13.437205406023535
Pb 10.20737724972491 14.764485106556984 9.973513642436318
Pb 12.893825601470152 13.482695166138164 8.381766713806723
Pb 8.814876189572974 12.829858990646535 15.90859003551809
Pb 10.304658412697195 9.843875389994638 16.00429632225324
Pb 8.480180525238065 14.020254576815994 12.689600435730974
Pb 15.959112250398782 9.367879216668147 10.918626088861673
Pb 13.666880093375436 10.271203626184217 8.49413356920447
Pb 10.163625435157975 11.009898558678312 12.862710472223641
Pb 10.65233086727546 11.410637465062694 9.557664712261408
Pb 11.426790767949445 7.875828939152047 13.749875962069034
Pb 12.53501018368546 9.087653550842646 11.147834285539801
