55
Energy = -182.6263711 eV
Pb 15.341341476458778 7.885080159893843 8.668342875689415
Pb 16.919178280568858 13.925918805897613 15.372642265160277
Pb 10.617724254849 11.087361884153308 14.782987638133982
Pb 6.941655367325647 14.11671533581431 15.182208706667009
Pb 10.111873537402854 9.7856471096165 17.935139751543762
Pb 15.648561264606448 11.627054585318726 7.012178356652534
Pb 16.790404596356627 10.736726779331851 13.549376259869637
Pb 12.53542388253313 12.201072322598684 18.169784003242036
Pb 12.007113940644667 15.375597693561279 17.22421551342636
Pb 10.140212011286629 10.177065144315163 8.424369468438627
Pb 14.763045871535201 16.366131148333334 9.652156061994821
Pb 10.731775247669855 17.99362827868269 14.937865622271291
Pb 12.089905443253183 15.935971632898001 6.487608084371291
Pb 10.252666824634183 5.753247845292652 12.43334052320895
Pb 7.658681074413861 9.57926067809599 10.527480968418251
Pb 15.516404777642068 11.408739431504792 16.932747289457453
Pb 7.5606371542707045 14.72369270974386 11.960129795916133
Pb 10.670161533704032 8.937532364802184 11.92064704514026
Pb 13.069828030809266 13.368145270397562 8.378154864799852
Pb 12.275406578019755 7.601384275283747 7.604764470042134
Pb 16.86890380617488 13.837750260433232 9.195114589810071
Pb 7.735741345740814 7.827022482395316 13.203606907870414
Pb 15.082985917633517 14.390357561885791 18.044044925217015
Pb 14.630513855316744 16.494904438152034 15.607427361806653
Pb 9.765353806980542 17.288362042051016 11.864283353251034
Pb 7.707374777345501 9.860682502889391 15.855927725716429
Pb 13.320930635407542 10.20228997871547 9.64392592229353
Pb 13.07684299208176 6.146688269657924 10.42114234104828
Pb 10.046339427960346 14.962895524057757 9.179057107633342
Pb 7.921832136309535 12.55071258886923 9.064772101613414
Pb 10.351616428843007 13.05677861139708 6.327169303443368
Pb 13.543627131096152 10.042004782838978 13.414252398547019
Pb 9.322933077734216 12.940179355778724 17.222910026118004
Pb 9.736096166531308 6.921168462378755 9.496629981247857
Pb 7.530544570201427 17.135834246931243 14.24857635285637
Pb 10.288083807741748 7.701381529254919 15.246660854558268
Pb 13.605555730001772 13.426881132438307 14.970474207546761
Pb 15.743274475238149 7.6460265566448795 11.852612926584444
Pb 18.06905481325614 13.228084292732872 12.160553036373488
Pb 12.95413858347006 9.135354151186503 16.674562357738072
Pb 14.832257034129833 12.59830019641195 11.60080202822211
Pb 15.628189835385523 8.230836333836745 15.154356650100409
Pb 12.38431545613827 14.966806696941578 11.511418262024808
Pb 11.915238151644498 17.637541572730036 9.421531138152448
Pb 13.197576430281307 17.767337926852917 12.774316377222053
Pb 8.853436608127035 16.23591486060954 16.999085670251713
Pb 10.109161934045192 14.713744901965953 14.219288771601772
Pb 13.200698059736615 6.568370726225733 13.681706840280432
Pb 16.92939604612166 10.50949532489118 10.031257035102298
Pb 13.279762459288325 13.42855935811089 4.834689599779571
Pb 7.572564296619371 11.533121324466759 13.092628871543624
Pb 15.362715797785121 14.990338164161214 6.573255754174765
Pb 12.666741663076754 10.601760002003196 6.267339302881893
Pb 10.25129360488761 12.201931541962265 11.315644036514914
Pb 15.89600798968401 15.657708842604928 12.695936316429462
