5
Energy = -13.02259388 eV
Pb 9.713725434481965 8.071122274637037 8.138791105575423
Pb 11.626036345306536 9.163420140147025 10.226122213422615
Pb 7.7334416887154775 10.21146546076687 8.700931538996159
Pb 12.045696939263019 11.21904383384105 12.300379884531106
Pb 9.493952156288236 11.460768592521928 10.83809005199448
