54
Energy = -179.51699095 eV
Pb 11.068769913714737 12.617581140156684 16.43363504366515
Pb 12.03428767866035 9.342043859203734 16.61224888511646
Pb 8.21986415005113 14.108606636946305 16.91963644217257
Pb 13.197619323666968 9.36513022526378 13.498871058179878
Pb 14.804740039206377 7.723563068085336 15.726614717488665
Pb 10.340128809592137 14.413556098577615 19.4664340542436
Pb 11.732180996344006 11.374149293538242 19.5663611621506
Pb 11.802431831101327 12.418282740724221 12.676169005848827
Pb 10.35349700161495 14.617890953686688 10.584232346042256
Pb 12.459305376750093 13.980607183242785 21.81127914879998
Pb 14.550653774790296 9.460927728777946 18.598824885231995
Pb 9.259120529286317 13.973958862091184 13.836607910040064
Pb 8.258449831791769 16.68574068349791 15.087853927166726
Pb 13.157696253123023 14.517032126316689 14.750913600892835
Pb 15.103088702873029 12.109198060516183 12.416627493652271
Pb 16.553374198024372 9.329375663720642 13.460650650059831
Pb 11.073478250186632 17.761860485042032 10.341932990986706
Pb 10.929747844574871 16.11063374537023 16.80257386659155
Pb 14.578348659840886 11.670217033668779 21.093833336255567
Pb 13.10314324881794 12.919111679104896 9.48168870178961
Pb 13.062347328911029 16.66085582317544 19.954980633407224
Pb 17.454266608723067 9.387938686580164 16.72740474815204
Pb 16.391230139893338 12.36210259048286 9.478563937131218
Pb 13.698333892944191 13.872138488139878 18.491946113435805
Pb 11.164754559704567 16.782628171077814 13.484524396562806
Pb 12.033027384482363 15.639679175945309 8.020548884610085
Pb 14.55360074370251 11.294678560500284 15.774356656727608
Pb 12.121864979747368 20.00940657103964 14.420890649625923
Pb 15.54328291227372 14.69876233035838 21.20566135759085
Pb 13.957886357878717 17.59477925763803 16.682479262104888
Pb 16.665600326945682 12.381059258412302 18.387553545068016
Pb 13.638751733819266 15.69305531475475 11.173730307914996
Pb 19.86937294555976 11.505285967632528 17.37483248521269
Pb 15.318322739573395 15.189820388613324 8.09682774778317
Pb 19.806803636128613 10.0471112756449 14.374531639578864
Pb 16.169183184706814 15.30748797528236 15.92428676492031
Pb 17.650171606202527 12.482148300280025 14.995229670372346
Pb 18.754887444043103 12.040602224846031 11.869133943906807
Pb 16.869890084839298 14.920405547222533 12.475889893014001
Pb 18.44524343471295 14.781563738768979 9.397360327990421
Pb 14.883065676296004 18.525871377880296 13.436961214298355
Pb 14.44824064160324 22.028338923785373 13.277858877892118
Pb 12.648091511890966 20.468332639987015 11.151010643590823
Pb 14.832785628828706 20.776559134163975 16.14405184238567
Pb 16.41671521662463 16.66783391813814 18.87984328257312
Pb 19.16281815995076 14.635301631062324 17.487982289438083
Pb 20.87887661084637 13.139936070352464 14.70855464274692
Pb 13.981786435517776 18.242252217136777 8.844582314818586
Pb 15.921047425260062 20.432493130179424 10.835663734360546
Pb 20.174748232084546 14.977037671057063 12.11508306871035
Pb 17.18394055982989 18.537577393077484 16.299114327331946
Pb 16.767280372565747 17.317076347914075 10.31287633131392
Pb 19.065518654162624 16.34760743192437 14.762560610055887
Pb 17.314622288209247 20.66684202057025 13.861388392217775
