52
Energy = -172.05593643 eV
Pb 22.72988576633626 13.74952128927411 17.137172045215124
Pb 20.588622043948337 16.106516986278745 17.452756991626224
Pb 20.08858204955777 13.00697559620115 18.825623888653162
Pb 21.213447112218603 14.630517896671257 14.409343815220138
Pb 20.75168175956885 11.682512501995538 15.780640317077673
Pb 17.446211413264432 18.09034671284843 17.198892322291595
Pb 17.093021354755578 12.213963280781886 20.138373679700738
Pb 17.74523640139167 15.345475912407766 19.04351690343199
Pb 19.335170517947873 17.311686660664556 14.646849713243805
Pb 18.21644570012474 14.090754901426632 15.772280829375012
Pb 18.061608835999323 10.774205075330308 17.424273272360235
Pb 13.45133072218558 19.71191312771011 17.56973130979173
Pb 14.582872642894099 16.65826063927194 17.620333635251665
Pb 18.64861455932974 15.415893304762935 12.108495642292914
Pb 13.759284469961829 11.778094332764438 20.145071363431306
Pb 14.8113662278518 14.711997242088533 20.26129445455286
Pb 15.710099299919728 19.95981874144471 14.98819805356677
Pb 18.86615409572175 12.156101630935666 13.068585582536317
Pb 14.864758673571648 9.811814711290998 17.862412847230534
Pb 16.11795720405895 16.59509875495729 14.556481976244283
Pb 15.342754026173276 13.094020030190569 17.366158365959933
Pb 17.44062841135835 13.113211638107266 10.160782755642172
Pb 16.795658047626084 18.419467203478057 11.850125754932625
Pb 16.200832450834895 10.791979366252042 14.72932365537015
Pb 12.860813184946114 21.5433314520156 15.017871556988089
Pb 15.7934702132029 13.588818125743908 13.083691587336862
Pb 16.234348743710484 16.101496250535977 9.513452930546933
Pb 11.84425149388406 8.854819137341476 16.656304126354136
Pb 13.819682756858155 16.74790748543681 11.664932334149894
Pb 15.965377320399023 10.670005902363021 11.468470364222755
Pb 12.800694028920065 18.13566693361094 14.69926714235681
Pb 11.69580929375597 11.97134856670949 17.799821915022388
Pb 13.906307190217387 20.352981394299135 12.091776258708746
Pb 13.946662804482202 8.388878017773605 14.154458122202373
Pb 10.497453208307071 19.80275635825349 16.360195281984563
Pb 12.791699650844238 11.449147938517795 14.613831767725156
Pb 11.903687705003767 14.475814786897427 13.263838183697324
Pb 12.27989564471685 14.805870680763688 16.47477929745023
Pb 14.691601034238177 18.974755262314435 9.166119487644282
Pb 9.382047597114337 10.972579496908335 15.573298105208586
Pb 10.608397465169299 20.13037751352323 13.09648991580062
Pb 9.773954624365423 16.66280520097628 15.756042171182758
Pb 13.217437580115801 16.238365860070097 8.375116205001286
Pb 11.60695567494851 18.620736439508807 10.13146153646444
Pb 14.021030703734791 13.4640942129883 10.31173186593175
Pb 10.80077469857733 8.659720636883806 13.624682341449958
Pb 9.57622884142233 17.032868963464605 12.532898694905352
Pb 10.808336083551296 15.208094541928467 10.306411527239831
Pb 12.825026346916346 10.012745067281028 11.52001798819581
Pb 9.121853666564665 13.83563418100493 17.283852059729096
Pb 8.734553369511609 14.007232960217689 14.126091665596597
Pb 10.163429932714998 11.741468350674515 12.359010614789076
