52
Energy = -171.89288006 eV
Pb 22.251623765514747 12.539841164209461 18.98278672119568
Pb 22.008833102410886 15.19170058092814 17.086747169580303
Pb 21.132322131968344 12.043267331622035 16.100656097497385
Pb 20.45059661860383 14.918914865860883 20.122339200289492
Pb 20.4205278871801 17.59488455748387 14.971310805376387
Pb 20.459959497127542 14.467478110486796 14.132821187698447
Pb 19.211341175633283 11.600960686510502 19.105255367834417
Pb 19.482979970067177 16.66593230719923 11.724498584451206
Pb 18.506535675753685 10.088500169208755 16.149202655915442
Pb 19.755209358340938 17.43527539605111 18.193505524372664
Pb 18.563314451412623 19.89926193378212 12.758623215482961
Pb 18.539168683999392 19.026293698981675 9.60930123013835
Pb 16.50186305579519 12.373183861160834 15.022627770531976
Pb 18.766993238818184 14.261597645264631 17.102939794732826
Pb 18.116235788590725 17.285075597384502 21.193737628883152
Pb 16.08306471033502 11.013902840743805 18.206784428884113
Pb 17.209294975859844 14.242584225689232 11.8535780022866
Pb 17.53356334214521 15.960841115331387 14.620428101870873
Pb 17.497526044193663 19.271843597065644 15.942011783845265
Pb 15.205364984322886 16.2162150390187 21.928224056113592
Pb 17.358651865974824 15.966680618276854 9.104087852620065
Pb 16.16778096991116 21.02244274851711 10.638908858546136
Pb 17.172503938731023 14.10934369101817 20.068179378781238
Pb 16.242096718851812 17.771844807410993 11.944499317750152
Pb 17.64066672608451 19.92203104119396 19.236836099403
Pb 15.604023252483579 9.218435554300783 15.326215688779133
Pb 14.554302908090007 17.70195021425473 15.264286448834136
Pb 15.443024366227613 18.539500201490196 8.639913385043826
Pb 16.151967848335303 17.042556919254135 18.43021660381616
Pb 14.858887206909248 19.13024890895144 20.638830716106426
Pb 14.88164128263077 14.09823299038671 17.378695481128567
Pb 14.159151604647782 13.37629249677035 20.70921735521334
Pb 14.77953941273641 20.213322256478587 17.599580596546804
Pb 14.234277485523135 15.803536669701595 10.242809088997051
Pb 14.184016963510876 11.329370106451211 13.069635302325556
Pb 15.231678281171186 20.622913851935426 13.789845624229136
Pb 14.387766395115634 14.784444679253664 13.485209550846886
Pb 11.777798565518802 14.809574253741735 15.573180337193907
Pb 12.960055560473094 16.177580542168325 19.53000072766166
Pb 13.314557124594792 11.167374644803813 16.386471139543218
Pb 11.969917752606573 19.377316711345003 14.063733586123082
Pb 11.909772707697794 13.407234070083842 11.70707204673451
Pb 13.39011257862278 19.21341620540613 11.105026297403882
Pb 12.099161697562073 18.426177014131916 17.26245716625481
Pb 11.764515849403852 13.13818968549726 18.589432956057127
Pb 9.550492005531956 17.266414906934166 14.922335058709628
Pb 10.930337577092114 11.622691735047077 14.172928370838006
Pb 11.615978381157728 16.531295173100396 12.378921608911499
Pb 9.13812124558314 12.822493001765224 16.656898495325738
Pb 9.855744991512767 15.953419769213886 18.112172448464744
Pb 9.09346436593403 14.283091454787442 13.48447848674121
Pb 7.389632892222838 15.358376669938433 16.22077193955913
