54
Energy = -179.63812861 eV
Pb 10.903172605347041 11.882399206447708 19.488816231012937
Pb 12.15667068644422 11.688880043073969 16.20727108120132
Pb 13.846526666615858 10.328786385460122 19.62787849911782
Pb 9.101539918928912 12.341734766067912 15.21163535308411
Pb 11.50715035445791 13.097259185053405 13.024882559637463
Pb 12.993923924770751 12.47346887994742 21.98660060789376
Pb 15.181541482885734 12.31065476632617 14.601586944868423
Pb 11.32770648863816 14.943897947099067 20.64027103395525
Pb 14.93504674495464 11.601354713910851 8.366756458812478
Pb 13.645871370680078 13.430425873255153 18.739382602643857
Pb 8.45543839328802 14.7004796923223 12.991764047039764
Pb 16.565804902748624 11.833723215319235 17.58888758171068
Pb 16.682871118132727 18.74981554311093 18.028175520705357
Pb 16.070669695930718 12.450634774498115 20.840205710514628
Pb 17.99491299601893 14.184620310965178 15.262369848518142
Pb 13.258930461707271 16.85089990930817 18.60581888092274
Pb 9.759349260389666 13.775744823211603 10.009805606257038
Pb 17.106915520546 14.014662013527206 9.220823992574871
Pb 14.597888049125691 15.3331646224651 21.269955097046914
Pb 21.05972261010102 13.5145714165536 14.6768178690427
Pb 13.701835645748963 13.732895877216011 10.441442972998423
Pb 8.46915871962132 11.541052686698702 12.087018659416211
Pb 19.799629967252713 11.881948874114025 17.172046415723695
Pb 10.232331484868938 17.03573198901036 11.433193862898241
Pb 10.58973849755574 9.843626992768801 13.717382640442757
Pb 13.301228699528911 18.728049101179714 15.63096144334823
Pb 10.72424458677351 14.629733996448275 17.320140070493697
Pb 18.185535091205338 9.112190299344086 16.63172996153815
Pb 11.339177697951625 19.596504429732832 13.251315223048858
Pb 13.530560822207757 15.224080604994388 15.708196948182986
Pb 14.888506857621483 9.368954238357444 16.332418967272645
Pb 13.295917983785246 16.807757557634694 12.714524619113309
Pb 11.968335517779195 12.784597447661625 7.703250080439437
Pb 11.265596505962288 10.870099444777795 10.534402754479247
Pb 10.56601043702972 16.79922470491795 14.699109482404022
Pb 12.682500032650218 18.8525221247818 10.193267043240192
Pb 16.06521800631957 20.705795225830506 15.468978534980474
Pb 16.12563448964702 14.929632700490089 12.409074389466724
Pb 19.28648399133395 10.918821057316093 14.074466888674909
Pb 19.15749027074595 16.722892365957343 17.230619143082265
Pb 16.561565679684648 17.37720845234926 15.017748676339481
Pb 11.952089369560909 15.98575151474618 8.612676322455329
Pb 14.527427945010553 19.916015766552132 12.680655987541495
Pb 16.16548947622807 15.349185186033068 18.095259684056998
Pb 13.711019423970228 10.124515505609867 12.79448820836573
Pb 19.075091147410813 19.690867712204046 15.9415935673118
Pb 16.73841071023982 9.07924107655229 13.743588232167689
Pb 14.621353086439582 14.584814422443841 7.199954225061889
Pb 16.532564779259427 11.73930080471665 11.519486298259576
Pb 15.305039649992636 16.816715598524883 9.535304704565485
Pb 18.455547795597074 16.752033170076686 11.041880122501372
Pb 19.26388806738263 13.78603660144361 12.045441737326733
Pb 17.90377476190485 19.5046847745885 12.89758026946678
Pb 19.909832858422128 17.039036238454273 14.07108782366948
