50
Energy = -165.46773886 eV
Pb 20.08853321480426 14.650379803990855 12.419897033810848
Pb 17.306222637919358 7.958102599768529 15.967697876814283
Pb 18.355033090581717 14.747630786260608 15.637291931638664
Pb 18.53957382089977 10.092908837394585 13.807610455605317
Pb 17.348532849452223 11.117809146022626 16.757323425517026
Pb 19.104523203158358 12.780833156094827 10.00035120009065
Pb 16.33792933990901 15.08251219173103 18.10565206187126
Pb 16.76539860055889 7.479577394560581 12.844466329518717
Pb 18.115509696111005 17.05284912528014 13.502221791942157
Pb 18.064923056779364 15.79902811272053 10.100418091382222
Pb 14.748580700601817 9.10463780415715 17.50554818572817
Pb 14.353438904773272 12.330698131313348 18.478079948525338
Pb 17.727317928459435 17.860185159653316 16.8648062594629
Pb 14.197544562856724 7.188219898469365 14.972026085204103
Pb 17.278406201154464 13.184396880880612 12.64612142077787
Pb 16.89800092788954 10.387054265140774 10.871997947179542
Pb 15.239407703102083 10.14923390324255 14.219769369729981
Pb 15.252494494850009 13.283537734744517 15.35486899403502
Pb 16.42955847943688 18.54071971195866 11.072014233606026
Pb 15.758094036787268 13.308974554241775 9.38749464298783
Pb 14.355121791565185 17.47856869732227 18.78010053248075
Pb 13.729409591841456 8.020639894818107 11.602974674310236
Pb 15.013421605258364 16.812552826837866 15.380937105415347
Pb 16.408773352984188 19.640623334745083 14.482558596721539
Pb 12.336674211328933 10.99095317589429 16.0738503492194
Pb 15.057510477525774 15.594978596735238 12.023386060161608
Pb 14.362929592328738 9.625874612086598 8.756890978621358
Pb 10.952650762151105 12.361655216026525 18.72486787409012
Pb 15.201257596787304 16.34323644677428 8.577365183893887
Pb 13.528535704809817 11.39105725180392 11.438776219513503
Pb 11.23083406114974 9.555939884136562 13.091556899659365
Pb 12.438909082859766 14.428760223129084 16.681717171337453
Pb 14.207296780223066 20.01629157146535 16.882172520567686
Pb 12.223492200439203 15.19902453225563 19.82843761439965
Pb 13.346472914618088 18.081435816746463 10.468207840080371
Pb 12.561849253058408 14.876645545713645 10.107197101841324
Pb 11.282958287618753 9.15321370466729 9.855815870967483
Pb 9.595238329423143 12.977062173283818 15.790389544115266
Pb 11.956726606862363 13.467604863987903 13.487541692490561
Pb 13.048177598881272 19.681221419781654 13.740190844786367
Pb 11.780811392889374 17.595411985120474 16.214909825708716
Pb 11.807872800855018 16.694933230370477 13.091329796855385
Pb 11.054247375255617 18.23923390017504 19.225526980568095
Pb 12.19007972190304 11.967990125565041 8.525754686968222
Pb 9.265729243376203 15.448303431479934 18.147927609139117
Pb 11.071108084968438 20.759533148907643 16.383370450990395
Pb 10.172590621476838 11.913217929679805 11.095386086644062
Pb 8.860356854682083 16.063793280310083 14.821798001590539
Pb 9.647466016564682 19.101093511494735 13.986155030566675
Pb 8.627356994125648 18.59156716760088 17.03418478578563
