51
Energy = -169.21521322 eV
Pb 8.192261420892981 10.625625645294544 17.912614345384306
Pb 7.011729857888242 12.72539277966373 15.895896064762013
Pb 8.405101168850608 14.043178935855723 18.703932100683307
Pb 9.225711195728826 10.463975007690166 14.655140917028094
Pb 10.57850877943469 11.659868440720265 19.718955881944165
Pb 8.59496691635773 13.457447980014969 13.193699248428928
Pb 11.174810445446314 9.650109094978388 17.20808017161283
Pb 8.103349978583454 15.774440334786954 15.494475406208242
Pb 11.12248875714062 11.701352213248702 12.150890972711709
Pb 10.436049294925873 13.055479249384879 16.393045338542493
Pb 13.465362559843003 9.19652684738877 12.55091364602653
Pb 11.627498929570843 18.992892578965254 11.621352399307526
Pb 10.58013965799418 16.85272594511118 17.268324667633074
Pb 10.975937318127173 15.72329702913751 13.890470514943733
Pb 11.638879283582693 14.670994419306977 19.420390407081833
Pb 13.552052221187958 12.118497164348845 18.33488173539061
Pb 13.676678182081712 13.944774747673394 13.214569638523509
Pb 13.077747007062072 11.164914897801067 15.053162568340355
Pb 12.210887338254535 14.191216944831055 10.393199794846556
Pb 16.086447856938978 9.999666536843474 17.25461175808083
Pb 10.300865775580952 18.981396254862776 14.605097079051918
Pb 16.2175130812045 8.83795901562624 10.9726171200893
Pb 16.24374543598018 8.524939773959163 14.29894873630909
Pb 13.98768626044784 11.441041655127876 10.154289436661116
Pb 13.323430582218093 15.13228763863237 16.539344856636546
Pb 12.393101567363981 21.28028417238698 13.909164576103345
Pb 18.581185799012584 12.073810273848672 17.83590903482711
Pb 18.95280233158519 9.580507582384744 15.817831880328013
Pb 13.518333675642317 17.962808893793337 14.072662948118898
Pb 15.12529960542696 14.042986369120063 8.384241920511371
Pb 12.750098643794553 19.586935010610784 16.791599504676157
Pb 17.348444726156234 11.628186869601839 9.5824272684679
Pb 14.229757251780228 16.809496402314128 10.987278025642558
Pb 18.88686474678442 9.927168664945865 12.597187160593725
Pb 15.988303683030574 14.408185172881435 18.79981478007947
Pb 16.1005091506143 11.607680437857532 12.849966765852724
Pb 16.003194381994344 12.915877032883307 15.942840284241639
Pb 16.81897380635799 14.650596616574743 11.23287560577805
Pb 14.603944574644757 20.257937387825937 11.853606260954999
Pb 16.241222100945453 15.823031787880957 14.466987049365535
Pb 15.43334426491376 20.38183309478672 15.042214057714293
Pb 19.144850762670494 12.661773092577478 14.597211899627013
Pb 18.44486463740675 14.379319793481754 8.137453057480458
Pb 17.17592032800577 18.15082915494587 12.227570237867809
Pb 16.657354436253577 16.97628808782751 8.741326088204271
Pb 15.55211515191422 17.498966526282263 17.25643680870924
Pb 19.78823872663907 13.33114047109988 11.096260146048609
Pb 18.451374562092404 15.328238470160068 17.005106165280903
Pb 19.429703095570694 15.784931823122037 13.524401571377036
Pb 19.503361818730674 16.54395314356719 10.268442005892538
Pb 18.095934282015314 18.394632873322053 15.456014192175076
