55
Energy = -182.49391583 eV
Pb 13.368823691841868 13.99609980707554 13.449175804827917
Pb 7.9128263974685895 8.603691259611173 12.051467001693387
Pb 13.048528382936455 8.356593440017985 16.42858595287183
Pb 7.4722138057930385 13.918939714251188 14.810899118176371
Pb 13.643407831554137 12.210180440526155 10.419723411791365
Pb 13.913747619419985 12.126221720079952 16.26435936764582
Pb 13.406733145517832 17.217193598976266 13.744808520398438
Pb 13.698977967193798 15.6545611249082 10.509815584926832
Pb 16.194774374771633 17.318044140409103 15.672222113574794
Pb 13.55853835023808 10.290772149521123 13.547598480454683
Pb 13.66505119092583 8.7111939393474 10.481201568450423
Pb 11.304058423905749 13.570244196886321 17.855810728631866
Pb 7.6531020471677715 10.423832226891466 15.128484444901384
Pb 16.554557600353913 13.976148281212518 9.599446935770196
Pb 8.246459147684593 12.60691497043556 17.51855788673873
Pb 13.60250957349736 6.948222624350034 13.439623045231334
Pb 16.54109348101952 10.70293688568788 9.636271198241127
Pb 16.965652956339458 10.671558242174397 15.408782268936662
Pb 10.464359654192458 12.26430455143876 14.649440316705748
Pb 7.979670165536009 13.82966162459529 9.103828192023743
Pb 16.033980105122605 7.5714888900030655 15.47346336921495
Pb 10.471327924578755 15.626848645760681 14.498999013215613
Pb 8.074354968482977 10.423110575864415 9.117663788997024
Pb 13.637062002595746 15.680883969552353 16.729506062317643
Pb 10.501004978503849 8.642522266972087 14.244497637036023
Pb 10.973398388358342 12.118302003782906 8.241075443936303
Pb 16.60880774250448 14.117597878687375 15.877192915806194
Pb 16.257311236849745 12.385415533054072 12.65159375570111
Pb 16.568249953864303 12.207838502170647 6.705806756373594
Pb 8.332338986073848 12.216385448202306 5.995027074155624
Pb 16.212444989340284 15.686706637219034 12.83351575077914
Pb 11.029688902279004 15.583363868840998 8.396942673985983
Pb 8.465323614518413 15.484690305600923 6.348142581691902
Pb 16.403157977464833 8.806006197353954 12.569482650536369
Pb 8.30392689743735 17.13580255866185 9.163683612218092
Pb 8.5805168831551 8.947242284315562 6.26195567045097
Pb 10.71527556055658 13.844238454071814 11.285777744673862
Pb 11.1285159350001 8.593091890660864 8.223319632406097
Pb 11.18416094940666 13.924456919773768 5.2390639461376995
Pb 10.81166961778178 17.27659134812852 11.437179506184192
Pb 8.306520785720782 7.186891142943492 9.053341573736612
Pb 11.263291185406382 10.50689111928912 5.143023201032895
Pb 10.822266023559514 10.402333146914742 11.311528843960238
Pb 13.917994519160032 13.976697796420892 7.464189132703727
Pb 13.984697224736511 12.250678095472813 4.698567045746832
Pb 10.746656621714985 6.984332170875588 11.235728777057306
Pb 13.911129694068608 10.426464236141074 7.425078645299858
Pb 16.190023988499547 12.753957257837833 18.883646959621096
Pb 7.9759858808808675 12.055939314814587 12.155697653544234
Pb 10.344906723237354 10.27680546597737 17.28676588437887
Pb 16.323675276136854 16.040735550218308 18.62345420611747
Pb 7.987707341826461 15.67936945558554 12.066152907342152
Pb 13.763141123644495 14.64681194716222 19.920782168420097
Pb 15.596070526804544 9.52847711747209 18.113333507580464
Pb 13.168885948888846 11.404273351318892 19.395274251165365
