5
Energy = -13.94553115 eV
Pb 14.035609775211872 10.464359740190586 12.470029925930856
Pb 10.393580018665626 13.80653475108955 10.706492706583948
Pb 12.889246421084442 13.953576081578097 12.349110169389647
Pb 13.042467981265961 12.18967443570477 14.749204937595298
Pb 11.250846550874728 11.214613325510467 11.82715216673616
