55
Energy = -182.50571929 eV
Pb 6.383995571580037 9.20377971195483 13.792858266784028
Pb 15.256768876456102 13.095068145137317 9.956334359383376
Pb 11.881617086601 7.878713016299236 15.686719962903682
Pb 9.520519896828365 10.620793923011792 8.758521120021541
Pb 15.412716068384917 13.557873978544334 13.553545327361563
Pb 12.213795922533684 13.022914959217879 5.6951241948139035
Pb 9.226794232999534 10.214161142165278 12.2772121186391
Pb 6.619624739855795 9.612432373928725 10.327166257590513
Pb 12.079587439789742 13.628076022544139 8.849053158844217
Pb 12.098044791299012 10.670249287153794 17.6237249432441
Pb 9.313571858447267 9.926397064593 15.831651590515298
Pb 12.591360845854954 14.835929039769452 12.066843655785899
Pb 9.872837097457406 16.314274835381866 9.263762030379938
Pb 6.330923633153212 14.95837340105314 11.08306050982936
Pb 12.459898702018736 14.026393423246963 15.40425058795915
Pb 8.987480300199712 16.188821685603937 12.568684543819069
Pb 12.563956396644587 10.152910704980211 7.3020546741959516
Pb 18.047841677591986 11.373140310731328 9.036217729477192
Pb 15.416428022308448 9.30214062484881 8.977622575667667
Pb 12.313599952575442 10.731521294665834 10.640210552720907
Pb 18.99739979956086 11.959856154597766 12.289773581883983
Pb 15.389641629993577 10.436070411094303 12.236136945347285
Pb 12.313044994402363 10.787527137594429 14.101085455444915
Pb 6.504876778706049 12.504369114727627 9.103900261081812
Pb 15.0034595963718 11.236663130202697 15.98738463631113
Pb 11.632261536407606 16.112587364210487 6.516979305288147
Pb 6.7118446005911965 11.933068105456684 15.611841068624335
Pb 14.699842032378209 14.996888094016617 7.153986228810973
Pb 13.085201397343408 16.79990697661133 9.395539131752592
Pb 9.780153608340612 12.867297040428035 17.623244188194693
Pb 15.84906348269773 16.124148308348698 11.377740793214503
Pb 11.664035326630126 17.197195666996308 14.269861203903858
Pb 12.972554373438097 13.62278839395415 18.58167437181029
Pb 9.340443875453344 7.506670930496053 10.320963095119387
Pb 18.126029337126536 8.90024861955712 11.22585972602072
Pb 18.031097275860844 12.708546854146642 15.493955545935961
Pb 9.111206262599444 7.165576698414393 13.665736109370918
Pb 17.791313553400062 9.65283010700256 14.382966262498773
Pb 15.555234141359502 14.676505104446568 16.864749738384088
Pb 9.192339955358687 13.959949103971839 7.186470136248164
Pb 18.232867808799433 14.37175571511503 10.094469572930382
Pb 6.52054088352929 14.750503681065842 14.257164193052244
Pb 9.249310664209476 13.336728997423801 10.738145694627793
Pb 6.517291032635847 6.812073322800164 11.67235858660783
Pb 9.432739595806208 15.706598367389324 16.134215420343754
Pb 9.462965277729689 13.024453934087393 14.22358697261439
Pb 5.405541697697632 12.11544797904323 12.410124553777619
Pb 12.736866568604215 16.640456143520993 17.26799832394021
Pb 15.357412199755434 7.0874986892324 11.508649550285767
Pb 12.673434813263247 7.5502722078811235 9.34857118567458
Pb 14.845771949380904 16.739548078886745 14.525345602771434
Pb 14.90863446851364 8.045300714947091 14.51863701650433
Pb 12.149953939107005 7.855571174999631 12.439876054165135
Pb 18.272427535724262 15.061787223340627 13.33321701583064
Pb 15.315419732096121 11.862930346613323 6.866759149143489
