50
Energy = -165.32244491 eV
Pb 9.026664636714457 13.060999996580128 13.113903099894742
Pb 10.852458308848725 15.732568265109812 14.186483690936326
Pb 13.621900064095914 16.862107247252183 12.11328807157097
Pb 12.24188132131334 19.44466311597391 13.79414846657277
Pb 8.148187265539441 11.075290027962007 15.553397893504147
Pb 9.950633302000188 9.796168421799495 13.206615375133108
Pb 13.53628263341102 22.42296707802542 13.785034648390315
Pb 11.852443602380538 13.977066617865129 11.47986564932427
Pb 11.56177726814684 12.168415781855753 15.127386321015416
Pb 13.40671103310111 20.68251445144271 16.696894694047295
Pb 14.690412682271967 20.168979629688184 11.693001648808018
Pb 10.400493490263301 8.990554674572358 16.388563001916815
Pb 8.838484764596796 14.127020302398542 16.252230188305916
Pb 12.558776063777831 10.814314584838806 11.551999511395712
Pb 11.983404960519763 17.775526058037034 16.524182793420334
Pb 15.82466690651185 17.210345979248043 9.734978720464069
Pb 14.115555260995636 15.714035781387768 15.089147988535554
Pb 15.557054750580795 18.779381909885583 14.529296050313059
Pb 14.628591225663113 14.257721934857083 9.923417142306608
Pb 10.142020396859209 11.70572503785242 18.238489423997954
Pb 15.290778484017679 23.215279847751574 16.26063101469373
Pb 17.89988674715796 18.926813545072118 11.88683739666661
Pb 13.094108377106151 9.048366759830143 14.331665729440349
Pb 16.800321729160668 21.763519029920054 13.803411451035615
Pb 14.639931742318266 12.825408644699243 13.160174554746039
Pb 18.892804665464865 16.462490817807737 9.9973639130438
Pb 15.643711574727096 9.788297840799931 12.33665371521154
Pb 11.752785203796352 14.698425580014007 17.67562678008827
Pb 16.873595930245752 15.317169168131597 12.323125248351625
Pb 16.795344507067174 20.550305680260138 17.04694048533284
Pb 20.327797809811393 16.749160504713267 12.88711042686967
Pb 16.8915416053651 12.228298186643709 10.588331691718144
Pb 13.287011747462266 9.914284292479847 17.621192569912683
Pb 19.06017535621654 19.20426268827134 14.932555955651344
Pb 15.389844637641012 17.430592216918235 17.58442652627298
Pb 13.055814549209156 12.183002783536157 19.911992530106534
Pb 14.928191541287601 13.165804273306103 17.08928356950009
Pb 17.960198124803856 15.75788907810361 15.556374200402935
Pb 15.998174970823802 10.146526113466061 15.6824711365758
Pb 19.693102431929635 13.618445483814543 11.463503670191011
Pb 18.167017886102858 11.65092051460462 13.600795387218838
Pb 14.350985815787903 15.178172589914041 19.813426745900344
Pb 16.152835867014577 10.872002498358212 19.17543761126932
Pb 18.759478565849314 17.68607546813288 18.02560319292087
Pb 21.1727534205324 16.95108069356921 15.974102158515347
Pb 17.37136975511671 14.391590293583281 19.193979614892037
Pb 20.594039159148213 13.807565430317121 14.78917951979649
Pb 18.275288905351047 12.2996537957752 16.823251255204603
Pb 15.696513316984499 12.830093634624433 21.58468197717205
Pb 20.344643906409583 14.67058392045072 17.99599386294591
