54
Energy = -178.97035791 eV
Pb 16.7450747942831 8.420277888382955 16.325026400711028
Pb 19.171199560025556 10.528328536919375 16.40692612613746
Pb 12.146135844984661 11.445220832444452 19.438126406930095
Pb 19.045289219135885 8.46678295565437 13.973137809143097
Pb 11.081737538231103 9.380702044388181 17.151507945971616
Pb 17.050663499896658 13.226761597352791 17.969583708001817
Pb 13.666071944702743 8.04492081525457 15.283724333925216
Pb 8.86520414477305 11.117090814741736 18.932172976644935
Pb 14.041709542958607 10.973634920454355 16.835402727046148
Pb 16.017689858508195 7.825589508668629 12.986992567975602
Pb 19.760908952438285 11.662971123676181 13.326823143498542
Pb 13.560018099985662 14.40767747070485 17.827671761386522
Pb 16.74701307368247 11.17938627309116 14.448639587692595
Pb 10.044183503560243 13.94494487634934 19.774716273818026
Pb 19.015837283967226 13.996905791163755 15.541204637313115
Pb 18.896515371369855 16.105704075105997 18.054114725109336
Pb 10.86738701816647 12.932378594782792 16.6395806766251
Pb 8.464044320809812 10.838324012175539 15.78007982982845
Pb 15.966587058569498 15.997955853027113 19.33869385482588
Pb 11.863003312568106 10.773636697024376 14.165776318159608
Pb 17.768021992194335 10.086770909927589 11.30492073286692
Pb 12.897296492964442 8.332446392415648 12.213023508731162
Pb 13.887353579795466 13.382973912761095 14.466781340152982
Pb 14.608762541892919 11.24630038862742 11.91024591680316
Pb 7.726441488257091 13.839707768505505 17.361282262208707
Pb 15.006075911795758 8.97699950876301 9.79190173126611
Pb 10.286344497043817 16.344253111688893 17.78677842554409
Pb 16.15271965669416 15.660932350480662 16.021946197260345
Pb 13.553831299079395 17.866619103127473 16.59245089522776
Pb 8.470564588154552 13.481090313455256 13.935409416180613
Pb 12.91224607194504 11.762175028966828 8.85150550715326
Pb 11.419986343917294 13.817862963835168 12.086481616493767
Pb 18.463470759906972 13.181222468489906 10.158695959231785
Pb 16.09574260690927 11.909728488882031 8.360671515333502
Pb 16.833826756277524 18.625605454745504 17.570731359471658
Pb 18.609519131570867 17.55098624904959 14.975393347246143
Pb 18.913404777810413 16.233718781860876 10.289853989465122
Pb 14.621712687906799 14.254599522056306 10.376717043877726
Pb 17.182958395235623 14.771308899316164 12.839773373163933
Pb 10.13138526670364 19.024809037759155 16.13268271617455
Pb 11.097762041431228 16.135683157788957 14.547732087152706
Pb 7.84395753539327 16.582088761693175 15.280531682184808
Pb 14.33665782877424 16.67002186253161 13.213986562439079
Pb 16.82807542699477 15.305625431432423 8.024259145744985
Pb 8.636835204565296 15.902116791648314 12.026861023646612
Pb 14.126798231647651 14.022819795667134 6.840513101027808
Pb 11.540078199819032 14.709527461673161 8.811555905151437
Pb 12.393088571981275 19.465792564597148 13.820895969803795
Pb 15.796433202829274 19.465402322176285 14.612931633361057
Pb 17.11432310545687 18.13887797579059 11.997053763610536
Pb 9.195466869256476 18.82354660820186 13.083867579883716
Pb 11.634615510303647 17.1457020754322 11.239158741150359
Pb 13.964193780359313 16.848649906206525 8.577896516335024
Pb 14.207602488779754 19.111085190054503 11.033801575171735
