54
Energy = -179.63145823 eV
Pb 15.514148982302736 10.5149905547985 12.137193984843023
Pb 14.671407519296409 7.545959975561632 14.00917493114527
Pb 12.471059369322992 9.644777987085112 12.181030081765151
Pb 17.37418026554471 8.720829326936464 15.171585935844355
Pb 13.501348419341372 10.430677177690784 9.21176045010005
Pb 15.219121527979896 7.477819992438142 17.24094262418649
Pb 15.809868254424854 12.659146688191912 9.465492271839036
Pb 19.78569107585476 12.7670326707755 12.207459552416736
Pb 12.22544489920806 8.044559101368717 15.991126886771259
Pb 20.93242830481575 12.598298994269484 15.332018238917408
Pb 22.05014144725096 14.90844372403221 13.379074792905651
Pb 13.33206400183728 12.925821400785763 11.60127608155411
Pb 9.956819933864539 10.004036294707015 14.090351639316538
Pb 16.74021528869318 10.351571592041331 17.905625140128212
Pb 14.426706097332932 10.453787880765816 15.498486243759915
Pb 12.840770239424268 13.736571189625668 8.37851014388808
Pb 10.67122706868825 11.636626805152988 10.012724371661175
Pb 13.510739818151603 9.785898278662554 18.72755172269662
Pb 19.7257199172539 15.815003903504586 11.176376446444097
Pb 15.274138083310046 15.849217468313888 9.5748270776079
Pb 21.064029203252662 15.819421842259395 16.48742467199002
Pb 17.682347564103143 11.937016530408577 14.677991238957217
Pb 16.688164636773138 14.337540843121761 12.26321921761716
Pb 18.764796884130536 15.25712186857111 14.49024088284818
Pb 18.632501413151196 13.286614982412914 17.59387366236524
Pb 12.472138445654686 17.2659288585455 9.456565034822333
Pb 20.72720962848206 17.80054008915851 13.594088371671553
Pb 15.558932974876933 13.916955094347529 16.41843424250433
Pb 10.542486320287491 10.674411512029376 17.180713153321495
Pb 11.771498776520113 12.648035555306942 14.640177900347853
Pb 17.411917234952632 17.778413702307272 12.454239519459094
Pb 10.58678449646317 14.967213190040592 10.667974417395405
Pb 17.6132430790215 16.34407419044581 17.74696071855578
Pb 13.414880986543388 16.144834458359973 12.505285684130063
Pb 15.284120134154607 12.903063743448564 19.432584670446534
Pb 9.080776501955862 12.745632316806937 12.681274880860666
Pb 14.104538158260356 19.22252932071312 11.686704646547254
Pb 15.616801998820863 16.86962945557393 15.045649800443487
Pb 12.348575626803813 13.043523417449094 18.484835062258067
Pb 18.282665661821586 18.71724158383078 15.584496365150368
Pb 12.384517958793953 15.543744069790213 16.1424304451056
Pb 14.292989521106728 16.389348488904997 18.796192982500582
Pb 10.913824685761288 18.34344351606504 12.160993103083273
Pb 9.86019588487992 15.627067404921771 13.880571402375553
Pb 9.629728516981451 13.875375638325197 17.021479838113294
Pb 12.771387859151142 18.664687573838517 15.042509068176793
Pb 15.476295111763505 20.586436205750235 14.354186660976852
Pb 12.241093280027082 21.431625433276803 13.417397519009524
Pb 15.253844267011752 19.29501934601017 17.514644091364023
Pb 10.996281412048855 15.971433296963744 19.171362538239535
Pb 9.68035942274487 17.449441144512253 16.599739241374074
Pb 12.05632996487547 19.152131521396697 18.339956205123297
Pb 10.323394687634863 20.6947490227411 15.909426780806879
Pb 13.323090188780576 21.717953800198465 16.56131025738373
