5
Energy = -12.94956494 eV
Pb 11.622014513635811 10.321041119393435 8.064238093844605
Pb 13.422092163494732 13.239332749021523 12.502887853072467
Pb 11.912312255044693 11.349643965137183 10.735006739147543
Pb 10.828674154300984 11.569445801040247 13.51778162764417
Pb 12.253952037337507 13.559581489221024 15.219130810105073
