51
Energy = -169.44161536 eV
Pb 11.353187416961415 14.121304468507661 9.507644265235093
Pb 13.816280243265433 15.614250248859697 7.842961037491557
Pb 14.042888439658512 12.38184334287257 9.029128024317087
Pb 11.668668270614498 17.36624152987649 9.71277086566502
Pb 11.666303311730744 15.252808523499947 12.521838096320463
Pb 12.47004248279816 11.792775973418312 11.806233062479805
Pb 14.511101786303888 18.637367200218318 8.669816322892503
Pb 14.5927090780545 16.3785829789675 11.140240506693425
Pb 8.438506989156972 15.782718153724508 13.309304209643178
Pb 16.66698368706244 14.662303001342693 8.967754199340897
Pb 10.364784541695453 18.445259126758724 12.920847811996039
Pb 15.127037732624709 9.836550491871796 11.326567950422934
Pb 13.841212341823438 10.057066951912125 14.447006084461162
Pb 17.03175591571996 8.787268006316188 14.18640429112054
Pb 13.312190908481487 13.40163573050717 14.705928881715643
Pb 17.088189673787962 11.510146699454381 9.117009804718426
Pb 8.130224232197858 18.27369517063335 15.444090782198355
Pb 9.822404272620041 13.151943154142204 14.629989285352012
Pb 13.644564571925306 17.915793129789716 14.392993194433966
Pb 13.383293130115888 19.72322197599309 11.546474760066708
Pb 15.716694209569436 13.180271621010487 11.899900245836987
Pb 16.665991224331094 19.04330072852623 11.030140592588264
Pb 8.065821523866864 15.22738659096788 16.59859348871684
Pb 17.972401141690902 15.987653450132163 11.66922969579943
Pb 11.014488237948314 16.393971182035706 15.70535035049695
Pb 18.189768510386234 10.925934114337927 11.942179189317253
Pb 11.047115330728833 19.871084378821045 15.7882946885008
Pb 16.337587273551062 15.479331732830023 14.532955816119838
Pb 9.568346449264931 17.98321778326719 18.23593702154243
Pb 15.643996465592142 20.40153510223484 13.852786571383954
Pb 18.112924650226848 18.29637549368376 13.873666463687591
Pb 10.968766995726083 13.48650122364357 17.564247099542502
Pb 16.57895451589556 11.854468404754348 15.077541636852594
Pb 13.644647002186627 11.614249214985906 17.74927004248314
Pb 14.079523701499413 15.341550360801676 17.235692648768687
Pb 19.285745552569637 13.99847786951958 14.081542905889426
Pb 15.341634530012467 9.011746453827518 17.134476606449763
Pb 13.040140901691403 18.48446006223926 17.923592451894176
Pb 19.759601311513986 10.740554361266396 14.671613370877669
Pb 16.187732529256877 18.179368037140893 16.47582361209071
Pb 18.952824088665864 15.98654763277367 16.701582337520293
Pb 11.778646943420641 15.976548959295553 19.486273463939
Pb 14.425489155943067 13.685639660560916 20.096550136756854
Pb 17.176511025277062 13.27779154828599 18.00863589246118
Pb 18.395436172568804 9.854609617306945 17.49806658970605
Pb 16.75522930616543 16.2246120720944 19.41485723984492
Pb 16.143964495695368 10.75829973877723 20.00633440475394
Pb 20.465691300878024 12.887179387826547 17.09760064242687
Pb 19.76975091285876 14.836661066282748 19.71391891547828
Pb 17.34652820036553 13.699533849320428 21.466057653515904
Pb 19.412201171896644 11.632721947572936 20.03388574504207
