52
Energy = -172.58509541 eV
Pb 19.128538812672762 13.167278695606303 11.354564020650452
Pb 18.553611525644282 16.281756449711015 12.273328594292172
Pb 21.153124821371005 14.617172693210074 13.507508214084982
Pb 16.509681785544977 15.05329162928485 9.077076751760838
Pb 17.576209566122635 18.958304411761628 14.21234884584183
Pb 15.687132060671242 11.819154415630745 9.871482662794948
Pb 15.047130299707323 17.610583141600767 10.669849210556771
Pb 19.754405362521947 16.897488862077484 15.429539569744696
Pb 20.338171616471318 11.546592891803602 13.969729037809444
Pb 14.123319596963988 13.502659908839187 7.406308329257598
Pb 13.996846761258492 16.658876631006233 7.645445666609321
Pb 18.00983654795351 13.953954708236868 14.92411882703785
Pb 20.5656139123275 13.395224218674715 16.69145819291719
Pb 17.24568869747039 10.799708440997977 12.978336364682932
Pb 15.321450880399084 16.70750618175193 14.116996850002787
Pb 18.54581596857557 15.790800842104325 18.230030548763242
Pb 13.273932093699313 14.767947633480006 10.536202826037986
Pb 13.901675053149972 9.074543091728446 10.62239810195875
Pb 16.861397653557763 18.49881209952617 17.284338174769218
Pb 14.440762796486917 19.701703265747383 15.272285961761186
Pb 16.02041090886248 14.030146192498623 12.233939895017187
Pb 11.790589292439419 17.734033736991503 9.64967465984053
Pb 12.177752440405461 11.441518012849398 9.088859780739599
Pb 11.103500142777982 14.907232035014063 8.19309633772199
Pb 18.24154485150765 10.694949178404592 16.31139455221882
Pb 17.52892358581174 12.855098200824038 18.645979537909287
Pb 10.664184004039921 9.241471326000983 10.823702176841753
Pb 15.44970537167311 9.059847330037906 15.13478207044881
Pb 12.315062224188729 17.98181620707386 12.959174239131428
Pb 15.08050399051388 12.304968969544895 15.126865800598262
Pb 12.42661555042374 8.352189917407921 13.38634715909368
Pb 15.455959316631185 16.999587021078597 19.695145496200116
Pb 11.244047485146485 19.885559462847766 15.803627967133968
Pb 15.52575388689089 15.059229996818992 17.12308700018399
Pb 12.773318806795233 11.507204616186476 12.527737095159596
Pb 12.723189667470406 16.95064150184482 16.251273331886527
Pb 9.954820032712343 15.784405017958457 11.512107362831411
Pb 15.233867536032557 10.425476139324742 18.171858660178923
Pb 13.376402568514996 19.28849206607282 18.466463353017726
Pb 9.841742139549936 12.468416512465158 11.21359961854567
Pb 12.191585286013705 14.750676110392076 13.719873562976257
Pb 14.44381087134509 13.446910547343023 19.82490174985682
Pb 12.607603965406435 10.314002608704206 16.090720163589015
Pb 12.34588691855375 13.560813752084526 16.932761014901406
Pb 9.877317590887108 10.407482705427123 13.886859053366287
Pb 9.666385845100113 17.001926922034777 15.011788279960372
Pb 12.27605638992875 16.027816741343273 19.394088373901905
Pb 10.087575315596606 18.20049979035134 18.197642148726963
Pb 12.19125617802035 11.257269472185655 19.27197716128336
Pb 9.392586123875436 13.718250762970722 14.759888537570038
Pb 9.505652228566682 14.944311434515361 17.941986395710035
Pb 9.656964528041971 11.624609375296288 17.194155613982463
