54
Energy = -178.23180114 eV
Pb 21.463030651847358 15.412339707721372 16.20993367360158
Pb 20.139112802231928 18.375593187128572 15.859381035437487
Pb 18.05241754445459 19.738788793383286 18.00435303849389
Pb 21.472278727997704 16.796084942796867 13.31135337882889
Pb 18.70448465301581 16.342589710387813 18.495211904854855
Pb 16.992380464463004 15.215194298798242 21.148315993829268
Pb 16.632899672000825 18.279089368104664 20.425943550721414
Pb 20.85830635697755 13.653738108540724 13.365927805031024
Pb 19.856962586749887 12.57727724284017 16.62689903961947
Pb 18.752687125779065 18.6072646942459 12.92517516830428
Pb 18.47174096132666 15.466268368950127 14.767115980555142
Pb 17.521837377922953 12.87833804485994 18.919022415710334
Pb 16.548317863016308 18.149174917347803 15.5757651391722
Pb 15.9521089743893 21.419998022715674 16.144375304033066
Pb 13.970740208152188 16.561604784212133 20.72795038055073
Pb 19.403140128314277 10.74445276279799 13.998724807787223
Pb 15.894232036799243 20.112256800389183 12.92583383514275
Pb 19.00287006503707 15.783418483294735 11.39627064809466
Pb 15.596739677543159 15.47483849496629 17.93732573379553
Pb 18.17805940960605 9.706166570054087 16.941260617384664
Pb 14.504112223790587 18.927202407651187 17.934628883455442
Pb 14.534807094018724 13.28618729256813 20.090998970311606
Pb 17.242736587440984 13.111739147396996 12.217339366391375
Pb 16.633799019816493 12.394398559233158 15.33362498300214
Pb 14.927140463352638 18.235620342558484 10.168319400500465
Pb 18.386929603908346 7.749997215920339 14.34981010119303
Pb 13.38852277277424 21.952784503045972 14.203026174802364
Pb 16.555039717480618 9.838364194912685 12.654176552522587
Pb 12.920350345764545 21.753975370882785 17.33404108728712
Pb 15.791617670382488 16.551051399970564 12.787110957156617
Pb 10.78890559895683 20.167292129798078 15.16665962154327
Pb 11.2668528112425 18.996106517048585 18.166564479080662
Pb 12.050718891810693 15.793845929829788 18.25833665643392
Pb 13.698244324552855 10.759792996308194 14.07489024330115
Pb 12.78259109523039 17.243774131916844 15.296332596082596
Pb 15.499057632235417 8.324399636882498 15.425622913145348
Pb 15.728220163404076 15.114819699173824 9.799087384368043
Pb 13.233182729649311 13.470468658986185 16.0552235990494
Pb 12.76007412120951 19.28501058407081 12.523789413006567
Pb 15.148060526857652 10.7725577646939 17.712816488300668
Pb 13.851797132134804 13.72482515225622 12.355168721580464
Pb 9.806310699407115 13.8768473394187 17.10273716729249
Pb 11.947060603069135 11.787376276791724 18.567068241500646
Pb 9.539244491719659 17.050430873550045 16.210024047643955
Pb 12.596233622950658 8.99924991128393 16.805990340151528
Pb 13.782638092386243 10.951007168541416 10.642677049226133
Pb 10.167196837019933 17.441120696206525 13.035209735872664
Pb 12.430563705316588 16.335309583479997 10.735964629544847
Pb 10.8327718961481 14.395443924302567 13.962911744706329
Pb 13.016107315833448 13.633111583950654 8.924885391546843
Pb 10.938497219730065 11.454204113806094 12.207702720490081
Pb 10.619175351368751 11.189489352144173 15.507081771047247
Pb 10.094805979378755 14.180952389052816 10.560507092210353
Pb 10.873200242880749 11.377538995148981 9.10443901147834
