52
Energy = -171.56237838 eV
Pb 15.44050590227128 15.33261428791179 19.66078459843693
Pb 15.482034235737352 17.150611330584518 22.233583616101225
Pb 19.556302101051116 12.36003319078283 17.229631920985575
Pb 17.343086596152077 18.147732991707066 19.786310950815388
Pb 15.735704902342592 8.249103811625009 17.754143611218066
Pb 16.545787287261135 11.41594573298073 18.203537160636433
Pb 18.71164601475975 15.438739711325026 18.27001712916478
Pb 12.040191488265693 13.484982378220428 19.640484096450063
Pb 12.518235585421229 16.250855368426087 21.31419510527315
Pb 13.369579015207515 10.523423516915578 18.343014256778833
Pb 18.26180134987826 9.346777249934865 15.962236571126752
Pb 15.965573311254577 17.1499375953698 16.924727093347112
Pb 15.940674624500996 7.3326142360068065 14.606469250414488
Pb 14.069126069207138 18.747440648720687 19.863688575936024
Pb 13.03860454477567 8.211817083735102 15.974717495074886
Pb 19.691163350509605 18.232424510872118 16.720470238439766
Pb 17.12973831244636 14.00380278056918 15.756522025191181
Pb 15.264972334908611 10.73894891282412 15.220006825866081
Pb 9.663396645068977 15.833538992424456 19.24945364934416
Pb 9.985322960896955 13.683443487143146 17.021968839418584
Pb 20.72312520000734 15.163506387271987 15.667636598900474
Pb 19.477614704510707 11.917168886644022 14.127306442528589
Pb 13.97695633777252 13.476453268045107 17.00569348796839
Pb 12.558588631532928 16.427946048896686 17.98306864465925
Pb 11.83388760791791 11.35319092901384 15.44081235716656
Pb 17.130473971091554 9.780370000188073 12.745693495212103
Pb 13.90263368974626 13.682632218516858 13.724072014719528
Pb 20.146523912700864 14.863142774961428 12.44960751592964
Pb 10.668626517590207 14.58439611776775 13.905930265603581
Pb 17.100585635984686 20.256511408198953 16.877720651122402
Pb 13.626956635327092 8.964035876146378 12.905615574063013
Pb 13.061770989549967 16.828198952376145 14.803887601067224
Pb 17.875018189751426 16.672924260054 13.936863170566921
Pb 13.922967330800775 19.93349041948111 16.93041298958098
Pb 17.099534305926035 13.362224627493529 12.403134932276563
Pb 21.004503233754637 17.797817256315344 13.810139229110668
Pb 9.808973834786 16.91532408552745 16.15262314030043
Pb 14.650730372039092 11.505520357973145 11.127277517908796
Pb 11.687767027811812 11.841839419881698 12.22275071185772
Pb 15.047172020457742 19.682266579640114 13.923844926209545
Pb 15.01616469719803 16.46770914249218 12.09711085214871
Pb 18.503174481096693 19.785209916045666 13.953537901505687
Pb 11.637559522582725 19.733909915027596 14.676919112502688
Pb 15.484421384684238 14.248002017002447 9.529649607003565
Pb 12.45530953003519 15.186808235991583 10.65060136899558
Pb 10.634689528679095 17.59561243855013 12.496025264533001
Pb 17.811494285440475 16.288542910207752 10.519610360772036
Pb 12.583867152450946 20.22023955453372 11.590654497757763
Pb 16.043103407708823 19.307873169857867 10.856496564247534
Pb 14.50245157891758 17.140427296250774 8.729130215455658
Pb 11.371698292837012 18.045918653600992 9.38720072073672
Pb 13.720242722188999 20.135672399001756 8.702726115982431
