55
Energy = -182.57066799 eV
Pb 14.768283413848257 7.235215547729146 8.301343839312068
Pb 16.517768599517357 14.038226939469489 14.988701289379717
Pb 10.52465330152806 10.726233578484697 14.283999890682695
Pb 6.642947880484349 13.648720047923101 14.66430411797113
Pb 10.087431251349857 9.483503417834878 17.55221131009726
Pb 15.132273536797028 11.219628649837329 6.761149235258774
Pb 16.186386191399926 10.822980401860029 13.68680002741163
Pb 12.393636900310973 11.992593841720069 17.870439618286518
Pb 11.647618128123135 15.115838392710168 17.03347172146571
Pb 9.562876444040679 9.729020373237754 8.134375230007986
Pb 14.340108390376852 16.403300704962486 8.948671876294444
Pb 10.630545147673663 17.328578994500027 14.579435574178213
Pb 11.802739597445138 15.546110626995763 6.05279106528155
Pb 9.808249766775425 5.323158659368166 12.259831743000415
Pb 7.02606128798521 8.653711287270962 10.172628528612927
Pb 15.435117361172972 11.388612582554073 16.824830139377287
Pb 7.056357894361962 14.413059586562705 11.532480918255246
Pb 10.201846857250102 8.463955416281172 11.53355922894995
Pb 12.653593491977691 13.027850979341368 8.003571358040285
Pb 11.707959030684652 7.180487232256055 7.314817331805515
Pb 16.234152318158685 13.726892645042513 9.09908664427663
Pb 7.356446860298746 7.499398175884054 13.104829978335857
Pb 14.764719197343895 14.389829323020404 17.662095242765183
Pb 14.0292424495505 16.229456366942003 14.987202353291542
Pb 9.391397725085136 16.898866982123455 11.474113632983677
Pb 7.560691339298439 9.6816379717889 15.519081215631177
Pb 12.843634672974755 9.795275637414225 9.12312819910336
Pb 12.443330000871669 5.536550486175466 10.124458908779634
Pb 9.56236783478679 14.335244211034347 8.815805186238691
Pb 7.302038705557641 11.76713325239182 9.233631719071223
Pb 10.069249880668957 12.70797888207582 5.918393447442958
Pb 13.306186102706596 9.373056606844555 12.643340953068423
Pb 9.16161477412865 12.509291192697672 16.76947797373994
Pb 9.211912123834646 6.385801441001164 9.147751815289668
Pb 7.226125253221371 16.75412216852723 13.83405820636995
Pb 10.023563967905032 7.348754395797439 14.999945114131567
Pb 13.319222172433843 12.919463391868007 14.723601730066513
Pb 15.28964157554861 6.828414095939747 11.390937289538911
Pb 17.53128593467152 13.14196372041713 11.965892155309442
Pb 12.840885956201541 8.953221230936906 16.094457458825527
Pb 14.320443711684023 12.217237269083016 11.32084550989149
Pb 15.299226583587298 7.68229425937122 14.493617768938268
Pb 12.072252337035096 14.769261084013893 11.067839037184903
Pb 11.249884155021945 17.203454844058683 8.906386282768194
Pb 12.898098175051048 17.661853045109684 12.022209138550979
Pb 8.492315578136859 15.728356053174828 16.529587517720472
Pb 9.719220611188547 14.22149171479079 13.644068616647147
Pb 12.787866203095934 5.9073467865037115 13.42393483193837
Pb 16.066173368749176 9.831565607356131 9.849869010015484
Pb 12.997783099244693 12.967662013932634 4.464185026378773
Pb 7.555837154316906 11.07351836021212 12.455387538134492
Pb 15.020193071218452 14.624659255470274 6.209704392376491
Pb 12.162311021578638 10.192130696113388 5.8253464746195975
Pb 10.305989979901335 11.752969699105469 10.741263702306156
Pb 15.501210812338135 15.686029053380365 11.958021065097869
