54
Energy = -179.30283212 eV
Pb 18.095334196240987 15.072519533576196 17.569381011771913
Pb 19.42449029691737 16.970931465904943 11.356758421431552
Pb 15.981381832185267 17.5239656134911 16.97610290820455
Pb 19.09331290151417 14.183471496931848 13.727862650273657
Pb 15.735884628486406 15.883613874818677 19.947719186522754
Pb 18.235056486310697 17.087487804507766 14.611554005670246
Pb 17.88146766253258 13.473243035120527 20.535910376199475
Pb 17.663007601752714 19.14010088299059 9.509413728431118
Pb 17.449462631047815 19.517892223553822 12.673281178706258
Pb 19.236584522538163 13.570385013803346 10.573992031199381
Pb 18.5165437174249 11.868050454936279 17.790835709712947
Pb 13.162497785662438 16.1948096250151 17.313519476422993
Pb 17.736746506938964 15.993956591760929 8.711271459956178
Pb 15.426886946050535 13.178360345988352 18.162367909024216
Pb 16.609646745676038 12.165253959508169 15.147704486416643
Pb 18.913040265973 11.038782761074344 13.078653911587232
Pb 12.176280361476177 14.113163606075922 19.593087641192806
Pb 14.749993232184556 13.080224806816576 21.463150649383117
Pb 16.261595322956364 13.19539381580896 11.871297492041188
Pb 14.69500251851148 19.708728917716968 10.979425408982362
Pb 15.291960791886552 15.271892160767722 14.651242210132132
Pb 16.05431863421005 16.716312754492 11.532836473628656
Pb 14.90019469531023 17.86944572363819 8.312744450968964
Pb 16.28807175336755 10.611951375156949 19.927650084071644
Pb 16.786390220386398 12.569264974154871 8.67814555598262
Pb 13.98224725566551 18.361251202239526 13.893990299749756
Pb 16.679284187598075 10.093684840649901 10.943208441419996
Pb 11.491778389993444 18.955136289926827 16.086037905068263
Pb 16.46152808222336 8.912091770375108 14.107514679721296
Pb 14.447837734028745 14.718024212672319 8.908531970712545
Pb 13.039864972775906 11.060249758784954 19.349739173628254
Pb 14.159965806424442 10.051309326505754 16.35149480933183
Pb 12.701309499517228 12.957411532417375 16.459300074994268
Pb 12.563883845908443 17.059637877079236 10.776788776251413
Pb 11.3796199415541 16.105359568352767 14.320563133924807
Pb 9.769997972829822 16.431976165647672 17.337091272596354
Pb 12.970101282795166 14.052946519979596 11.90287790933128
Pb 10.894042370216681 19.073952483336715 12.915308502204356
Pb 14.69921954841714 7.782845547191335 11.677897612314093
Pb 13.917299954628026 10.800132420345662 12.943039523422486
Pb 9.544864114722818 13.019056680663278 17.484730486509648
Pb 13.465967225187216 11.484289290083543 9.729035732248793
Pb 10.554392155988888 9.995747138719452 16.34527898289752
Pb 8.620476654668083 18.149240471070744 14.911314957208862
Pb 11.335126179402797 14.16771975683003 8.919585773429674
Pb 10.55417889495589 12.533378861970672 13.987085380900918
Pb 12.46153843662578 8.14595811696884 14.234276587888667
Pb 9.64952617686962 15.096329273622835 11.594161399287815
Pb 8.175715200617383 14.69884116631261 14.921030979214807
Pb 11.759569926864739 8.829591755954985 11.057337058364723
Pb 10.112095535832848 11.643584590384842 10.472134612146274
Pb 7.674329830683266 11.38123998253628 15.417089513238452
Pb 9.40502593164254 9.557377595546223 13.28591606639876
Pb 7.642897776490619 12.518251478119257 12.365235752980578
