53
Energy = -175.73163209 eV
Pb 20.90428343883856 14.310944166929007 11.022804163729226
Pb 21.469826532389437 16.85633267490974 12.85104002119735
Pb 21.049444030213614 13.972983326309926 14.356450918734899
Pb 19.040078332003926 12.035784774681293 12.354389583202941
Pb 19.10571423074031 14.388245959804433 17.512850477175583
Pb 19.87027056576172 16.88309969453011 15.705952086358856
Pb 19.11061264916144 17.037736978794207 10.337143613218098
Pb 18.257172489018043 12.097529062296333 15.453112551117787
Pb 18.287093003895013 15.414798455408096 13.021420568026953
Pb 17.925956059784816 13.589627632815269 9.805260619959126
Pb 19.005934474513346 18.931605345535484 13.342171955440394
Pb 16.214042959313982 9.793800245317682 16.463887261699874
Pb 14.107023634813201 8.557393059367646 11.214704128998342
Pb 15.955898882843403 12.644137385199508 18.045612833249635
Pb 16.247825344967627 10.334640726630314 13.084994987518366
Pb 16.533525433080648 15.503108796611606 16.019399845771037
Pb 17.533292658700578 17.9963459808031 18.100653291672906
Pb 16.498999965110567 15.38396868510872 19.829261938594403
Pb 15.270026903343487 11.298279017236181 9.86331556464099
Pb 13.55033065811017 8.956534780170582 14.509222526595803
Pb 16.254272496380697 18.889456349952887 15.174435687752789
Pb 16.371926309086412 18.37033835492684 11.625017183925468
Pb 13.438862800124852 10.257874864356468 18.139944073668953
Pb 15.961328791810482 16.052210167704818 9.506854775128739
Pb 14.487051171252995 12.34973366031701 15.089962640282168
Pb 15.396903393105864 13.823302515304649 12.067890993983301
Pb 15.529528063530382 18.50383906289725 20.68976427885742
Pb 13.424630841101347 12.960081426868543 20.197625850521487
Pb 10.855465780913221 8.725563846818009 11.558096455752775
Pb 12.294552756106455 10.199577726058312 9.034498370720492
Pb 14.066643156189057 16.68322574610312 18.06383110782451
Pb 12.689861142837469 11.367608690720353 12.27584682293327
Pb 14.829568251729532 20.10128465810985 18.07266824839436
Pb 13.594564020974822 16.08129943857941 21.436928380805302
Pb 12.195078316057423 14.008033840963181 16.815403792532873
Pb 11.303856626397742 11.049308116801052 15.881222025466784
Pb 13.202496262110616 16.48635680112086 11.235842109514326
Pb 13.455495017393492 16.25333527871 14.53295275021471
Pb 13.719976787502162 19.255491513655077 13.228799293021922
Pb 10.670147819940956 12.040668124034369 18.929375889087552
Pb 12.628518862915817 13.494324851574815 9.685665066594634
Pb 9.124123966512883 10.689639106169183 13.528995562953522
Pb 9.750854154422312 11.758644575819066 10.342015104202293
Pb 11.085558860537123 15.368846326975172 19.487531516865978
Pb 10.920132998017403 14.16877431589501 13.24622611898758
Pb 12.36356963440896 18.754082823308877 19.862582525443734
Pb 10.204934006389013 16.583037085729494 15.958837271594529
Pb 12.403149756517308 19.00766166676761 16.243061363268907
Pb 8.758238117583439 13.526404656132465 15.625174209146085
Pb 10.722541348432442 17.784988621237662 12.917870224665858
Pb 9.576905976639697 15.297828749827342 10.59870738210141
Pb 7.57435182038635 13.195525072697142 12.340062299077678
Pb 8.075216743409356 16.02881013139699 13.493526894071566
