54
Energy = -178.99929217 eV
Pb 19.64954644725218 14.516031265845474 18.23717599988563
Pb 20.675891981434095 12.64787762868197 15.672891488633018
Pb 19.341771924626567 11.355411155954311 12.879986334856811
Pb 20.534866899930247 15.92014513231815 15.400026513360425
Pb 19.92660699820001 17.687304084261438 18.125559300501685
Pb 17.486160969847504 16.29982675880884 19.933586997049595
Pb 18.416617917871555 11.51780141745665 17.66079283097037
Pb 14.836810891630334 18.190101651219305 20.669969395919185
Pb 17.194032307076196 19.304050280917515 18.567334251755845
Pb 18.639444068234035 18.765589412520036 13.769059207332418
Pb 18.614477622229558 15.45842595610889 12.69254099336025
Pb 16.09410131132949 13.81411270171467 18.191777184212906
Pb 18.37693776862407 12.938195401797632 10.201607347549137
Pb 17.64230068732466 13.565921377524129 15.189467394795528
Pb 17.2818414966702 8.875813964356622 13.409768730124314
Pb 15.75032942724457 19.897978089387415 15.168628335822044
Pb 17.77477283701952 9.818669300288866 10.37580283597069
Pb 17.998268375647452 17.99340669829224 10.670867436355572
Pb 16.092419785195055 12.039507107334696 12.542486513897261
Pb 17.367282841189763 16.79946400520622 16.263535378788966
Pb 14.260627422524843 17.074675335969744 17.44188594314368
Pb 11.745864424710843 18.23334260662532 19.42264885995363
Pb 13.39761434865253 15.42243717029327 20.12067257917662
Pb 17.446600441957724 8.590504856105898 16.60684219511104
Pb 14.084324958345839 20.39443015082885 18.534772259120608
Pb 16.518605065475295 20.5182195727326 11.961510551040721
Pb 13.523288430386943 13.77012730972584 15.787500911770856
Pb 15.315782450483054 10.957115209199644 16.063298228691195
Pb 15.652526022350802 17.250220833573263 13.135356034141866
Pb 14.91155665829648 8.844026370917284 18.548111996909935
Pb 14.700111236706896 9.279639777135962 11.450811965287066
Pb 15.39220702888445 11.780430779665968 9.247474047023342
Pb 13.391116374918262 11.882557183954583 18.681187349469013
Pb 14.801594860249788 18.399432851195417 10.099874733798615
Pb 13.425033626920204 19.74886411148837 12.795888045610468
Pb 12.345754882216234 19.50814687561754 15.994193325271445
Pb 13.452554807011007 14.472905784861286 12.36422376111321
Pb 16.059777792893478 15.247747785671494 10.461066288142513
Pb 14.53348066059605 7.843643328032108 15.281424398957155
Pb 11.15325553803789 15.166282197681532 17.83577323786289
Pb 12.218750598655115 9.167134984176924 17.00461818820971
Pb 11.637867699480221 16.33600100582061 14.504831754594443
Pb 11.785570303172886 17.12789301779815 11.06512943433677
Pb 12.351373213334277 11.794897629524701 10.775530122091837
Pb 12.765874044871714 10.632495978393695 14.025333394090561
Pb 13.202554905180511 14.536814788171117 9.066839616605717
Pb 10.846732747936468 12.073200310545191 16.490920070915557
Pb 10.077008244376465 19.00888425156049 13.367350422236836
Pb 9.558557438914827 17.993584180418512 16.893995187247523
Pb 10.483954773514657 13.260833574151414 13.418140254277517
Pb 10.197134456226676 14.210028007209687 10.262593568921881
Pb 8.637682721250595 14.990703643014594 15.660353656115658
Pb 8.831625822402442 16.060225025468117 12.457364873400167
Pb 7.388224799037628 17.810194073208446 14.628462176993098
