55
Energy = -182.35809299 eV
Pb 8.159623084571617 10.391641756995533 16.26048600655324
Pb 15.837134415667395 13.555362801500365 11.455251810018073
Pb 14.959999472842114 9.061037123571984 15.852656797460918
Pb 10.933444077740127 12.050713863088601 8.88321422038055
Pb 16.37691179244239 13.920752156866984 15.177618407741146
Pb 14.430737370309924 15.704189783296798 6.474386290193275
Pb 10.087551648504517 11.474326079810936 13.77490040006774
Pb 7.694235067925235 11.792109865600406 10.87683284276651
Pb 13.191136828568983 14.525582348892303 9.553689377336818
Pb 14.142851753979656 12.012277500819316 18.29253290103555
Pb 10.91708171237535 12.555714064993499 17.496555895934527
Pb 13.340454951268457 14.739659410582014 13.325895721627939
Pb 9.5932893112106 16.872054469618213 9.544020810370283
Pb 6.933193066430047 14.987813094121426 11.500308556467646
Pb 13.445398786440716 14.874645658186637 16.640341990303565
Pb 9.124538485445175 17.20490744821058 12.833622928838922
Pb 13.426887558934641 12.635325853183703 6.811992130917129
Pb 18.63822346833247 12.032027969323428 10.620805678344958
Pb 15.763422955238864 10.230682331011849 10.392536780434549
Pb 12.866194190673204 11.526393909008751 11.505467276395864
Pb 20.250567327351416 13.142641076169964 13.545855640491421
Pb 16.743013061193484 10.984421554498319 13.549469910782921
Pb 13.241170831028857 11.79109693384416 14.996374953777998
Pb 8.343983046201647 14.017417256616781 8.650229741443942
Pb 17.348811410469605 11.081690136211318 17.17865005464576
Pb 12.708725493245067 17.648973891347485 8.3753753204444
Pb 7.766465426962789 13.580725051520636 16.92096174779994
Pb 15.843781960725897 16.504715790642127 9.343372258717853
Pb 12.162887104286554 17.214587763083355 11.599240045483652
Pb 10.330887958100629 15.848347157703715 18.27179174480517
Pb 16.01344678749043 16.683911209541524 12.949481624609865
Pb 13.654439511171358 17.806661944014316 14.953522983766025
Pb 13.01220694617948 14.717560202874463 19.826153892174375
Pb 10.078557734511486 9.436044849023899 11.147112446175333
Pb 19.721491850774758 9.833595539175725 12.686462833489129
Pb 19.300073257677166 13.678208704154374 16.74522574448495
Pb 11.261500093559086 9.33611017917974 16.45842404036162
Pb 20.254553743889723 10.742318562257529 15.760087071887316
Pb 16.25197024828812 14.405471423947047 18.541870123195743
Pb 11.166276535930171 15.018129295350429 6.929347880637238
Pb 18.672157236492975 15.166634178192172 11.40053376044807
Pb 7.021091407222383 15.684287809230225 14.749626413194619
Pb 10.176809098692544 14.141737954854934 11.5314576927614
Pb 9.19030912459847 8.285864118695855 14.076180103432867
Pb 10.640406957931395 18.040980510347488 16.03608281670187
Pb 10.234503823082221 14.916100791659142 15.06934449056183
Pb 6.787772401163387 12.449170988085918 13.953755686000616
Pb 13.20275408906413 17.696184143803457 18.228930399745103
Pb 15.68329967313544 7.964855930987378 12.812918700906705
Pb 13.087095001640533 8.38752259234064 10.470061540561327
Pb 16.358517882743723 16.98153967441348 16.658363780022835
Pb 18.14066282364724 8.41292822773834 15.104195633184005
Pb 12.451507862258206 8.70791573878737 13.563575359144311
Pb 18.877011741966406 16.059738398684168 14.497369067280658
Pb 16.187101727717472 13.51281411163501 8.173598852984796
