54
Energy = -178.0014119 eV
Pb 21.134297907019327 18.66557512514724 13.052908416438854
Pb 18.95295831430832 18.115550464879785 10.376989950135009
Pb 15.82349662301601 19.365953346903815 11.622114615695239
Pb 17.266913409353645 20.459479839948937 17.86151452188943
Pb 12.439784855554763 17.78579234699867 11.533261547160446
Pb 18.630250092090638 20.499640674592168 12.769297574874765
Pb 16.131946498538888 20.166314337632432 14.834549260526925
Pb 19.183549696100993 18.890736488416174 15.805576478894368
Pb 20.924612274693306 15.684747853055471 11.757566519301124
Pb 20.898668832483246 16.068787015305254 15.12563356836627
Pb 15.359533106072833 16.41878240188287 10.521450372906404
Pb 14.175431688139685 19.91239746377484 17.814666387576693
Pb 18.085376524336624 16.96462252458251 13.181893134879843
Pb 9.666374393640387 17.944688475782414 13.238477929932177
Pb 11.986227267661093 15.400843195704343 13.906463002319326
Pb 9.813193595613237 15.244123452434756 11.289564871347542
Pb 18.189485328631797 14.791413228609716 10.2878283933397
Pb 12.402869182320705 19.052315482697082 15.084460812042249
Pb 12.345982793298102 15.414635746336087 9.349422283091544
Pb 16.39126406732724 17.495642895473033 18.367726959084557
Pb 14.812448894885932 17.07031465698632 13.915556161634374
Pb 9.40786689490884 19.86732672188892 15.710593059751888
Pb 17.41866911274787 15.025627627045232 15.907599138830475
Pb 19.277102635940803 13.44354394668541 13.597278701642585
Pb 11.083315856440294 18.912619983158926 18.29462905920717
Pb 15.051295225096638 13.381069786865956 9.506345800496812
Pb 15.9023493347988 13.85184508746411 12.735485498767352
Pb 20.206683064104702 13.307952882631923 16.819887556197195
Pb 19.42879823244636 16.190966274723586 18.189940605224898
Pb 12.542395310858428 13.002650517153535 11.640804172202362
Pb 17.88945683515398 11.689059033191896 11.120920060866332
Pb 17.359898121932403 11.4453473561857 16.46048838035765
Pb 15.412765615868434 14.719366033575199 20.004886637396453
Pb 13.565361901353223 17.708437631119228 20.34799693736917
Pb 13.441660248449839 16.55144626138834 17.090013560091485
Pb 13.94351194766978 11.118314827500019 14.304214992039535
Pb 9.913661601373821 16.613538145710383 16.217013855247306
Pb 9.533663045296338 11.787077369832213 11.707491252114664
Pb 14.918929072392178 10.41080420576127 11.033818165284144
Pb 9.158950089064533 13.687512362295088 14.163283204699546
Pb 14.653211518362525 13.354666052086865 17.088423142867924
Pb 18.123836444968166 13.263011698429008 19.161967983224116
Pb 13.009832796672985 15.002181234995264 22.01386594598072
Pb 10.153606870692286 10.672459103264542 14.852698228912127
Pb 11.86183153459536 9.60102692662465 12.006873585301333
Pb 11.402839788470695 13.432190533478945 16.72708688143111
Pb 17.0137590588836 9.727696734993703 13.604347178224586
Pb 15.244013410620417 8.663191550082004 16.15872464377262
Pb 11.26918678309288 15.57912836281069 19.37083445751997
Pb 12.816392608706126 12.619683770478513 19.892271122740134
Pb 14.55422943338204 7.763724318938365 12.957833398295831
Pb 12.198574466782821 8.142544424447896 15.038355575552096
Pb 15.611459503687346 10.942486862395306 19.16205738201582
Pb 12.728991104691167 10.370697418959855 17.479684183173696
