50
Energy = -165.80789972 eV
Pb 19.495682405233893 9.347764924887244 12.987732999063532
Pb 17.22824698138862 7.213731395540571 13.499539153547238
Pb 18.05135804208438 9.34280451076453 16.064017913941917
Pb 20.137161945939166 12.07743742666225 14.681204621953567
Pb 16.948071096149103 9.29896517302152 10.781557793753526
Pb 17.97714851842341 12.835697836374317 17.17091946980867
Pb 19.042319072726887 12.18247253801743 11.367023257100437
Pb 15.013137877474055 8.063218410226561 15.680315071579601
Pb 16.353879123573616 10.634894216422465 13.644410094873864
Pb 14.282956221539546 7.985700503700876 12.51462538298786
Pb 15.162639550750303 11.11019109206121 16.953045521898417
Pb 20.034035735849137 15.12182321591054 15.919077919080468
Pb 20.522957940440012 14.813579267688212 12.757969244930768
Pb 17.35913686857284 13.965526499047641 14.001311442194119
Pb 16.074693593759598 12.867084208404602 10.073573217723359
Pb 10.547215167744627 10.442073664209593 17.15059433500144
Pb 13.689685771965443 10.790656139001106 11.188376605346344
Pb 12.291324106240792 12.04429152087999 19.39367849376386
Pb 13.078783200247457 10.596799632958922 14.46451983129524
Pb 17.053433498296425 16.05832024385746 16.747685298701185
Pb 17.851118615822084 15.525023112706146 10.903690292309927
Pb 14.61004233519254 14.120816276868085 18.421210815213694
Pb 14.157036130394127 13.69424096763808 12.55781393620804
Pb 18.459514603182896 17.094676578285135 13.845089837817278
Pb 9.757467462164806 10.07221656803106 13.85948315374606
Pb 11.690679159655648 13.435923153449611 16.479279622109217
Pb 16.295221497272646 18.447838998779496 10.031771100134543
Pb 14.09897132479833 17.24264038009996 18.447704994715775
Pb 14.117265218137863 15.493619715228048 15.486806960617699
Pb 11.494762259854822 15.243619101320599 19.26667066632705
Pb 12.141070269794081 13.489879404217131 9.881436052701142
Pb 9.180204744979367 12.90514620706324 18.80086367774439
Pb 9.845008027120183 11.172952752850662 10.728766651880871
Pb 14.751588912476423 18.88898387620767 15.509061526043581
Pb 14.442316411783402 15.857688616741198 9.52791055516921
Pb 10.89678943500031 13.064191682567701 13.136806621861625
Pb 8.14876450195318 12.383878279692684 15.795157026312163
Pb 15.235970291242678 17.009138484992402 12.740131151451605
Pb 7.451324511733423 12.148066064244542 12.626676324941318
Pb 15.245123150799852 20.22416494660732 12.552508731027736
Pb 11.789696906901256 17.83252377429466 16.339174687908724
Pb 9.13107395165877 15.560392956196932 16.879109200325953
Pb 11.567363726634685 16.31292625952327 12.532289723280211
Pb 11.150444642873431 16.60231796867673 9.224083880161228
Pb 9.026792578382697 14.379637163146874 10.632868652706097
Pb 13.150895385117366 19.062208877564427 10.313401494294151
Pb 8.278395772914138 15.206987368787798 13.676955368965185
Pb 12.129909484167747 19.959419445342306 13.556412514834307
Pb 9.416191795032889 18.235010758300486 14.275021919960276
Pb 10.025997803812638 18.885097026656265 11.183341821898681
