52
Energy = -172.04507428 eV
Pb 17.188496314426168 18.65375878271533 18.887967969555447
Pb 18.41776672612753 17.446325494458307 15.888209337348032
Pb 14.745846407218606 20.792382131732243 18.444372904063854
Pb 15.226717028713287 19.485415500916176 21.30911821525925
Pb 15.168312465023796 20.74304498447234 12.82133653567854
Pb 13.59229860369863 21.694306781715312 15.32468887042047
Pb 19.481616630053264 14.435007788776861 15.47503711571553
Pb 19.708416384766917 16.489031719201964 12.921442797721955
Pb 15.47487678104921 18.885061729372833 15.846794225817108
Pb 16.923704188186694 18.13112434461205 11.853633323770916
Pb 16.845011763699198 15.293166597425387 18.09229679285674
Pb 17.60414963010672 14.827098854740115 10.976892792821454
Pb 20.35205948815039 13.357397352559586 12.48145683301918
Pb 13.998086420717806 15.613838799252102 16.223586482609345
Pb 19.958185742483504 11.204059519046453 14.985954157894493
Pb 16.570474274255513 15.585329240160535 14.047391264017904
Pb 14.916807812357646 16.809459931154656 9.537766796522966
Pb 13.531096172363716 19.62733867093756 10.261660152653365
Pb 13.6782385043938 17.799853522389164 19.007643808042936
Pb 15.90106951789905 16.47525041048737 21.07301514746149
Pb 12.275333858716753 18.605231522041446 15.741592722601792
Pb 11.926510321787786 20.22877105361249 12.936809192212195
Pb 18.610530535443498 12.029344291557562 18.020871837512676
Pb 18.423399207093237 11.597820135152498 10.605800993735079
Pb 13.8995311966336 17.49987296564869 12.897162591631483
Pb 17.129559702427873 12.341519764801657 13.6710824427152
Pb 9.171546614089378 17.333707454902694 14.74775815274855
Pb 16.640849963563372 9.84745766231909 19.449968003403633
Pb 15.45618130948884 12.16405375396861 17.145884710192924
Pb 11.613305712399562 16.699313347670074 10.686106446560546
Pb 16.30955512274395 12.919332203948919 20.43901376147518
Pb 18.08173723451839 9.335936914917934 12.941291183652632
Pb 15.987963817154569 12.936177055569505 8.82370982626759
Pb 13.997436104394987 14.014134615923956 11.329000811581187
Pb 13.66603369136212 14.474316692943137 19.440183456326512
Pb 13.630064310144018 12.652692951550092 14.265876344450973
Pb 10.805407680137176 16.26249989796831 17.43416166057783
Pb 11.386963769787194 15.193737335489468 13.884450043859657
Pb 12.644335300375628 14.821854239972762 8.343155909777433
Pb 17.57297073862067 9.283023458054114 16.30360008683158
Pb 14.459207383852371 8.79899780128601 17.324534379677488
Pb 8.333189901570764 14.846341596558798 12.81554218073008
Pb 15.415529995053861 10.409638480633092 10.974537463691052
Pb 11.689128466622064 13.051880924674911 16.95186107494131
Pb 8.652847240436168 14.385835227634384 16.007769934838112
Pb 13.591514417029265 11.072197356105153 19.497214399508632
Pb 10.64261197745808 13.43892121181924 10.780300675777555
Pb 14.975355711900049 9.287191862932087 14.130312885376167
Pb 12.997536348529172 11.695953285806127 9.103942255872663
Pb 12.188670474614893 10.596350585256022 12.085277942686513
Pb 9.861476087548192 12.17191380078119 13.927979797381596
Pb 12.022482852537117 10.06982278959854 15.43261277722756
