53
Energy = -174.84493689 eV
Pb 15.698305219389308 8.172033545403922 15.537415731707053
Pb 12.798712769808962 8.884378625734643 14.266616661380105
Pb 13.08895088332452 8.39685263519558 17.43620163838748
Pb 16.12520285530015 11.00368320620216 12.961339331764034
Pb 17.97847015344288 10.511251839592221 15.954304896796751
Pb 15.907833762317336 9.737337434599938 18.462613896183495
Pb 18.580171118453173 12.834089054196477 18.560438238140833
Pb 14.448068768648529 11.25898480687421 15.95580735390146
Pb 20.40735735572961 13.738702983660398 15.88731876394509
Pb 18.007345264258895 11.988368293698425 10.420893098274497
Pb 19.300530919906986 11.879106473459707 13.352470527552967
Pb 12.660089838865353 11.868746598592914 12.89159992424774
Pb 11.097605572140683 10.928966633128224 16.234638813268617
Pb 21.197042486159443 14.694140112492802 18.9953007119343
Pb 17.480771241814328 14.897301983359924 9.257608583973592
Pb 17.43695171847461 14.574727616653542 12.437107297187726
Pb 19.522153365379847 17.115936854814294 13.994459399159277
Pb 12.950111848500189 11.15960145194504 19.004110862470466
Pb 21.83596923544306 16.60614162948315 16.523637604262184
Pb 17.070207737658013 13.589435812659067 15.570189039134252
Pb 15.39646427089882 13.675936750762919 18.888165892725066
Pb 14.928774463750837 13.051640607561524 10.496672192464398
Pb 18.42590955762661 15.648169388431862 20.43399095268498
Pb 18.49562345842698 16.233866513287094 17.186146437846325
Pb 11.529038655320607 14.49161292911897 11.474841658770364
Pb 10.285571298094764 13.683449178642494 14.478993301099603
Pb 12.401424098193955 14.056202788976185 20.300742646488835
Pb 14.088194194643872 14.749367619068394 13.779699219231272
Pb 20.589243468608803 17.918056861539753 19.3222454269134
Pb 14.855660721117925 16.34428469958635 10.698691769233355
Pb 16.294484870288734 17.381648813104633 14.07268838701308
Pb 12.7803332399986 14.07909182309919 16.935422927369537
Pb 14.625571268166794 16.514967619219917 20.64108601030806
Pb 17.031469444923488 18.529369445441148 19.764992033925928
Pb 20.443580580918457 19.50368539616605 16.12828430862676
Pb 14.602718714733939 17.227450485261613 17.351062198416457
Pb 17.916595062832513 17.6725648410468 11.022989539988426
Pb 9.278092581594779 16.246303937787154 13.011002919307087
Pb 16.708572167396916 19.876333126395384 16.614616206341772
Pb 11.718779716594385 16.715679389877955 18.933013813588655
Pb 12.204151885365137 17.505940635619094 12.362891907951957
Pb 11.4345830785741 16.767781859087957 15.434891994657486
Pb 18.423171840333897 20.22729120450867 13.44605086927059
Pb 13.640155974072854 19.41465759724308 14.685284981865932
Pb 19.208275717201555 20.89092600404159 18.763153166292142
Pb 13.985806947327868 19.820845412518352 19.508010834594767
Pb 15.38110990054159 19.546237466415636 11.853707879539108
Pb 11.717349063761679 19.54367129347031 17.322626697006886
Pb 15.763615637062468 22.14774881643172 14.04416210210517
Pb 16.283727061118565 22.230526173670718 18.976630475979544
Pb 18.61433618555237 22.502774567529176 15.90041423810742
Pb 13.816472280097202 22.02497960737443 16.8438041848449
Pb 15.962611329490871 24.257662688010946 16.425332420240764
