54
Energy = -179.46149854 eV
Pb 9.26317373138715 10.542611280200783 17.470932808504408
Pb 9.572587274038264 11.174010452828625 14.165219399606995
Pb 10.666232789901128 8.317967196300291 15.512892052968072
Pb 9.741882007427536 13.841201337408735 16.096673886445114
Pb 8.939443621842264 14.568829901636613 12.699091489456963
Pb 11.595295049878898 8.527934412198045 18.590279310366068
Pb 10.585813820069818 12.285277169189213 10.909157953981545
Pb 11.483227883545066 11.66330393344741 19.65467669378289
Pb 9.903207590004007 15.378939916975101 9.416146715502009
Pb 12.343618097619805 11.15089018496037 16.459310833996412
Pb 8.081472395657892 16.611409417511283 15.02007616612904
Pb 12.27615133005716 9.746557271654916 13.027686990675411
Pb 12.310436709364833 13.114969309593192 13.712814689505347
Pb 13.936842628310933 8.334539710043394 16.134549769362117
Pb 14.067766524869906 11.877036325932117 10.845681334545807
Pb 12.350790653738207 14.504460182851624 17.79717896053647
Pb 9.227455257906572 17.764299847725812 12.019432097862909
Pb 12.17975201561109 12.897785604495036 8.184059073799654
Pb 14.373336274364572 10.000652184634532 19.23685425813979
Pb 16.11556437249216 9.011866941976802 11.200905490645338
Pb 12.796051590504275 15.02266418878567 10.687639440313552
Pb 10.813109261966808 17.37285414067414 17.339341706183756
Pb 12.578893773770817 15.886839417507447 7.312213050108113
Pb 14.252728428616434 13.454599157818011 20.20815393292218
Pb 9.69978252225664 19.345506773992224 15.058201469081146
Pb 15.186219511937574 10.896074185020762 13.926725632570804
Pb 11.306771262132463 16.469725317535726 14.280336462588682
Pb 11.804913655436934 18.195716354784466 9.669945077321207
Pb 16.693097785296146 10.270370784740644 16.720803239820462
Pb 14.18785391837028 17.021079189072594 12.80138552521201
Pb 11.86571218047037 19.713935205202823 12.766748861763555
Pb 15.397076546056201 13.377393199034156 16.860509209528338
Pb 13.886937532908838 16.8664671758809 19.571862897329208
Pb 13.372277456784412 19.417907694209017 17.642278356422878
Pb 14.405402549735086 16.70008969039608 16.080554698422887
Pb 16.99409847256229 12.03708227687801 19.374570815641977
Pb 18.56896683246581 9.414441396161896 13.435259498824042
Pb 16.214965669992697 14.503115094986553 13.671365792395566
Pb 14.913193695414964 17.53493852641328 8.652765288258292
Pb 16.781639543468327 11.08491034482105 8.724663312504132
Pb 17.419728730597186 12.130421855156802 11.737664329369403
Pb 16.825989835582213 15.391297424281838 19.357999499826647
Pb 18.776031326073007 12.447792483283878 14.833239372528148
Pb 15.253301222937328 14.198761158634769 8.713881338157341
Pb 14.624313691188501 19.74087455691361 14.674044265086085
Pb 19.26645799306196 9.605747080834414 10.230180476123218
Pb 14.658390398241233 19.598830119923374 11.06713470064857
Pb 16.44727163147782 18.417060068093434 17.89702213503551
Pb 17.163313221285264 17.934004539667807 13.91399015391216
Pb 17.77216199675799 15.784946060330196 16.288872514859314
Pb 19.492361376817186 14.665166168348385 12.524087418148797
Pb 16.98454423977338 16.280033999787484 10.983580796982947
Pb 20.7784638695887 11.593726247817353 12.286165020142017
Pb 19.60402183009409 12.88107846546953 9.547290728787459
