5
Energy = -13.42296494 eV
Pb 16.231212676696405 12.70593199861177 13.81571245296468
Pb 11.460584200883584 12.993562848207254 11.990556674046733
Pb 14.439862131429438 13.349101603562062 11.49367581251019
Pb 10.479298728864327 14.085142742733694 14.615480614206971
Pb 13.389388692942374 13.349721051650576 14.531512644782849
