55
Energy = -178.87802543 eV
Pb 11.33317500662887 11.33317500662887 11.33317500662887
Pb 11.33317500662887 13.081938122845507 14.242143481081484
Pb 11.33317500662887 13.081938122845507 8.42420653217626
Pb 11.33317500662887 9.584411890411909 14.242143481081484
Pb 11.33317500662887 9.584411890411909 8.42420653217626
Pb 13.081938122845507 14.242143481081484 11.33317500662887
Pb 9.584411890411909 14.242143481081484 11.33317500662887
Pb 13.081938122845507 8.42420653217626 11.33317500662887
Pb 9.584411890411909 8.42420653217626 11.33317500662887
Pb 14.242143481081484 11.33317500662887 13.081938122845507
Pb 14.242143481081484 11.33317500662887 9.584411890411909
Pb 8.42420653217626 11.33317500662887 13.081938122845507
Pb 8.42420653217626 11.33317500662887 9.584411890411909
Pb 5.759683904633572 11.33317500662887 7.816745158170365
Pb 11.33317500662887 14.849604855087374 16.90666610862417
Pb 11.33317500662887 14.849604855087374 5.759683904633572
Pb 11.33317500662887 7.816745158170365 16.90666610862417
Pb 11.33317500662887 7.816745158170365 5.759683904633572
Pb 14.849604855087374 16.90666610862417 11.33317500662887
Pb 7.8167451581705265 16.90666610862417 11.33317500662887
Pb 14.849604855087378 5.759683904633572 11.33317500662887
Pb 7.8167451581705265 5.759683904633572 11.33317500662887
Pb 16.90666610862417 11.33317500662887 14.849604855087374
Pb 16.90666610862417 11.33317500662887 7.816745158170365
Pb 5.759683904633572 11.33317500662887 14.849604855087374
Pb 11.33317500662887 17.07378059117468 11.33317500662887
Pb 11.33317500662887 5.5925694220825815 11.33317500662887
Pb 5.5925694220825815 11.33317500662887 11.33317500662887
Pb 17.07378059117468 11.33317500662887 11.33317500662887
Pb 11.33317500662887 11.33317500662887 5.5925694220825815
Pb 11.33317500662887 11.33317500662887 17.07378059117468
Pb 13.116932146377785 6.706322575690171 14.223329312988081
Pb 9.549417866880118 6.706322575690171 14.223329312988081
Pb 13.116932146377785 6.706322575690171 8.443020700269663
Pb 9.549417866880118 6.706322575690171 8.443020700269663
Pb 15.960027437567572 8.443020700269663 9.549417866880118
Pb 15.960027437567572 8.443020700269663 13.116932146377785
Pb 6.706322575690171 8.443020700269663 9.549417866880118
Pb 6.706322575690171 8.443020700269663 13.116932146377785
Pb 13.116932146377785 15.960027437567572 8.443020700269663
Pb 13.116932146377785 15.960027437567572 14.223329312988081
Pb 9.549417866880118 15.960027437567572 8.443020700269663
Pb 9.549417866880118 15.960027437567572 14.223329312988081
Pb 8.443020700269663 13.116932146377785 6.706322575690171
Pb 14.223329312988081 13.116932146377785 6.706322575690171
Pb 8.443020700269663 9.549417866880118 6.706322575690171
Pb 14.223329312988081 9.549417866880118 6.706322575690171
Pb 6.706322575690171 14.223329312988081 13.116932146377785
Pb 6.706322575690171 14.223329312988081 9.549417866880118
Pb 8.443020700269663 9.549417866880118 15.960027437567572
Pb 14.223329312988081 9.549417866880118 15.960027437567572
Pb 14.223329312988081 13.116932146377785 15.960027437567572
Pb 8.443020700269663 13.116932146377785 15.960027437567572
Pb 15.960027437567572 14.223329312988081 9.549417866880118
Pb 15.960027437567572 14.223329312988081 13.116932146377785
