5
Energy = -12.50806286 eV
Pb 8.49036312717421 13.404393676487755 11.6003550726815
Pb 11.636453450847316 13.29519196572329 11.549676303475724
Pb 12.76188154331167 10.601528054991752 11.751385692154852
Pb 15.442769146213847 10.818449881882644 11.350537471256057
Pb 9.913431071086375 10.576715300963471 12.35204125441424
