53
Energy = -174.96116885 eV
Pb 13.201746999905605 15.976794837738606 20.585128867815566
Pb 12.362366781103226 13.142888680365079 19.353045857652212
Pb 15.586393725543093 13.606769127877275 20.24141500167976
Pb 11.728974980722585 10.021822706841279 19.061339881165114
Pb 16.187149737202276 16.96233273666631 19.629255607868085
Pb 10.89954806965988 15.9434230932512 17.90262831408692
Pb 14.84191533830262 10.38735510643328 19.616650940479044
Pb 13.470178072143815 18.172362327041704 18.221666565851596
Pb 11.610094579019199 13.449643496627708 15.729549535246317
Pb 17.613283859270577 11.474840536803352 18.075768927940363
Pb 14.389688625392923 15.057030288011072 17.448385495508607
Pb 16.38025320654969 19.828622741301647 17.84063996043815
Pb 17.739920911515707 14.717903811852556 17.864229388022338
Pb 19.009560390632537 17.92862802706731 17.178387346257818
Pb 10.884641477672636 9.882436828459943 16.009046506401756
Pb 13.960809296584097 11.435545105279019 16.656122374091588
Pb 9.943531635295942 16.99683916714101 12.67958956715279
Pb 8.737593688218524 12.113766557992742 14.877262078784108
Pb 16.72919408505039 13.092409543134425 15.220866178628365
Pb 9.771280053928594 18.21640875855122 15.776538939884386
Pb 16.29714468785147 17.29704204578068 15.619615793222218
Pb 8.661823865633753 15.20522178677428 15.412393284289282
Pb 12.686019924661522 16.8926516227936 15.071403487604002
Pb 13.74652001204507 8.282387119337836 17.28469663796893
Pb 16.553578773393014 9.573122363920017 15.459169911637378
Pb 14.707504551611219 20.016023653442662 14.86596191170183
Pb 18.075779268882084 20.27863977362679 15.167539143725163
Pb 9.015225254539418 13.975064688694872 12.29293363016428
Pb 13.698097552195195 17.5025839258751 11.815063120200456
Pb 12.414287004763239 14.457330153416718 12.511212639742912
Pb 11.672876860356858 19.66341819268606 13.509983947490095
Pb 19.618580270282074 11.300997448612403 15.516025377821624
Pb 13.31934336116984 8.908962459036355 14.027493364666762
Pb 19.073149936594632 8.684884251027476 13.638977821585692
Pb 16.488586071246264 15.53713048776086 12.902431763322733
Pb 18.237103472364645 11.433110711928737 12.537431492118284
Pb 19.46660458537884 14.287321646317093 13.674344485135787
Pb 14.634224621122408 11.73687455828452 12.919589124741114
Pb 11.325022277004782 19.031683614564567 10.226679698837389
Pb 11.153455203924423 11.209626885303534 12.721196138591626
Pb 11.120415514368528 15.933641817944451 9.639819591079373
Pb 16.128206077142064 8.771327565463599 12.183399262337426
Pb 19.276145444472455 17.5329339057885 13.89116619693425
Pb 16.800053407281162 19.001953682058808 12.465751832157087
Pb 11.147982644340107 12.667157977891012 9.65737279927561
Pb 14.479819412562545 14.404437205727232 9.941970746944618
Pb 18.224084290863846 14.05134948759487 10.545940082426265
Pb 13.115678841898124 10.045005369864315 10.369978105371237
Pb 13.79757048306257 17.466906562334238 8.415456859844092
Pb 16.328890160179498 11.185196648066928 9.91115006201926
Pb 16.659932947980778 16.931532791473064 9.892729535121562
Pb 13.903277562585345 11.921540336587515 7.920303476867048
Pb 12.619850715727955 14.691148588384491 7.125796576895049
