53
Energy = -174.85860575 eV
Pb 18.02505441378175 17.39740003614344 19.078404386090565
Pb 15.13033620378198 16.068161597335067 19.705965889440176
Pb 17.831508403436768 14.296022129414688 19.450225679159743
Pb 17.828748888839 11.151355689805117 19.979147597495533
Pb 11.912854264026452 13.986321565961982 19.16936736845285
Pb 14.819797158592106 18.955881353580107 18.14330625393979
Pb 14.818543906346534 12.361648611143861 19.876667774408535
Pb 12.065644089083372 17.06824630133103 18.279311565430625
Pb 17.50704000173003 19.065957663389426 16.29364962225445
Pb 17.153980697932226 15.791155544868216 16.414731747263428
Pb 17.04995499986531 11.786743300459731 16.98941427090792
Pb 14.782468294371103 20.55410196736572 15.027671179716702
Pb 15.402992745073979 9.314760023235594 18.82900689453307
Pb 14.541397879886912 14.070205096754862 17.129589546321245
Pb 9.247350834633 15.404824242853335 17.815056205210322
Pb 11.923574918623737 19.81282010040823 16.58391495431517
Pb 9.82073449186771 12.258400512119998 17.473998574159854
Pb 10.115119005178114 17.432506401102643 15.395614672091455
Pb 13.863106845783216 17.279622909152675 15.327096567382968
Pb 19.134347316171628 17.409837514839737 13.901999668831959
Pb 19.172116489360643 14.047557726951222 14.186768276300311
Pb 12.138057231111963 10.210865592569254 18.91882704424013
Pb 17.835798960282293 20.623488862035792 13.476033280961358
Pb 11.584230629634801 14.453323701552515 15.633773797201176
Pb 18.573092999594646 10.889697985449516 14.222047127822838
Pb 13.27616630325018 7.520552411223093 17.154764724807062
Pb 9.946850152926801 17.42033227531327 11.978051571723016
Pb 18.78785389823745 18.990594131948793 11.045133976135611
Pb 15.95757514200053 13.177912988491794 14.005787817829038
Pb 16.103414082762107 8.57401982125713 15.714496656660423
Pb 15.426394521069199 18.691912275379696 12.381375581481523
Pb 19.96893258641096 15.673061989532254 11.163570524626051
Pb 13.741773127634856 10.869832631940252 16.155733098998187
Pb 12.188594905213991 19.439088162377487 13.259326014197885
Pb 12.853095491462616 15.658199157354993 12.01470093055974
Pb 16.719684883227057 15.735228180895069 12.112133008466898
Pb 9.748666522441619 14.142814885408868 11.941657783319748
Pb 18.325734644213714 12.6531491461753 11.416109202037385
Pb 10.705106272706402 9.141914190589567 15.998385726348243
Pb 19.242929940281616 17.351798165378675 8.485041252117089
Pb 12.486356032519787 12.316396534133462 13.084862139297288
Pb 9.324475375528992 12.027050848161208 14.304533183554062
Pb 13.23948137758864 8.106354577426188 13.987639709828683
Pb 15.782849615678442 10.181245667094906 12.768228150061729
Pb 10.702425064657897 15.96030233195027 9.285432974752455
Pb 16.139048896942676 18.135697177145804 9.145263567791131
Pb 12.788063573170707 18.408332431347695 10.110596633564503
Pb 17.285036210840133 14.903940055855637 9.010072272508664
Pb 10.60727245660332 9.65607483444987 12.73587643781108
Pb 11.865316205227963 12.959067408524053 9.811948715544714
Pb 15.08535222806968 12.943465591717954 10.745483124078806
Pb 13.90022662590945 15.61236078578966 8.778939115383798
Pb 13.11125705485161 10.01099329932406 10.848537908886142
