55
Energy = -181.97328147 eV
Pb 13.384276751200723 11.81968426355857 15.76483180885219
Pb 16.2261560364827 10.301455701144956 16.55805537833251
Pb 21.565631468783042 13.235678366386264 14.825429547620312
Pb 18.772805568227568 25.770993613390598 21.25836831344579
Pb 16.01112749697953 16.06514940974084 20.1711976761715
Pb 15.506569115411988 17.973579718175085 22.92296933494484
Pb 20.03570041469783 20.7952867056875 20.233981189585773
Pb 20.835895084798388 23.51981727260397 21.915913839183148
Pb 18.846549047031797 11.43655146998013 14.717134519770354
Pb 16.868825793699465 19.8597268904629 20.65382466982689
Pb 23.384887706640246 17.723856974665512 17.255499974414192
Pb 16.62721717165121 20.860431786474013 12.268966721698822
Pb 19.157322186007352 14.571839091319996 24.185671796664973
Pb 18.763839160121424 19.467637963707297 14.631054246201586
Pb 12.876001926114853 14.827027755896307 17.261176175335002
Pb 17.51747980484112 21.787119078248175 17.925335506003236
Pb 18.79722550002727 16.732263148349947 12.52518337440877
Pb 14.03688056050324 14.758816447130135 14.025793966705534
Pb 20.97486292301605 19.887394328084394 17.013883933017034
Pb 18.63483077330108 15.11813804954648 18.17004518546491
Pb 16.600063077002115 11.061539136926081 19.96739927786318
Pb 12.126104971352813 21.601100870576754 14.975430657802523
Pb 23.76161457217718 15.612437741887273 14.943832747854376
Pb 18.330358988221075 13.829576789350423 21.18875291791084
Pb 12.602962630958226 18.31064878121271 14.989920430386826
Pb 17.74191632001914 22.835623674700965 21.513953212235524
Pb 14.121646319771552 13.26610188228113 20.465375548924648
Pb 15.773456312528921 13.331031385466726 17.651816856484903
Pb 18.590836640336217 17.010843218488453 22.117263072290374
Pb 13.805882611698221 10.354439096475428 18.802981851886887
Pb 17.545606536426916 17.058451789951167 25.152799732134504
Pb 19.905652846563136 23.87106905574367 18.83394294856732
Pb 21.80451451149008 15.591619030887813 12.454012159195976
Pb 22.31238759571418 18.571296800216597 14.148923132727969
Pb 18.978091162104125 11.946645014006899 17.866630602417448
Pb 22.143675335538106 14.66958537623366 17.830690671939344
Pb 15.62797126093853 17.629763415717274 13.275402393157364
Pb 17.40197083778729 14.79710080122736 14.82054088851449
Pb 14.473471604556021 23.117414815011387 13.18698562808169
Pb 13.424821244978942 20.098604134827717 12.372026203119441
Pb 16.04243079497655 14.833334487963754 23.2772913627945
Pb 15.956665513597518 12.164136010325814 13.437165839598185
Pb 19.201868060980306 13.385255059044978 12.216048593762478
Pb 15.422401807177641 20.352919133637467 15.204255036146265
Pb 16.755227445590688 24.854929134016125 18.944768477831676
Pb 20.809170529668943 17.39698417457826 19.27902486571054
Pb 18.069385227082076 18.452832968017375 17.750849655233036
Pb 14.894275256224457 22.21982101406799 19.81546704991336
Pb 16.320147369759493 14.846021864811243 11.579192065517251
Pb 17.3939346393095 22.964801437112854 14.694119933907515
Pb 14.58551603227658 23.313794119982187 16.491494677373257
Pb 20.46140245466942 16.46194912968327 15.667800388895305
Pb 15.21747566253282 16.9996328464679 16.566871500158406
Pb 13.367199866224686 20.18854590179872 17.628313065065896
Pb 11.510722918391643 12.392615320909705 18.509252845111433
