52
Energy = -172.98309071 eV
Pb 20.083980979928626 15.587904602232909 13.215368218385615
Pb 21.631290446257424 12.598876926659715 13.28855261970784
Pb 18.476520160693433 16.456808969812997 10.510225594431303
Pb 16.041240141473804 19.706193889924325 14.658057986929803
Pb 20.079630878344215 13.339377177714944 10.56611531115865
Pb 17.093400966784163 15.215891505443635 15.970530925796423
Pb 20.186974857002873 13.814513507495302 15.98239283540462
Pb 16.689263689748078 18.096635166760212 17.717486028159225
Pb 16.67234443252909 16.753647244107313 13.233248441359965
Pb 14.60117465902641 20.461032430574626 17.40963740991007
Pb 18.050650651580167 14.377877818561778 8.14093561373734
Pb 19.552539012344557 10.268388668332618 12.105438419053616
Pb 15.679875206075783 16.490291346790467 8.587590620750795
Pb 12.844064708848586 20.420249896336717 14.637988659991741
Pb 18.19297989551721 12.826057605384264 13.473115901013436
Pb 20.08667222604166 10.681570832272833 15.367781925428
Pb 13.984704189137746 17.367808943630735 15.87777532858904
Pb 17.207402807302408 12.0922708860849 16.97972596777285
Pb 15.958406649806975 14.189891045539301 11.0256970165988
Pb 13.958108001999934 18.336694793255905 12.364288617006185
Pb 17.293625987134934 11.483700670766668 9.520647381376804
Pb 13.835642601617398 17.788938636044502 19.39085801811729
Pb 15.882699746085004 15.148811958063249 19.14501902323648
Pb 13.424354457948567 15.291565148876511 13.199098943110746
Pb 11.537957487452372 19.08828306913109 17.369090351915457
Pb 14.929655356667993 13.365492386780238 7.944195982882
Pb 12.987370029449623 15.509233060221755 9.900762321680563
Pb 10.997456202847184 17.621389976582655 14.078099338053756
Pb 14.808175933368567 12.049233247186466 19.588230168012416
Pb 17.1338349813832 9.718114617717868 14.504165636938286
Pb 12.787981915041833 14.517103005163946 20.230616694638385
Pb 13.860644563926028 13.759765177349498 16.904919734146006
Pb 8.638562143578346 17.8533500438221 16.669256083986998
Pb 15.402428016795803 10.08964420487617 11.742462505961939
Pb 12.546929693133936 12.203947210679834 11.32063632017281
Pb 10.066966571657243 16.823284188823127 19.548180170518986
Pb 11.63321908415679 12.989085021354226 8.142610786524816
Pb 10.841781442088545 15.268722862337071 16.85774710951923
Pb 13.55375347438945 10.307366295182081 8.799167602674721
Pb 10.589505695305409 13.667938546337101 13.69259426382715
Pb 14.399110991745077 10.322321763872152 16.8860673101897
Pb 15.005884605585445 12.34387262714287 14.212572502338702
Pb 9.416561891154377 13.132603158937389 10.609147258413403
Pb 11.748307363398315 11.590198122149326 18.41486727018489
Pb 8.00802214387735 15.19409286896242 14.872680412632594
Pb 9.608629701765324 13.573477563892917 19.746844735850928
Pb 7.5159904190091655 15.168931782577411 18.023266008041634
Pb 12.285063758195285 8.839269151862583 11.510362328131643
Pb 10.331284913426071 10.275557711188352 9.311032292252131
Pb 12.068588915591059 11.019601623858847 14.73941675502555
Pb 9.684245748618407 10.525217935856045 12.485421047255171
Pb 8.937616451962969 12.509606641831779 16.559547213934717
