5
Energy = -13.94034818 eV
Pb 8.554392310164664 11.702877940854725 10.295542506424898
Pb 11.356753536066014 7.721286801079968 10.52640128531769
Pb 11.68503275846738 10.410369319660408 9.39256007778237
Pb 10.020508756896332 9.878042158271054 12.145709565405133
Pb 11.26161358832862 13.05747847470669 10.568503406739282
