50
Energy = -165.70318549 eV
Pb 19.577815822967697 10.96837790933836 15.597834076228212
Pb 16.880962086238014 8.883012466113282 16.1031308025636
Pb 19.473511554755824 12.243557098102393 12.659230274169426
Pb 16.344675340707344 8.302775916116111 12.966167544872738
Pb 13.51247475978348 6.916507721255684 12.08689250226289
Pb 21.252242725304313 13.821806719995086 14.93303967842602
Pb 13.70582666123515 7.874048687370129 15.362002360379018
Pb 14.814560678271455 9.432460561664312 10.251128289183391
Pb 20.122113914136552 13.238556570214197 17.958208223201876
Pb 17.258550800773524 11.88401791237138 17.746450119007108
Pb 16.80494456208013 12.119551770322506 10.777869830287583
Pb 18.55206514449658 15.109554852159409 11.310054551185397
Pb 16.52591863709581 11.53242554421901 14.166657202348338
Pb 14.37386985848145 10.470179829011759 17.458851980846152
Pb 18.046574370683636 14.498311068590231 14.988372117757203
Pb 13.563865953312188 10.234302992508715 13.113255719982032
Pb 10.925662599438887 7.983629025099976 13.629820537745665
Pb 11.587778343928406 9.203566992705356 10.699282843044204
Pb 13.542308348496626 12.693119019697043 10.529415168793237
Pb 17.848240837757444 17.58813070171359 13.277600379118809
Pb 20.261714101393665 16.20895183431095 16.80051792207855
Pb 11.508883981467749 10.699645115863548 15.781543137313244
Pb 16.178771148420417 14.705495334458627 9.104304010155069
Pb 17.46360522694702 15.314811295962599 18.31949752189359
Pb 14.732618200586911 13.634680276107233 16.348329079641882
Pb 10.140481183747308 11.13101906675441 12.92419039470695
Pb 12.06138926849562 12.84142456251229 18.435633580039795
Pb 15.317711032608047 15.012020869796896 12.275716128590163
Pb 12.544134423973842 13.308272602782294 13.730847176013993
Pb 16.17198471005552 17.79499465824919 10.41687402092801
Pb 13.774960294316053 15.511576071288534 19.012589128447026
Pb 17.842619534169557 18.175784726189175 16.439450192374657
Pb 15.087883799360888 16.912260422574587 15.214678202664732
Pb 9.163720258421428 13.560597217788297 17.229059701580766
Pb 13.355198585331319 16.295505920776577 9.493675887719949
Pb 15.084921860236978 18.391164818762228 18.11515677044375
Pb 10.807114796945301 14.986589838571447 11.238809047372735
Pb 11.786477461739608 15.524190286060424 16.17280620196164
Pb 15.374115606273875 19.659478998290798 13.149239081861765
Pb 10.423124348356952 15.580269575393814 19.365481086382502
Pb 12.56230668628668 17.475919878351252 12.90179700821593
Pb 9.34469664997068 14.239612468507215 14.100534543042947
Pb 13.432919753972238 19.608066999567214 10.466742330632968
Pb 11.674894326543692 18.26401580984616 18.12938523339409
Pb 13.523244482100928 19.841880865183736 15.740752623815538
Pb 8.793697561842162 16.767439783379654 16.689467676510244
Pb 9.04058896720213 17.390408878751565 12.892425895540539
Pb 10.570750693590801 18.01353756872388 10.032322882141035
Pb 10.767219333573944 20.188394342960905 12.303714171439925
Pb 10.295282787736642 19.37116868874992 15.318410767563611
