50
Energy = -165.09452066 eV
Pb 10.684053778987257 13.083325822698848 11.092896500112445
Pb 9.557101289309518 16.373283007821083 10.893334397035437
Pb 9.222532301432443 19.313625512054738 11.752033202037516
Pb 11.908080479889088 9.976425708909632 10.885566604308515
Pb 9.535976388422924 10.379290155030485 12.994990158499279
Pb 12.811946941734213 12.295877814882074 8.639778365782558
Pb 12.360395779998541 15.512538837885648 9.18210579285596
Pb 12.2148347935683 18.464328384134685 10.457343195894023
Pb 9.842694686955223 13.88340279682776 14.112611124124244
Pb 9.550202728740903 17.129379079954358 14.132035097228771
Pb 15.526751740404961 14.270425954592673 8.430748638256418
Pb 15.334350342591062 17.407469733544936 9.464625652092495
Pb 15.743717759218452 10.99169822237074 9.29870437869058
Pb 12.34001708027897 11.435973344658278 14.265129958830283
Pb 11.871617709231545 8.099457476566132 13.74586366812406
Pb 11.946911123617573 19.23316899271979 13.549439112318693
Pb 12.377451578371865 15.89298247660281 12.712873382052562
Pb 14.878635240704972 9.279159076640383 11.934081709905694
Pb 9.805145303390969 9.376573846541364 16.08829029183238
Pb 9.746311547091807 12.477214276498414 17.111834694501567
Pb 16.236810470931157 15.295065057646294 11.903333355272725
Pb 15.24361330353863 18.665866528497077 12.503985217200059
Pb 18.24989847469452 16.012309931040676 9.07377401700594
Pb 12.172956389538918 17.849289547852393 16.56435884084852
Pb 14.032876595960701 12.703655473392718 11.69162350544018
Pb 10.01383688472621 15.72699950442286 17.70965575649834
Pb 18.451575017208274 17.75936801343531 11.86189355651121
Pb 18.43063892801488 12.849324902539987 9.074427678243289
Pb 17.359985902701137 11.867747787286017 12.09681921046651
Pb 17.727718794453903 18.733461795403453 14.84860348803641
Pb 14.501520328245554 9.24142810625212 15.388919056932435
Pb 15.799820526703375 13.190777421705466 14.76231502038681
Pb 12.157366725114663 7.466069887218708 17.03561030755502
Pb 19.5237056699067 14.502665566616212 11.784255948938
Pb 15.120543768009584 16.557855729441325 15.304956031159842
Pb 11.604023376041 10.197616792934639 18.730800252609367
Pb 12.526513877324204 14.478235229264579 16.00465249588504
Pb 12.049103463217826 13.691732401093235 19.278805599328084
Pb 14.59344289249871 19.919638204980142 15.474089810935268
Pb 12.316093819245403 17.0201619291769 19.75815578430948
Pb 18.352141379040695 15.413973157023747 14.763343677710205
Pb 17.460771914911124 9.190053410175121 13.870399963168715
Pb 14.521893894168635 8.945664521570674 18.608964366960052
Pb 17.570953197602545 16.952479715280727 17.651915415978376
Pb 17.475244932145664 13.445078931664762 17.568578262918905
Pb 19.02683081110408 12.171647338180465 14.85627337325706
Pb 14.879224170636782 15.371721965973663 18.654785828144156
Pb 14.84394615164767 18.61279730275055 18.412938319388267
Pb 14.348473531840268 12.076133758392851 17.52950198019038
Pb 17.266488353686437 10.142723705457778 16.937349246872035
