53
Energy = -175.27426926 eV
Pb 15.221328972816446 13.347829212831739 8.38927250320955
Pb 16.64647800012034 10.978873349362338 10.287713610014466
Pb 18.52806436500922 12.958980099728121 8.608893845475222
Pb 13.431613478285527 10.811128597636966 9.84139637936964
Pb 13.468935279399421 9.145731512101404 12.663380124824537
Pb 20.115201745687042 15.482173015241385 9.644774044788345
Pb 16.00357385698802 9.815226064702683 14.48183439952661
Pb 12.27927491891095 13.960000513741866 10.142178695353175
Pb 17.28546076843869 15.912634307754193 8.114028095810934
Pb 18.089263512329772 11.812590825504234 13.102355338905149
Pb 17.20473350796961 14.624435338182488 11.221087745567319
Pb 11.137380721732942 11.44749726598226 12.351150981347262
Pb 10.389835719398338 14.57890124521125 12.985965411181096
Pb 20.365654579422312 13.842831028336517 12.363186342788948
Pb 13.501399693250839 7.9898976049475 15.779364456158655
Pb 11.034866673366212 16.883292387240395 10.648879319403909
Pb 15.299621837230442 10.298821220505891 17.564656768074354
Pb 14.591204847035938 12.436159799101624 12.482186252340941
Pb 19.22120180129761 12.924890599662742 15.923606053028315
Pb 14.15831314147137 16.505001104872502 9.22499026040776
Pb 19.8945329065006 17.13308024673108 12.448209473648989
Pb 10.620524459917588 9.08174624784703 14.856111767749049
Pb 15.847871143597922 13.116017941171979 15.542624905666028
Pb 12.832779744106578 11.478279620946674 15.320456950891703
Pb 17.633979322244688 15.870935705408245 14.546451996864581
Pb 13.73999704728185 15.89686357272805 12.492483914381465
Pb 12.040767443453964 9.670379274490163 18.085536024465153
Pb 20.81248706963803 15.56086228665806 15.202075483988363
Pb 17.27269639984988 12.766394518836558 18.528324262011957
Pb 16.405895844751463 18.059133399608083 11.141773406026827
Pb 18.145230861361053 19.404767200191383 13.810458574533193
Pb 10.929489878034714 18.181728908350127 13.606237470596621
Pb 13.20481558779118 19.22158371380775 11.473636367626254
Pb 12.626298366068243 15.021264458538916 15.629645660915864
Pb 9.850134444409429 13.152742720950892 16.03017284480325
Pb 13.678058703401152 13.254347543918024 18.471637647261417
Pb 15.10796124837131 18.17308635339568 14.589081093119093
Pb 18.685658270637457 15.719916946197754 17.82416978998495
Pb 9.3856110675628 16.23914997794598 15.770030525308755
Pb 8.981171670389362 10.430097225766485 17.279800734776575
Pb 15.238927264877889 16.304150980237903 17.61223692254049
Pb 17.700015114712482 18.560925609685032 16.873753799674947
Pb 15.60618987330904 20.91288125095156 12.781366628517686
Pb 15.867640739831947 14.933063001872897 20.625255420724663
Pb 10.593871467899369 12.232889058043934 19.36075361200136
Pb 13.025062920127917 20.5895639589743 14.708150825889323
Pb 11.928205574822762 18.13286404598782 16.80106663522351
Pb 10.824703407574024 15.418962066428183 18.585021691421886
Pb 16.329435199557647 18.12848655318848 20.30235192022626
Pb 12.635186631490551 14.729498623080174 21.275096731765963
Pb 14.815055834092512 19.67236788051862 17.704606945368074
Pb 13.010545054730999 17.973169697123446 19.979954399703157
Pb 14.39137732345563 16.957794429933173 22.614010302738475
