54
Energy = -179.71725265 eV
Pb 21.00855184189841 17.944340873507123 13.073444960854602
Pb 19.90666747445743 15.824551323710034 15.625277928541658
Pb 20.267712325569843 19.14385218078156 16.03846385342002
Pb 18.756238529220276 15.362732844471807 18.783973212759545
Pb 18.655369455441235 12.748968641450995 16.951623331455867
Pb 19.65377679224378 20.914257330867958 13.33415711069564
Pb 19.04668706122807 15.812039028896315 11.50706819868069
Pb 18.314806670048224 13.408015912554664 13.661439994305963
Pb 17.25006271470736 10.414663723727402 14.861779106492202
Pb 18.700934783427584 19.03805557457642 10.840717437236169
Pb 17.799544008574063 18.01256279937047 13.880991085147203
Pb 16.684482616226834 10.052597079121831 10.331341030455496
Pb 16.671869530927495 15.423503678171937 16.08942779376979
Pb 16.638650003313998 10.584248934105316 18.322377038475707
Pb 17.501302388200255 20.89508669116532 15.83402642724247
Pb 17.541660311427282 18.15681966680173 17.78114393784815
Pb 16.004854576224297 13.703213136627562 18.925090431264046
Pb 15.311930388815682 8.582006238108951 12.927360668818473
Pb 16.300343964097088 16.740661109272768 10.025008847164852
Pb 17.206768749804503 13.314764459074418 10.384242231530814
Pb 14.99271817206787 12.398750135997178 16.033020061707152
Pb 16.432871479062456 20.819452526056853 12.703533861904914
Pb 15.590380750185117 15.232354205543587 12.8789274947255
Pb 14.82658948752355 8.65641636088991 16.367022621267612
Pb 14.922348613742596 11.88082472741792 12.345400078774347
Pb 14.588316615141537 16.19815612692878 20.78185032390663
Pb 14.993071586213762 18.75318214785046 15.443629212605346
Pb 14.395809106650827 18.353245271883882 12.145212102922146
Pb 12.092264063485809 16.736341057415174 14.607352141927414
Pb 12.252515016460604 13.662031642308426 13.322772365573318
Pb 14.5374706712471 12.22037572300517 8.98473264878329
Pb 11.637744890584562 7.9994383769241955 17.036541869220095
Pb 13.005269851736342 10.74216622267172 18.238948711417663
Pb 11.932129909029678 14.55114530799035 19.812149790564156
Pb 13.688461829239476 16.263525577557516 17.607076753285337
Pb 13.626715011282911 9.274374538449036 10.027151066158844
Pb 12.437497016289162 10.336724001406258 14.579596942292403
Pb 14.660129569142939 18.96188943256022 19.16479868373076
Pb 11.482427336376466 17.90963560157213 10.75813076382823
Pb 12.553727953090402 7.069016300455983 13.923164578391559
Pb 9.861255758759057 10.780462248286822 16.784793854280906
Pb 13.260798090448317 15.058858146452513 10.479952986980393
Pb 11.777164636310845 19.74975556860754 13.516212514530654
Pb 11.789374573642473 17.770819106841184 20.146804806571318
Pb 11.831692526892583 13.430891651318635 16.626273808881617
Pb 11.615880401590895 11.947830434370685 10.478588987496508
Pb 10.244136558397443 16.41151209489538 17.615070263494626
Pb 9.636490646739064 8.476725715058969 14.578762856467568
Pb 10.878413213464789 8.893437357160675 11.676447441420347
Pb 11.992591607235312 19.175656646845926 17.154155905856914
Pb 9.520241646797297 11.604282080860653 13.32132776413049
Pb 9.31477668498619 17.776115369663497 13.129831448211691
Pb 9.965916320318788 15.05655384966666 11.339570564782294
Pb 9.334833393518156 14.844144564611854 14.583703037895182
