53
Energy = -176.58274652 eV
Pb 15.050531774522966 12.920197577207297 20.250540755282277
Pb 13.400473496681373 7.712991188836175 16.72418534645253
Pb 10.973868656016956 9.921049283351183 17.639407918052957
Pb 14.3379716068979 10.421334062564254 18.46525050966153
Pb 12.052641046835951 12.807571992026935 19.169814204198616
Pb 17.469328549265757 13.94274830177642 18.25792946304331
Pb 16.765222735920474 11.055643425010253 16.3210504678065
Pb 14.85596226663069 16.034938472559077 19.223080040307035
Pb 19.267899073955487 15.862221542583194 16.085517487437844
Pb 10.464782138587736 7.482727650878946 15.35925236133038
Pb 12.23281206153082 15.672599471331797 17.356083834522526
Pb 17.864810552758975 17.21515346268101 18.804648508141046
Pb 13.044432772022802 6.858725184510326 13.559902257066925
Pb 12.627600885314465 10.210834771042697 14.641244639106231
Pb 15.799704948732568 8.60644880053322 14.355930780003963
Pb 14.368650927570458 13.27965577163425 16.86540145577189
Pb 10.566298194173713 13.102409868654783 16.022717228474185
Pb 9.073645523446705 10.336562304401575 14.958276169943298
Pb 8.83832916582993 16.898536744883067 16.32139740050585
Pb 18.298352355343933 18.96314291514582 16.05007430617661
Pb 18.875075939099823 11.252853482277873 13.790869431588069
Pb 19.771754688315752 14.231538651284309 13.027733434358337
Pb 15.544605060308172 19.284672697714065 17.840755151899373
Pb 15.801133223425033 16.615094984986165 16.06580926915602
Pb 13.0133598786141 13.696403636167027 13.655462156175451
Pb 10.770511581789984 8.89263844978186 12.332180391848253
Pb 16.916085079798517 13.962331301215382 14.654734636684937
Pb 12.84758207844543 18.449222960118664 15.614540709488466
Pb 10.072945990837617 12.429175098466944 12.687267942154726
Pb 17.670816545836797 17.150581824460442 13.160538720851187
Pb 15.573660461835434 19.835669122495485 14.420889664465685
Pb 7.693348550347941 14.456226796253127 14.574428536762527
Pb 15.52478280157658 11.54024804429005 12.873287040951475
Pb 19.137397148281888 12.3279626140149 10.248969171244937
Pb 17.619998132508638 9.476323300804289 11.41459843227264
Pb 10.547687360337596 16.040554018274975 13.810484018948424
Pb 14.282925925945928 8.898827244930121 11.346954259489593
Pb 16.033249997580302 11.477113124152192 9.344050064741989
Pb 14.288329848264974 16.836677111135003 12.958985696364664
Pb 9.83078107681919 19.334844526422522 14.32114530883514
Pb 16.589504331571003 14.31783680245485 11.260697483193589
Pb 12.742521673381216 11.728572686013544 10.841568791878652
Pb 7.346478522953313 17.475379255797655 13.461628508260969
Pb 19.40430272528268 15.643497125525142 10.11439189155112
Pb 8.3148187203989 15.072908245556018 11.415132679728126
Pb 15.755795256930805 19.304359525657993 11.148600336012725
Pb 12.682448547416623 19.759605389949847 12.537950871676971
Pb 17.532372815679356 14.019532482080196 7.913239784253934
Pb 11.60533695605958 15.005371352093894 10.906113650711806
Pb 9.87374994766262 18.065088523459277 11.231330876985947
Pb 14.354392860509446 14.3656205780521 8.9446560369119
Pb 16.515702640537437 16.874248018142715 9.1550200745685
Pb 13.15515438427505 17.719921097052175 9.953526489786782
