50
Energy = -165.20376188 eV
Pb 14.996730105676638 16.773996664916268 11.39736373531773
Pb 16.49321016518556 14.030615137775559 9.12386362793666
Pb 17.440221535438155 19.014952770292034 11.497193043475
Pb 18.20421576169233 15.842737874793261 11.137673108069453
Pb 19.88773083356097 15.713476354676994 13.859464652592012
Pb 13.289545437391062 14.817385868232648 8.811006736777236
Pb 15.453895370313576 11.005405295162339 9.237442526651023
Pb 14.407056575272168 13.052943313189523 11.492293339335275
Pb 18.14647425132692 11.46578977944309 10.98487247206587
Pb 14.446859918636855 19.937725318637685 10.635874527811225
Pb 19.23413711017692 9.207264446039153 13.229914977423162
Pb 17.53567426936387 17.854209363553572 14.552232085998696
Pb 19.806862369127415 12.421818123114868 13.538107397935917
Pb 19.03225906786002 13.968998490952606 16.385603424661344
Pb 11.242343870767195 12.572088761148756 10.036661479726899
Pb 10.009618650483521 15.453256151585972 9.074309819875404
Pb 12.112388907082035 17.857386859212482 9.633709806464196
Pb 16.478575317330957 11.184315962897905 13.95140829689318
Pb 16.835266779051956 14.506952022584889 13.85872901913218
Pb 12.976224582784038 10.057251591750777 11.059463618971485
Pb 16.343925019126548 8.750130472828445 11.740834218967564
Pb 12.122587821082655 19.039934695078554 12.817580288447283
Pb 11.965035624143644 15.318376686146678 12.0230596518872
Pb 16.80422886964303 8.107718181373194 15.089501446595976
Pb 15.146735714497504 19.90952371262409 13.838538239855518
Pb 14.34986770062121 16.662148068898233 14.649597151883542
Pb 9.801003101413832 11.133337444223983 12.983891294487613
Pb 18.922921596953923 10.57556385871561 16.273006288665375
Pb 9.32329185731147 17.368791490698417 11.678792248936228
Pb 13.700995981074714 8.4837003694498 13.717242693730608
Pb 14.916145526079296 12.384390769869928 16.718788743290748
Pb 12.47187643179993 18.898373009470273 16.240135387966777
Pb 8.795319485607697 14.022909445201122 11.725988649959
Pb 15.579339055775922 18.752961485421743 17.026939604239576
Pb 12.844133419937236 11.68247498157018 14.11267034350264
Pb 9.586519151971272 18.363151920269974 14.811773492929301
Pb 16.227354129812284 15.446428357864777 17.173914666921394
Pb 10.068456421556332 15.262744064165135 14.70127968087178
Pb 17.39135636146051 12.485712102090183 18.814071198365426
Pb 12.55490349000595 14.710453865871921 16.814112419761038
Pb 16.201850723596593 9.64779132127903 17.99676833432959
Pb 7.900107671414264 13.007685361527283 14.899564834578106
Pb 10.188111102461841 10.881685136606727 16.120013855201268
Pb 13.276796045486796 9.462398867252206 16.67849140790234
Pb 13.388994177754293 17.03229005192007 19.005150105472126
Pb 10.248710791640839 16.980382642804663 17.869083592165573
Pb 14.479469938091624 13.931818983422477 19.7569815058172
Pb 9.477113735466332 13.721677891699374 17.75065104908153
Pb 12.074456455455294 11.911094533963697 18.748221621350076
Pb 11.294368139053514 14.801046496550326 20.201434704542205
