50
Energy = -165.60864325 eV
Pb 12.695811758139573 7.501019454382328 12.314360030486851
Pb 10.22363114223879 9.433375842231447 11.76001678294022
Pb 15.511351922917884 8.96305875825329 11.840151317881825
Pb 15.31186520480031 12.51409806758054 10.581454876587406
Pb 10.360937284555687 12.158640860996407 10.09480315500615
Pb 14.20325055460771 8.164916508879276 15.115403462663805
Pb 10.907201235326562 9.093820763204596 14.902655624615221
Pb 12.6504345928596 16.741788898676575 8.147447076990325
Pb 12.794912645980242 13.945983499092717 12.063426109296033
Pb 15.592922155997462 15.466996664874024 8.602394659415014
Pb 12.612456809980703 17.260921659368925 11.6267380744082
Pb 20.458968917431726 15.14785630743195 16.187721650229633
Pb 17.06210205488714 9.739316377709056 14.789725200704149
Pb 10.246538570678782 12.270808517030469 13.467937175600126
Pb 19.275704153372487 12.056738651619145 15.638078001902608
Pb 18.010956263456148 11.251402461882591 12.109836002261067
Pb 16.16142254747446 11.672816430236555 17.193698003488013
Pb 13.323614079914616 10.83312959412324 13.440742149769493
Pb 10.204036477285278 12.057986438338467 16.67526001925599
Pb 16.162733657238455 12.96246850805839 14.088985263502796
Pb 13.003943429935045 10.017938261760635 10.04804843074435
Pb 18.812589154927057 13.442105170716884 18.457509336165767
Pb 13.98914111728033 13.507351175672177 19.2919024691597
Pb 18.35745585229695 14.479449893543395 10.137262277093859
Pb 10.51187478257726 15.003279919452792 18.5745190314513
Pb 12.88296334157059 10.37388987661608 17.20940566248931
Pb 12.509841006120618 15.747329998272338 21.151165859533574
Pb 16.168024621421697 16.08913458221814 11.92043535631543
Pb 16.203806221614556 15.003054909690881 17.10204663979834
Pb 15.81229329528975 15.961132689531878 20.25857243050144
Pb 10.562064033417457 15.373103451018522 10.115319029125379
Pb 13.133835524357341 13.40836211202477 16.11955908068495
Pb 18.78319903790544 16.621878675537808 18.48650810740553
Pb 13.222959340417297 16.70475834648501 17.835129994082152
Pb 19.04762625943566 14.312877402320833 13.408678836561656
Pb 12.830518659922761 13.503046141871629 8.524381368053513
Pb 14.145755477490805 16.105860905531774 14.497919539209649
Pb 9.856272753723715 17.97827467191702 16.97038382136228
Pb 10.827519982640206 18.182732570165403 19.964737718140306
Pb 19.4465641152387 17.260974650080865 12.15559422160297
Pb 10.69394529381776 15.34459368740641 15.164538022331195
Pb 17.800874991031225 17.074035943493463 15.04836173297404
Pb 13.967394768108848 18.68003218624285 20.559397796378857
Pb 16.18452962174576 18.62240780495915 18.155841976707716
Pb 14.839355267741105 18.568204809521916 9.720658386860414
Pb 11.993689477557757 18.57545295381934 14.618785525805425
Pb 12.57805219689643 19.943820742052775 17.643310464589543
Pb 17.96244758854895 17.680521389003026 9.386143538734089
Pb 15.042809051721525 19.242392278179164 15.163788802230338
Pb 16.903571938684436 19.236445659229492 12.179240431602228
