54
Energy = -179.3280796 eV
Pb 19.721417516200262 12.276055630305816 15.34118692786256
Pb 17.39008066671602 14.935240933006101 17.854893436383986
Pb 17.78601408908416 16.37256495107709 14.810448685309414
Pb 18.308400298962113 11.830205139648209 18.234104194187378
Pb 16.87570646742751 15.529263524528588 9.338719689343632
Pb 18.71864635960899 13.692744183007257 12.6797722865353
Pb 16.64059117041834 18.809561088503603 8.528545273908424
Pb 16.339347111199235 18.039403759954496 17.117155422419504
Pb 19.04362860689677 10.049400382403427 12.997001635122732
Pb 17.458943072520103 17.817901926814095 11.61968935389717
Pb 18.52932767950687 11.571785148537591 10.208918242792581
Pb 16.621198179915055 13.005435658672589 15.182776563108542
Pb 14.490273471835168 16.023186788018318 19.209686951493552
Pb 15.268218795504092 12.69590877919556 19.47340589958292
Pb 16.977306765544327 9.877603553043384 15.90147800104375
Pb 15.37519042474105 20.389895308562473 11.052491905922583
Pb 17.589761812450412 8.44109514484641 10.589639427839355
Pb 15.529275020439112 14.953946624163995 12.464775843014216
Pb 14.34283814850985 16.719853207823128 7.328312467245011
Pb 14.259513295784682 13.750796437645834 9.019441028718097
Pb 16.1621142584616 9.52691377360416 19.04399798184181
Pb 15.15180671113592 18.456515815440106 13.967300073654282
Pb 13.009047243579658 18.173630348100442 17.08020452532971
Pb 14.24652559952 17.357695849354595 10.557160884886553
Pb 15.906461574396161 11.084964770044314 12.303736018071884
Pb 13.557994405452959 19.756041724503703 8.361971435587188
Pb 15.70713204662881 10.643299266317127 9.00855260889691
Pb 16.241405141594072 7.835079665874972 13.474455394809436
Pb 14.642172281856046 15.510006658409564 15.817330110947271
Pb 12.068025533727745 17.233590738225804 13.900114321594577
Pb 11.982304801370557 15.073161769693135 11.278561571700573
Pb 12.157124612874783 19.821167528244843 11.49796508639437
Pb 14.307928046146001 8.397674975459527 10.905545377234919
Pb 13.730739986953472 11.434055277248094 16.656752420952806
Pb 12.85593481561883 11.373438694908074 10.8498688193633
Pb 11.080470624364018 13.554157296984805 8.5480153247847
Pb 11.333171842747097 16.982967028756207 19.568747701943767
Pb 12.64499033138199 12.911812581449038 13.72966354815806
Pb 12.039159306013994 13.765594328349307 20.323918703753872
Pb 14.26504810572325 8.147029004452795 16.887679263741937
Pb 13.03082468970193 10.282232482531116 19.673971193519023
Pb 11.196890969906006 17.2427407665098 8.672075903187588
Pb 13.144495413843195 9.493221135946435 13.917765229631755
Pb 9.656259848433857 17.900227423245298 11.568015760701654
Pb 11.68173467618969 14.422567175219582 17.107664435640523
Pb 9.861938356549224 12.589840384925731 11.683822102738526
Pb 8.813618156205921 15.226844136787186 10.102545426495155
Pb 9.687924467975048 16.9094991962491 16.65429582684424
Pb 11.287745005328008 9.157600492054783 17.146587945975412
Pb 8.993890349517807 14.891023427613538 19.344428038738947
Pb 10.044699544008147 11.809284905173769 18.61337375621971
Pb 10.13788111961847 11.46954267385283 15.205963858925358
Pb 9.478516559868412 15.212612748263053 13.589007159259586
Pb 8.318784449223468 13.844844207525687 16.4461373119343
