51
Energy = -169.09447731 eV
Pb 19.702097008776978 14.432832550155561 12.601694394574
Pb 18.05929617234323 16.45848612430373 10.540028675934787
Pb 16.614036119687015 14.80608227192879 8.05962012123808
Pb 20.459470831329185 11.219723275346873 11.73590607137373
Pb 18.57926989176763 12.938343453070814 9.788278647342642
Pb 20.2866933085309 11.623877485405773 14.843145611398773
Pb 14.68498648216833 16.922467261435585 9.300564689142453
Pb 18.544042761182247 14.210066161890914 15.773433956719321
Pb 17.120254207594495 16.47956966891446 13.9801665455944
Pb 15.826571826270342 18.58091010113821 11.957512029987246
Pb 15.609152711950388 11.744323723415715 8.938478134580816
Pb 15.529465313767554 14.23038768805781 11.142364501761717
Pb 17.334872928048355 12.101851723209132 13.047515736623678
Pb 16.275638187516318 17.058429770223547 17.460053291229297
Pb 17.8489584673756 9.619459844636598 10.467603045283933
Pb 13.098304855076147 14.144166363988349 8.1282479929509
Pb 18.539112112859797 9.107946874049206 13.940279407007688
Pb 17.306306283375008 11.247617779741402 16.32530896996249
Pb 13.495384601575669 16.415996078421465 13.047031903083978
Pb 15.721625715820613 13.876390817069023 18.471092313654
Pb 14.546924632048851 10.36894676129565 11.642386724776957
Pb 14.727832138163114 18.705451607165912 15.132928623345858
Pb 14.580242308439566 16.42500560429452 20.136600503544454
Pb 12.800556887535006 18.92984971137662 10.953411571973334
Pb 13.416966655395367 18.800164565095976 18.264432669631734
Pb 13.128201949411439 15.824566550350502 17.049119257744593
Pb 11.576257105682464 18.397155967294385 15.013209979808737
Pb 16.176658119944413 7.666982666386574 12.407952731661362
Pb 15.299617646916992 13.851658355377703 15.19317775105171
Pb 10.103836775232692 17.808510654151565 12.213822063555336
Pb 15.094099330701338 9.353927308320348 14.850502301096034
Pb 11.847953092395237 11.192798756330058 8.79749939941068
Pb 11.370321416774946 16.710886389366088 19.874546707595226
Pb 13.813330548364824 11.20282376433545 17.391070231068102
Pb 12.844377744128586 11.91160567450522 14.20396574160877
Pb 11.097330931677257 16.578247308956815 9.280059946057209
Pb 11.815818621489445 13.454379568521968 11.193397879019829
Pb 12.719665457408064 13.660032273202082 19.989263252757137
Pb 10.58409760156173 15.190801830673323 14.201665413543013
Pb 9.614207341497798 16.80776151701176 17.130422216770587
Pb 9.832598092409388 13.700869836163116 8.262612421821744
Pb 11.423087586790682 9.965333692211258 11.805836363244765
Pb 11.122127782767356 13.138439636186396 16.829618793322926
Pb 10.883886207830134 10.968737796461998 19.305933590882223
Pb 11.01621929387581 9.782992609939972 16.254646577687993
Pb 9.005494460780103 11.654365014112818 10.54061950108214
Pb 8.843458568245044 14.903944481902192 11.189359566407983
Pb 9.470310963176138 11.888272320088964 14.081610890236917
Pb 9.17107921289345 13.949506656329493 19.284499258188262
Pb 7.991740185625259 14.192356484271738 16.191939519265322
Pb 8.327494175207299 11.210345736913942 17.368166709381743
