51
Energy = -168.31261084 eV
Pb 14.730429908271084 13.307180046893246 23.022141449594493
Pb 13.11019577437934 15.509165493975607 21.355781014843576
Pb 11.476619154337767 17.977348695642053 19.778768770674315
Pb 16.47627277129384 15.697054050928399 21.58442485523686
Pb 10.12781758453437 20.169776937686777 17.748145487790325
Pb 14.899138338976007 18.064916312800516 19.935693496984115
Pb 13.179238463419958 20.624388285085608 18.293672833287076
Pb 18.657014267357717 18.12085891499346 19.763332379783222
Pb 13.135067570063987 12.390028018361251 20.332582815141862
Pb 16.59792362689116 12.562093491255883 20.65256777506267
Pb 16.696947700588332 20.523938254533117 18.466744335115422
Pb 11.765701822065088 14.831411494619434 18.363492970333553
Pb 10.109493645463326 17.312931643514904 16.445752591870136
Pb 14.994003008199845 14.718207184030268 18.40416794308074
Pb 18.308189976203668 14.982641938231865 18.871095308745435
Pb 11.908901515683954 20.014896255347924 15.091493235657051
Pb 13.33776762599957 17.56132607408661 16.906152921364228
Pb 21.240592305130495 16.75500630918638 18.001308539304322
Pb 18.613206228681697 11.12053704470544 18.5684177341439
Pb 16.7349987397767 17.532662789863622 17.063480487139437
Pb 12.051875208445905 11.721916392960702 16.91465147215265
Pb 15.160796987655015 20.301013552395638 15.589907284876688
Pb 15.10184199977795 10.833289450390614 18.215326447638027
Pb 10.596142129620654 14.155548476232111 15.118722753882558
Pb 19.486333807143296 19.66065562580114 16.90216539158947
Pb 13.904469752972812 13.855087475111107 14.905995888362366
Pb 16.370816749042895 20.29658923530434 12.307623834451753
Pb 21.566387866283886 17.94705176563899 15.08129944056469
Pb 15.223000151888149 17.22812378198713 14.05821867831619
Pb 20.727956858652018 13.3570039773589 17.308049614311585
Pb 13.376397045426202 19.279176660544735 11.888615882829411
Pb 11.960068809513457 16.934846516117545 13.574110553860718
Pb 17.29972990821357 9.564367265098614 16.075932259864768
Pb 19.16107639052714 15.771831059138506 15.677922710114485
Pb 17.438480750190795 12.836257881591205 16.03280706857034
Pb 11.685795955332493 11.514708727929 13.661638188261438
Pb 14.373245290209457 10.282223613537653 15.048799958686383
Pb 18.400013370853294 18.586216774957485 14.081895531704923
Pb 17.31989679868972 14.324942926369443 12.999770065581176
Pb 16.51480443971007 17.220326150651985 11.138580962561809
Pb 13.45735649931557 16.99516815358865 9.57326227111169
Pb 15.35804155403197 19.559967251900037 9.190882198426866
Pb 14.694595767476237 11.927674052512664 12.237435096893746
Pb 20.56319409416801 13.121513373271847 14.136932000298211
Pb 12.231645864557262 14.146174566453068 11.956573092064923
Pb 18.391440375280858 11.015183132062587 13.368247037514156
Pb 20.315209887519316 15.977662340743116 12.626151043607857
Pb 18.57161141583152 15.0296143334212 9.877367609657284
Pb 17.510093957167314 12.105301184592921 10.537080423926492
Pb 15.158752035080221 14.325856416747683 9.761633115016714
Pb 16.42432274371532 16.816718215517117 7.951716728740149
