6
Energy = -16.10363322 eV
Pb 10.343713465432621 10.32126202878876 13.23306446651452
Pb 13.358604152522394 11.1609469045608 12.687547274759908
Pb 11.068583342035888 13.362145534255118 12.663593616548349
Pb 9.938937125677402 9.868362091459373 10.286025943886903
Pb 12.95398786481652 10.707096947213046 9.740936354054481
Pb 10.664226003091022 12.908238447299183 9.716884297811793
