6
Energy = -17.76949072 eV
Pb 11.345051841918957 11.690532437224437 11.33551733616711
Pb 12.097040054845719 9.653036490396584 9.211900309901425
Pb 10.431041988659594 7.140000721015111 9.299608547020915
Pb 9.463760637009985 11.075438918092367 8.512690761031209
Pb 9.346277448160484 9.143812215492725 11.148042058086226
Pb 8.250459775845444 12.04113404529832 11.171625813807557
