6
Energy = -17.76287605 eV
Pb 13.91346431308201 14.140878026288044 16.184150534279425
Pb 14.15472961851069 15.149451333449274 13.388882706959235
Pb 12.528673905510558 12.320106952611718 14.321222809708482
Pb 11.787042700556219 14.188076520885536 11.721238617307446
Pb 14.789001079991047 12.526605379369686 11.942140352138676
Pb 12.085078634825855 11.130614741519706 11.503405232598757
