6
Energy = -15.35794379 eV
Pb 13.79714313965936 11.212219290453918 13.971494216886386
Pb 17.614435729080498 -0.838941890531626 13.465736748429645
Pb 15.72672224180461 16.019255560621104 14.476201005521936
Pb 11.029952173428464 10.36446601636076 14.650733777827984
Pb 14.084334208571395 14.062795084407105 12.940409538928156
Pb 11.317403485414923 13.210635728176316 13.857540158250215
