6
Energy = -18.33801952 eV
Pb 14.854835751519172 11.74689724320077 14.220502565779618
Pb 12.556277851171513 13.603660777392701 14.986891123169238
Pb 15.439433420733982 14.499529004892084 13.037126058964992
Pb 15.201449457835436 14.692666692718857 16.094292169523474
Pb 12.768561054895837 13.50298017054875 11.943339550763929
Pb 13.176833551172546 16.39780099154327 13.85984664790033
