6
Energy = -15.72736995 eV
Pb 11.660573176122467 8.916468924432312 12.908998050759703
Pb 12.560792132887997 11.634652704380818 12.909575894757593
Pb 12.954961921316734 16.0645124567483 14.655017793191208
Pb 14.361461795968427 13.258859246816483 14.693362388882443
Pb 12.695361333304877 14.47019056697821 11.944598383958768
Pb 15.583620787602852 15.417110410142998 12.780018177774197
