6
Energy = -17.76427029 eV
Pb 12.877297248570695 12.73418886242861 12.12894286843301
Pb 12.76707998292649 10.698111525626505 9.84886203078427
Pb 11.764031999949982 9.5126992115576 12.483714241447805
Pb 10.392621486013171 11.589987743636474 8.273566973902716
Pb 9.856602274724706 11.85214381846527 11.156772492606754
Pb 10.69596641007041 11.887381777061524 14.131235960422245
