6
Energy = -16.24955505 eV
Pb 13.300072085034554 8.88684606187115 12.445842358763594
Pb 13.354686990056672 10.70232332094115 9.98092303105048
Pb 10.643858781507443 8.990400338189378 11.138802682508121
Pb 10.603490272387694 11.967426612675938 9.951726113372592
Pb 7.987764493805551 10.48963150705436 11.308336081406562
Pb 7.87778101959461 12.925288580077527 9.465692871692527
