6
Energy = -18.33910738 eV
Pb 8.028112233810939 8.657027007489534 10.56748759833943
Pb 11.024796947925303 8.916447534453084 11.153815503193691
Pb 9.058407340680157 11.157129228108905 9.131138504102724
Pb 10.590314923256182 8.704116985333789 8.133565205748857
Pb 12.040773290614194 11.450604101614802 9.755640550825738
Pb 9.52334816432036 11.394344410153828 12.157476349808869
