7
Energy = -21.09708261 eV
Pb 10.650689807738145 12.784183151282711 15.548883767526696
Pb 14.412026424685914 11.576742943601326 12.558664833646331
Pb 13.038993582530333 14.054453212933252 14.481027144510115
Pb 10.99749379029351 11.668872085910392 12.877264127154145
Pb 15.360082556074133 14.603509166266173 12.697190681137558
Pb 12.296690183469023 11.017405049793396 10.267473350791994
Pb 12.935834767015749 13.92190281552042 10.963954564816758
