7
Energy = -21.20368213 eV
Pb 13.0516970734193 13.163753740113057 10.851186133441255
Pb 12.034420380218407 11.13717729066702 12.697930670379575
Pb 12.11403458014502 11.087474603902686 8.996395006860581
Pb 9.566486754185366 9.825996295433407 13.60034228864752
Pb 9.588336257637502 12.119023354151713 10.778094884244261
Pb 9.845630539384741 8.866033431954147 10.844659774279267
Pb 9.671809087390477 9.748604201998248 8.057784633901836
