7
Energy = -20.71725865 eV
Pb 12.317927645605728 13.05794363969729 10.914029688312336
Pb 14.359958918937824 11.901383176854338 12.9718506669586
Pb 11.298264536112214 12.502765827122824 13.92093284854489
Pb 9.51580676000122 11.62166835110284 11.648550871012702
Pb 12.143654987995438 9.836048760827682 12.26456672249784
Pb 8.6582932359043 10.752991919966433 8.920143952577602
Pb 11.674601947623131 10.49131585175681 9.248742135017917
