7
Energy = -19.04057301 eV
Pb 12.128127171669844 10.448288390206805 10.678901296569212
Pb 14.028753653545829 12.722485986225715 10.459964808902775
Pb 12.740547753549306 7.574410369893471 10.194659167804982
Pb 8.72490171364868 14.040298281490392 12.572528148019538
Pb 11.45475107829445 13.609601555927547 11.697879423902034
Pb 9.066765913847176 11.272108563425158 11.5299679325705
Pb 9.905446357044971 8.33372611412436 10.867563996801238
