7
Energy = -22.19321819 eV
Pb 10.577681276276117 8.476809186504886 6.775248660527691
Pb 7.61818866629275 8.089030806202569 7.882803508710996
Pb 8.715640766742641 11.022838737632096 7.241795758928603
Pb 10.020675159040191 6.399992199388429 9.144044137296605
Pb 10.006989402444617 9.531252422116593 9.739275264403167
Pb 6.965938681490926 10.504807960268494 9.853426689133292
Pb 7.774848931566259 7.655231571739932 11.043368864852766
