7
Energy = -22.19489075 eV
Pb 11.304819939951772 8.719546362775773 12.032290022158927
Pb 10.410595362745537 11.727164354697852 12.616487251689483
Pb 12.130307494162295 10.907265582384404 9.849506973958626
Pb 13.494001223958568 10.93571669430119 12.73949738536328
Pb 12.604343555252113 13.67620954139021 11.360703784786928
Pb 9.057171578041386 10.09351130870432 10.225444489107355
Pb 9.858544309366124 13.155517094165438 9.81627273253517
