8
Energy = -24.21997905 eV
Pb 10.167700121672294 9.321373004558206 6.0967547173459105
Pb 9.32884463065606 7.660784511351118 8.379062569544308
Pb 8.093687145843845 10.789783973397537 8.615774810077045
Pb 11.381338928203373 10.828577759697474 8.315553096725324
Pb 10.553467512029128 12.14425269436504 10.820640729636764
Pb 6.706506721391305 8.387576201813983 10.257105482072358
Pb 8.930936894648383 6.418906716965322 11.173569696086478
Pb 9.738901955154375 9.350129047450087 11.242922808110709
