8
Energy = -24.76160501 eV
Pb 11.891970398593237 15.654030352856006 15.21450565744629
Pb 16.32039735186542 13.7331642508952 13.347956865857034
Pb -1.5048818036933342 16.490265482847793 12.939596369052595
Pb 14.554685312667088 13.952635362420015 16.08670340323608
Pb 14.627280565210034 16.518521583070633 14.079226349756706
Pb 13.141420566477326 13.970990838962257 12.688670934643772
Pb 14.510636825534776 11.34112765535032 14.107475862461905
Pb 11.817388273429511 12.515114939622968 15.22091105695068
