8
Energy = -23.9186237 eV
Pb 6.8993726856292525 7.527466084851658 11.078038948607324
Pb 9.635361055871169 9.244197483490545 6.842737365394041
Pb 8.918840901540213 11.700827590895651 8.46013808858278
Pb 8.267740198520556 6.416797428959364 8.616128576108194
Pb 7.096976541236235 7.623141485158086 5.968401011147449
Pb 6.6700788301500324 9.459279817301498 8.567495607109697
Pb 9.508208867328937 9.156434012599725 10.272069874014246
Pb 11.305652919723482 7.1740880967434855 8.497222529036389
