8
Energy = -24.77892384 eV
Pb 14.177099782527455 10.671303044115362 10.307910302120083
Pb 12.976480903657265 13.896937745968534 10.519519897139476
Pb 11.105839311451795 11.16259454980413 10.874649185932137
Pb 9.912482973260873 13.992354496089913 11.815841092891384
Pb 13.804667140886727 12.030624427793128 13.144032535573768
Pb 12.088160162504648 14.672346936055842 13.65032412156216
Pb 12.565434224835814 9.14483545806946 12.834862481989632
Pb 10.639666648476222 11.698834489704545 14.122691530392283
