8
Energy = -24.77681419 eV
Pb 12.485879691420323 8.326301654062512 10.594880110122135
Pb 11.00942844088988 9.364157798345571 12.984361056874025
Pb 12.385677221501032 11.675020733762546 11.040494689716137
Pb 9.150171851632328 8.143415444425196 10.34596620590071
Pb 10.910895059943947 10.11912926847741 8.428655083977388
Pb 9.082260027181297 11.27465114639677 11.538428895603808
Pb 10.09443448990242 13.134952684362057 9.276608641736608
Pb 7.807607350644924 10.838633831832128 8.662058086500224
