8
Energy = -24.61856578 eV
Pb 12.641890222935572 9.506463672062107 9.752639296456238
Pb 13.645459163397819 12.461654605513218 9.142759837075854
Pb 7.870796489830166 9.301681107173081 12.485421362604807
Pb 11.966710973042932 12.138984018848037 11.551449460180987
Pb 9.552378054278607 9.619153068067044 10.082031602819937
Pb 10.99376937769094 9.567157718535638 13.001590150232943
Pb 8.872070297794817 12.255909230531561 11.86691248585998
Pb 10.515783750868394 12.20240849919603 8.635879564003055
