8
Energy = -24.47474342 eV
Pb 6.917797065148431 10.214776229596279 7.392345842480735
Pb 9.55580711099067 11.828098718402048 8.04010574694124
Pb 9.881422197628899 8.254332305379323 7.855934634809173
Pb 6.969733544613754 7.206223048659491 7.853547085678898
Pb 11.855177566215668 10.20614063143442 9.222607382714331
Pb 8.184741864795699 6.692773690734008 10.595948020720336
Pb 8.343737770539379 9.881086920562097 10.24040026504887
Pb 10.832882990739172 8.257868565904259 11.340411132278604
