8
Energy = -25.07080709 eV
Pb 7.868077601949928 8.77257769270599 6.752482615836415
Pb 10.88540340605514 8.914559674368075 7.88668685325382
Pb 9.154209711578744 11.589435491426782 7.365025866971619
Pb 8.699155334019633 6.844604452157602 9.24275208352251
Pb 10.714797668243815 11.26805265062116 10.200647280784315
Pb 7.8164939780311276 9.935663619327476 9.641941424863514
Pb 10.98508438064723 8.184795212907675 11.071035726472644
Pb 8.427517209529436 9.04105049654056 12.390167438350216
