8
Energy = -22.15121299 eV
Pb 14.647836866600034 11.896041247854214 14.065596940429032
Pb 12.690688773818836 9.766282987468703 13.552109321877595
Pb 12.899817460170837 12.627326553508464 11.844909318527211
Pb 13.049458884288294 14.837644510540676 9.938913678371739
Pb 10.575520308863462 7.932013736445605 12.667245710265922
Pb 10.247370519419865 10.520568572520512 11.35842295616319
Pb 10.493368223104172 13.420804918021988 9.665209258226456
Pb 8.136115204212828 11.665495003179483 9.698330860689666
