8
Energy = -24.44532166 eV
Pb 11.129690239763924 9.017326674211267 8.152203913944202
Pb 10.335149588341789 10.189445150111776 11.128548327316567
Pb 8.115143673257704 7.630967994155973 8.39157966307597
Pb 7.352666822106869 10.542284626697763 9.722902213889107
Pb 8.093856209871763 7.910002016910091 11.546038649318584
Pb 9.94103591328272 11.939693917765581 8.381926861047285
Pb 10.7506189452316 6.915666194607083 10.389723597420227
Pb 8.370546160120519 10.08876368640638 6.52736729169952
