8
Energy = -24.76361736 eV
Pb 12.500761002055004 12.650419675003395 10.655286034116026
Pb 13.005278043808415 11.61419434156271 13.653425853049889
Pb 10.29060441532352 13.061055157027868 13.043013452691442
Pb 10.676396379730319 9.891655201772085 12.272348636805285
Pb 9.309445362022528 12.076980701557549 10.28130908892552
Pb 11.588045957732826 9.912357159964147 9.141935121527112
Pb 13.805044003723046 9.706288779248144 11.291311591223973
Pb 9.122956426243965 10.683238596072345 7.6640767809045185
