8
Energy = -23.69307708 eV
Pb 9.970797401018123 14.966836879771867 12.960963162868504
Pb 11.365823546626851 12.586448966888991 11.380286981744172
Pb 12.871187611426782 15.548128378004165 12.363974003755017
Pb 11.735414763504911 13.20747450839956 14.696123269830242
Pb 14.041584525852032 12.573232015537407 12.543855116180236
Pb 14.65404413934262 14.581153526979051 14.920982598202746
Pb 16.706545593017424 12.163231243202818 13.871726804922426
Pb 17.29251659775575 14.079245659507109 16.071614748080066
