9
Energy = -28.06653501 eV
Pb 12.737183879589619 7.787026720570252 12.292204574781733
Pb 13.986608116632187 10.5083019498475 12.236819006496932
Pb 10.586347240298394 9.945946095700755 12.976390946365687
Pb 11.718202956088204 9.32469744391581 9.800193014594207
Pb 10.866405290474978 11.94077495173955 8.090122794417066
Pb 11.931498759653083 12.396188361239114 11.10638087593871
Pb 8.810403707459681 11.058007699746627 10.309301449301902
Pb 9.249675818628853 12.915779131334167 12.818846380879707
Pb 9.755325435953111 14.221501420392245 9.977816533798787
