9
Energy = -27.1714784 eV
Pb 13.719005349153992 8.737098597224106 10.070532292725982
Pb 11.24619492598048 10.43943188069841 9.102634784407353
Pb 12.215178034437375 10.199479752976439 12.317438487664866
Pb 11.222278592330708 7.289264514864344 8.935507700654616
Pb 10.922673988351182 12.867489114743114 11.190429602995195
Pb 8.424777600257165 8.557376456360311 9.097835826695231
Pb 9.051346210261826 10.160070168164333 11.765645717827253
Pb 8.416141891859422 11.77928631595623 8.90446448811601
Pb 7.902078707723747 13.089725728293567 11.734722710132619
