9
Energy = -27.1473672 eV
Pb 11.53657403202157 8.086498864335931 9.230795379726429
Pb 14.194665985236613 9.803949708871313 9.512010730262714
Pb 13.511695345478165 12.508677773755283 11.032878084771971
Pb 11.377173184409454 11.31631991242562 8.879901025764225
Pb 12.071213490019165 9.747713671349317 11.982671577246405
Pb 10.482099018004744 12.612167551409888 11.753448384414503
Pb 9.135085477519139 9.58091908394889 10.539285164350494
Pb 7.650625673220067 12.333863142260482 10.398383472209744
Pb 8.304630748533224 10.944047206888019 13.255484596050415
