9
Energy = -26.70585039 eV
Pb 6.567429274206008 7.256075270760212 7.179430579883196
Pb 7.252243335291006 7.2449182373975605 10.14848162768529
Pb 9.628920158692248 7.102323105161794 7.5296845631374065
Pb 10.320729714930643 7.234913570618947 10.66539952493875
Pb 6.5462515311407135 10.374642385933939 7.185928191021278
Pb 7.231245600260688 10.381665079636461 10.155108401656518
Pb 9.604992475308654 10.563570458706637 7.536439019890918
Pb 10.299781677299388 10.428933575461098 10.671723155530787
Pb 11.983485931093236 8.84803861810101 8.362884634478073
