9
Energy = -28.28786103 eV
Pb 9.815990928999055 10.543725103963157 8.598963571152781
Pb 10.57924166317704 7.407423835139959 8.958057964004405
Pb 6.5476894887787465 8.115389245656663 9.008832034049412
Pb 7.472033840441948 9.881185090391195 6.5244976848055645
Pb 8.30632718083836 6.561775081705378 6.881915111249016
Pb 8.307795081893241 5.824349574387215 10.198513498260917
Pb 7.026000041013929 11.147619917041602 9.628392908740171
Pb 8.623411358855806 8.867546656896684 11.261612729190823
Pb 10.429486447881658 8.758962656171656 6.047191498547035
