9
Energy = -25.14516996 eV
Pb 10.6679775805209 15.58564471451957 12.974164706275713
Pb 10.810176687886974 14.394861511663148 10.095405325848356
Pb 12.399531808102193 12.9080385172278 8.088621319806903
Pb 12.622253684299304 14.93484473687156 15.191378691168591
Pb 12.264338057648517 12.924520866907597 12.831886427975267
Pb 11.65373362995553 11.091825527186765 10.260278593025165
Pb 13.648875798539786 12.063658749434971 15.632290866061593
Pb 13.693086800017559 10.178884011375292 13.176495551200134
Pb 11.512074986094014 8.603793909345697 11.823930448134229
