9
Energy = -26.91537883 eV
Pb 14.184456901548613 10.465191778830865 11.984779814124686
Pb 14.241926578546403 10.253255214486021 8.951096147370228
Pb 12.499431604005212 12.6683586833189 9.9315266890803
Pb 11.384270631924633 11.228160786352543 12.631343429026638
Pb 11.599917150754758 9.129795313748307 10.114787122049997
Pb 9.49628028665333 13.683870374446348 11.676490745840692
Pb 9.481399518408988 11.534871745567752 9.446083571969243
Pb 8.770872284453993 11.822240906139708 14.10344923582947
Pb 8.66950896695933 9.643795712911722 11.801306180803614
