9
Energy = -28.22881402 eV
Pb 9.389868118460937 12.052962699170276 12.450697787830755
Pb 11.974196254003857 13.925513567416816 11.707128020781186
Pb 13.76166307175229 11.609371976749967 12.941292536457693
Pb 11.07419694998388 9.654316241205933 13.809823953219185
Pb 11.376005332233948 12.72444839140516 14.63372415545345
Pb 13.713064305746181 12.179443726599656 9.760258420630622
Pb 12.356376246274792 9.637366167306896 10.691345491040396
Pb 10.538488067876457 11.948715377189652 9.340495666704717
Pb 9.301622459139411 9.321021038855848 11.000771850514118
