9
Energy = -28.2459176 eV
Pb 8.515555937579625 7.327426595988314 7.466297563116931
Pb 7.219912621925899 9.897233540543597 6.370320411610052
Pb 9.69288515871618 10.68557098561026 8.018906260700906
Pb 11.630497896563218 8.096320721286588 8.055186522108917
Pb 6.700868978516337 9.364615088294723 9.369637219066353
Pb 7.252016464773209 6.42273554485091 10.125954777803738
Pb 11.791606142341132 10.361384876461146 10.244497475049487
Pb 9.769585292206006 8.092540293274176 10.688844880067338
Pb 8.835388744590402 11.16048959090242 11.068672127688545
