9
Energy = -26.24193616 eV
Pb 13.049156212345327 12.85152534624725 10.368844527809522
Pb 11.89464526453212 11.746384048195027 7.782611115152624
Pb 12.365672004827733 7.901652248640603 12.244909704045966
Pb 13.525710754373074 13.249854212496246 13.247735520193451
Pb 12.412463990406346 9.559286207415402 9.824179563495758
Pb 10.646030076021972 12.708442485923925 13.082059264252807
Pb 9.881187644576523 9.465221718054142 12.407888160903148
Pb 9.724589464262007 11.844787817733778 9.79840790207529
Pb 7.912110425509425 11.762207712775567 12.140275802427807
