37
Energy = -79.17895993 eV
Ag 15.248559349618585 12.090488774758102 8.833465705327576
Ag 13.223760157261317 13.84252738051321 9.87605357004684
Ag 15.536374894624725 13.318113444536804 11.410118447680633
Ag 13.359745838029216 14.926120227932373 12.53015488056103
Ag 15.298258260600582 13.81532637908663 14.261369400906508
Ag 16.094038391553465 11.345395119019722 13.478051272758641
Ag 10.99801030097156 15.29223554121584 10.986510774390448
Ag 12.754593606217437 13.888931095210985 15.31154674254956
Ag 10.88999902471055 13.832745356584471 13.363205375876843
Ag 15.211401614041314 10.378589685486599 11.061352138002775
Ag 14.646185180505949 9.233240752972407 8.559700787188662
Ag 12.837179260066215 12.547365705075247 7.37362925400926
Ag 10.710868301407473 14.055571195044516 8.454625810986988
Ag 8.53697895639002 15.44796395522754 9.596600751646099
Ag 12.78827990423127 10.898767410374333 9.672817132075117
Ag 14.07774283085454 11.4092501550613 15.471525798553524
Ag 13.29398918803603 12.131304489728707 12.700986839834908
Ag 10.799128446543838 12.439741680468966 10.874447013930883
Ag 8.491222975701948 13.949280929618217 12.038847206436285
Ag 14.09110086330561 9.385952772369578 13.43714197744806
Ag 8.294317937649321 12.703136184347507 9.37666645293186
Ag 11.276927543519943 11.484914329899905 14.93107939270233
Ag 10.3294380005644 11.265267661037845 8.138840762847588
Ag 12.392636265180938 9.813865290969359 6.974393010304705
Ag 13.287827388712888 8.233712297041604 10.889375027621394
Ag 9.014437779507546 13.128069725990752 15.214303495257498
Ag 11.53364723382194 10.023848510747468 12.15680219885729
Ag 6.1950178844712775 14.212503660420838 10.541008476646883
Ag 9.136380165682647 11.408467371331051 13.089903252582987
Ag 8.993551319060696 10.156749952585594 10.377304467112467
Ag 12.406599721238019 9.084246297045187 15.656946011034625
Ag 11.087411537047997 8.663292697936592 9.18261376747699
Ag 6.828345774674993 11.632839450892988 11.561996646698017
Ag 12.090418171413857 7.426304013450226 13.368600317213748
Ag 9.905340493133817 8.975439965917717 14.327200541213656
Ag 9.950167164000474 7.779038027723574 11.590707713002217
Ag 7.663029409360152 9.085835776187013 12.609171358866055
