10
Energy = -17.72635674 eV
Ag 9.755349404979754 12.427143577280988 6.607198581301402
Ag 7.622854690592291 12.348482103788035 8.320028272738293
Ag 9.653633395059499 10.547489518458587 8.58524679196378
Ag 11.625819512635337 8.655622097817586 8.843064708490575
Ag 11.745850806590187 10.556316587209533 6.841359866136419
Ag 9.699976149406867 8.772487307789703 10.792990030646965
Ag 11.745644189776062 6.968569568563332 11.037822427223189
Ag 7.718089630863053 10.677661875736366 10.5286875603676
Ag 7.949538484770904 9.183511205183535 12.843863531157051
Ag 9.99500560313184 7.3744780259782665 13.111500097780524
