24
Energy = -48.80414133 eV
Ag 13.842205057907794 10.807327072974106 14.53045582768401
Ag 15.37431210738543 10.103141335382965 12.167694898435533
Ag 12.766916330270002 9.074587967316115 12.597564459192709
Ag 14.892790732436337 11.584932096410874 9.828920720794912
Ag 13.645299361353747 9.070145853007958 9.912335331448322
Ag 13.347687335734891 11.975149679227988 12.107900469767053
Ag 10.79207594988859 10.875224199682412 13.269085174941926
Ag 11.316993406235513 7.621878138271562 10.620824330949043
Ag 9.997420426470365 8.244084918165102 13.018533328192344
Ag 10.70609052445881 9.051065472091656 8.307931908350335
Ag 12.862241498125934 10.865477508797156 7.908803351656569
Ag 11.365179099971582 10.604880728049064 10.503541780409392
Ag 9.0624355029477 12.896427229273632 13.755606392747865
Ag 8.83664934144929 8.964732670641288 10.571314533718867
Ag 10.229145598644434 11.876098768936702 8.126260815543674
Ag 11.012859938986326 13.446859478824404 11.869055955843267
Ag 12.455455714337708 13.077451358047181 9.55368445133341
Ag 8.004567397752915 10.337051794589717 12.850464440862376
Ag 12.02353736434362 13.018224103692932 14.458413543947042
Ag 8.125314563361925 10.106191522901527 8.158587471521729
Ag 8.85105690669567 12.049390815884795 10.864888979524137
Ag 6.5076741412496935 10.705314357000086 10.44363403647911
Ag 9.858126759589148 14.289637142847342 9.434168775103016
Ag 7.506067719306602 12.736828566887624 8.52243180045726
