30
Energy = -62.60614360 eV
Ag 10.661634197100708 10.456414162207574 12.819248093773123
Ag 11.190885041496463 10.256550306350714 15.91294611035387
Ag 9.014651578748722 9.701835208702407 10.335864007060115
Ag 8.693040732523485 11.499383628633755 8.107290864130599
Ag 9.07969099636262 7.919178338692807 12.531682755899423
Ag 9.818310565181125 13.32193566663521 12.762229890590026
Ag 10.959174440628066 7.858815589548731 14.530779842902945
Ag 11.83569102136032 12.554205653295988 14.508906368431683
Ag 13.803792144868485 11.30467549587402 16.035764336089265
Ag 9.467824095986405 8.758844455015566 7.7103054939686295
Ag 13.164144897951898 10.489669800220026 11.293611632951453
Ag 14.376703387778349 12.032977412325263 13.361945704100439
Ag 9.09987532441414 11.825445567101049 14.987803386597708
Ag 11.852957296306009 8.046658926969458 11.885447129928323
Ag 13.124340266199479 9.553673310388584 13.973347352480378
Ag 15.295406284035158 13.302054849587686 7.928040403680303
Ag 10.037584899557004 7.113173174172406 9.98869048191039
Ag 12.412138081947003 13.346914135374762 11.829693945280216
Ag 7.8630418596730784 10.467255478684725 12.781744457968289
Ag 11.815274581130344 9.126495485210976 9.222689774816638
Ag 12.814194282709853 14.015098843553197 9.072626563799503
Ag 14.877932825079014 12.657174967352624 10.62470093605714
Ag 13.579051594877205 11.201288964732969 8.560440622237486
Ag 10.456581234845745 13.580214351075917 7.579280039144152
Ag 7.12758624802489 13.045306705516927 13.28770679806823
Ag 12.956126512305524 12.98768007374267 6.453514842498978
Ag 8.193888352289381 12.462781446642936 10.676852387470099
Ag 10.934723507574526 11.781138181304899 9.914909219447487
Ag 10.273810197216982 14.434863287347275 10.23777333073404
Ag 11.237610399940577 10.841859564709024 7.034644725835006
