50
Energy = -109.08974701 eV
Ag 17.689233243810357 11.849417610797511 13.338402750927049
Ag 15.843733354385892 12.207828489224726 11.26522263256469
Ag 17.302004018750825 14.366699291414884 11.895305979167672
Ag 14.517149322511063 7.638126527939406 11.935116498661335
Ag 15.624417871198556 15.475704354112446 13.831796479071553
Ag 15.332095678448683 10.10233392924689 12.98866358036375
Ag 16.40676148293564 10.370674920160074 15.506716304465083
Ag 14.179337081053648 10.014768653477457 10.416624874497675
Ag 15.458150804622866 7.798038251958333 14.600174109389483
Ag 14.215073229380106 14.466061526494467 16.164736374051948
Ag 15.214841326590609 12.69411918742833 14.282157657358105
Ag 16.043773011972785 14.225220189806151 9.223827737944076
Ag 14.441918320778326 11.796612119810751 16.95930453820804
Ag 13.219225966193651 12.138233282323625 12.352413136878043
Ag 13.700906228264456 12.591812432554953 9.50492744279195
Ag 14.375136283582787 14.788285188090105 11.289883261454312
Ag 13.486042944963812 7.613980271559253 9.25132177019613
Ag 11.760340539965986 10.774073598399392 17.29771836203359
Ag 12.008636977992857 6.560657125282556 11.506832738738256
Ag 13.593698257326357 9.734772095578519 15.328263978238
Ag 12.945994467652225 14.690643977268962 13.712228250080814
Ag 12.33621913911947 9.519324526952516 12.556443055502184
Ag 12.63736121508375 7.288793199176583 14.139173993644334
Ag 12.481332798533295 10.068697012422572 8.159123632873337
Ag 12.320099501474662 12.3829430288232 15.13863157341237
Ag 9.55942452123813 10.636649730608571 8.380664839981549
Ag 10.837064801377908 8.470618039962964 9.87651983556923
Ag 13.731069723796123 17.20816182844972 12.673095718196018
Ag 10.805265505976173 9.466965484369005 15.00455725972592
Ag 9.989171434534022 8.017458332059261 12.71544586881932
Ag 10.433722308215408 11.65780032399358 12.997983592905697
Ag 11.453629201921318 12.775073029195164 7.908466596192353
Ag 11.33004586083407 11.287340548899746 10.39888134642546
Ag 12.34346586485947 16.63095198514432 10.34502950233825
Ag 11.315420651761457 14.01200738569206 11.335871255595402
Ag 13.362543936762233 15.021585729511637 8.345654084726169
Ag 9.529530047307674 11.867618262338711 15.724327813406662
Ag 10.242223318690426 14.213476292699468 14.252186413994245
Ag 8.766646844770044 13.278478045265105 7.637006842035133
Ag 11.003856947424289 16.527307281397096 12.793647613301705
Ag 8.80373757942107 9.894083471019554 11.044401031433894
Ag 8.258697220904452 10.04280027818591 13.837326967297336
Ag 10.559364681649448 15.279659381687845 8.580403807834056
Ag 9.63009797686149 17.205423185504987 10.38131302349574
Ag 8.772673187529035 12.66981238178261 10.440770258066877
Ag 7.85443945435151 12.855121257488603 13.565685135601974
Ag 8.690334761850494 15.112749291976298 12.091189082246617
Ag 6.461394386194921 11.094670780844982 11.912123977000709
Ag 7.861448235331438 15.224783536158702 9.39713578933042
Ag 6.354866511311364 13.7840700965037 11.27775561914836
