29
Energy = -59.48327764 eV
Ag 14.96490307076709 10.880314112187717 8.354995095243902
Ag 13.911665319627373 9.578294864028331 10.800587620862325
Ag 13.689440971901716 11.402688035002209 13.01387907043995
Ag 13.310618214386299 6.935586656846278 11.548056319180828
Ag 12.514227494476215 13.86291299319911 12.259909371495677
Ag 13.80749385832826 12.405813513710418 10.340242858602476
Ag 12.252859132456274 10.43369417448618 8.722316359131602
Ag 13.088831929689352 12.8975849135632 7.687655847137373
Ag 12.58970769810265 15.011457207976509 9.668615875270966
Ag 11.688898509644948 6.308468732896807 13.651972318304992
Ag 12.19762037163979 8.970459563759087 13.049025252005576
Ag 12.258245006385383 16.597013012699712 11.920949946524047
Ag 11.335667151144674 11.242389806451104 11.543233740859053
Ag 11.053349876008053 14.670158331961819 7.293851866927358
Ag 10.121954365362908 14.951945691733055 11.307807124737117
Ag 9.940973007885189 10.338214230278835 13.814290310699283
Ag 11.267760669154669 8.422359141851611 10.362466355972806
Ag 10.284320439353206 8.66005829393957 7.695144874197148
Ag 9.607799065517396 7.799538280245085 12.635886242185544
Ag 10.511814033279544 11.614039535588471 6.945867899885483
Ag 10.732980858408725 12.970543048120723 9.400779262600444
Ag 10.125128080031706 13.152666466391326 13.551586421093695
Ag 8.691125254629243 12.496953671391598 11.270885894605918
Ag 8.58741281000658 7.841882964917632 9.832458308473734
Ag 7.577136191801939 11.730148105728592 13.757548595543339
Ag 7.802269838796666 9.87857469978448 11.62379098808243
Ag 9.36084961941483 10.537503845406668 9.418934775739237
Ag 7.509406559822722 8.931092796659854 14.238920696694041
Ag 6.974601065735195 7.236703772952558 12.047401171262132
