32
Energy = -66.69299518 eV
Ag 11.639200455484788 10.797811463502834 12.420726851968992
Ag 12.587061507117038 10.911052028925964 7.93124444639381
Ag 11.403691354847362 15.296078768074915 7.397440299656498
Ag 8.168490170495721 12.549799106294268 13.121924617974551
Ag 14.46355799591848 10.512462235589119 12.385186788550175
Ag 14.201005204940568 8.613761590800037 8.19498930052009
Ag 11.520304601013699 11.617344464738729 16.24344318619057
Ag 7.262997792222122 10.250337441594958 14.394237323069833
Ag 10.459531290374185 10.544150750336652 9.895648447954603
Ag 13.616759841909378 13.436404574865417 8.367564335672538
Ag 13.949286122717059 7.765383079067789 12.896903633806184
Ag 8.86287785772097 9.944349931003236 12.154333263434005
Ag 15.522232144045088 8.538063840404025 10.669239188814364
Ag 12.736166922924006 8.870956321249567 10.554472327036168
Ag 9.180606434953562 15.202894647852535 12.59566419776822
Ag 12.097819259921112 15.045102919665837 10.037731832110609
Ag 9.974809985985788 9.815548805178462 14.793136235088664
Ag 9.852180804231944 7.919314998861509 10.430027999588837
Ag 14.839066183352328 11.065277536723237 9.578291255541112
Ag 13.323345791425366 12.763734611591465 11.129071218729383
Ag 9.874153343542103 10.704770470408699 7.2007543543217345
Ag 10.70959063233162 12.962981995811298 8.536982189000526
Ag 12.195727435888466 14.855777118613219 12.78128712528552
Ag 8.20284139065737 12.12917795190056 10.320892295150863
Ag 8.7405474729 12.009195465090198 15.961357838591754
Ag 13.134803131187889 12.459471714741415 14.043095516318143
Ag 10.478391288631231 13.097139770374008 11.463511253330891
Ag 11.379995975877126 8.40723049354344 8.129067642704454
Ag 10.489433103824462 13.515791911703888 14.462584412270184
Ag 9.31015114894164 15.083930809811386 9.728690748670072
Ag 11.10001026974278 8.1362875934076 12.91260946609305
Ag 12.85984031968571 9.656876741937705 14.690549038912195
