15
Energy = -58.11868281 eV
Ni 6.702921372760461 9.716290738448194 6.707290593147616
Ni 8.14930290591383 10.69802594795104 8.174099949205036
Ni 9.115650186653866 9.455911629429306 6.392438957275156
Ni 10.330980222129801 9.64093395828775 8.372923607633352
Ni 7.60306625625893 7.900414511714878 5.5672764133365975
Ni 6.406186144479033 9.066639103283032 9.118789283152934
Ni 5.911220670925561 7.60022853091196 7.150930466722308
Ni 8.225626679203236 8.225395874626956 8.210368256971433
Ni 7.895275459693291 6.174712037100694 7.086527387468285
Ni 8.74493571334191 9.678384283042668 10.125480165953888
Ni 6.609247609261732 6.528171200816013 9.048960627462066
Ni 10.137364359109158 7.373839603752619 7.471286660047097
Ni 7.963512508664576 7.561161007338295 10.568808790252863
Ni 10.22398509531899 7.829369664448337 9.841589505322519
Ni 8.985145777884963 5.983664681445447 9.141876234710573
