18
Energy = -71.89057349 eV
Ni 10.286939967753352 9.123121173513288 11.569654663689052
Ni 8.018145259929646 8.260541372835402 11.265928159501918
Ni 8.19243730869751 10.535141173926462 11.508096275959614
Ni 10.140308958660533 11.423912484380741 10.702730317013424
Ni 9.260575684488623 7.087126152837255 9.684594605437969
Ni 7.111198890891756 9.744102587233312 9.514375788802353
Ni 8.218470747230157 11.880766465538104 9.530174530688909
Ni 11.854382996655263 10.231709617972172 9.860284011071613
Ni 11.420371929496408 7.9647261676789665 9.773228843594303
Ni 9.397719179446053 9.414913552561803 9.504090199577046
Ni 9.30189815553029 8.945731195265495 7.1980644533014155
Ni 6.910927734399569 8.695027860786567 7.397678925577338
Ni 10.640177013473233 7.032402029253402 7.745672875610875
Ni 7.918384935514369 10.805203916683407 7.517967353564838
Ni 10.189718601883042 11.116953059527457 8.20161574053254
Ni 11.567386445467998 9.201418279278894 7.780335133904737
Ni 6.924817815247807 7.384723851183799 9.364475471697798
Ni 8.318948375233722 6.825289059543632 7.55384265047429
