12
Energy = -42.09414699 eV
Ni 11.89147698119861 14.0025861831602 10.694676
Ni 9.497875018801384 14.0025861831602 10.694676
Ni 10.694676 12.055441313915365 10.694676
Ni 8.383168617398013 12.02385460500331 10.694676
Ni 9.521688265729233 10.03689860486762 10.694676
Ni 7.23579882488563 10.029972248419183 10.694676
Ni 8.421572469059447 8.009274858040154 10.694676
Ni 10.694676 8.075497537074332 10.694676
Ni 12.96777953094055 8.009274858040154 10.694676
Ni 14.153553175114368 10.029972248419183 10.694676
Ni 11.867663734270767 10.03689860486762 10.694676
Ni 13.00618338260198 12.02385460500331 10.694676
