16
Energy = -62.60021279 eV
Ni 10.80630232477111 7.304401880576715 9.707409362495234
Ni 11.819473191077295 8.63268278663818 7.9995970258959295
Ni 11.576107173756395 9.531163870922795 10.076124732502674
Ni 9.295477259516415 8.923616596461661 9.379957073383522
Ni 10.055638546502697 7.310934757153392 7.398083590200094
Ni 8.151612046033751 7.073507365933797 8.690782023239425
Ni 9.755070965653774 8.989774110129874 11.589625020599515
Ni 7.462829719533077 8.34528184371499 10.658115833844276
Ni 6.575778597127651 8.7850722913069 8.504352230280716
Ni 10.549406744878999 9.184900764668106 6.098269364146855
Ni 7.889090307262965 10.475853362093051 11.476895175327899
Ni 8.491369309429428 9.11554228021694 7.204958672144656
Ni 5.888531897740177 10.054644074699157 10.343129397018423
Ni 9.843494743066477 11.042338356768653 10.353728504987549
Ni 10.308796687551597 10.485442560395382 8.059336347698064
Ni 7.823981311848114 10.677896311708778 9.09731432384962
