12
Energy = -45.32441184 eV
Ni 7.984876494137501 11.441556623363152 9.6951257774476
Ni 8.119462302370907 6.7039526861226255 9.395044672933523
Ni 7.937125680498095 9.088225537020204 9.681239580119808
Ni 9.879360821363266 7.847882365657506 8.501581862681544
Ni 9.616989415426158 10.20908029674363 8.516329179467865
Ni 7.205308777345926 8.01435494288224 7.695740572992212
Ni 7.400789915176076 10.338682372871926 7.716546044514819
Ni 9.582308557930359 7.897728806608517 10.838511701851395
Ni 9.573872626844317 10.288354187155132 10.907522305857553
Ni 8.983951363487277 8.873914698032328 6.610407569020915
Ni 8.79446714085484 6.489876782297038 6.9973992717785505
Ni 11.279754906501944 9.16465869930867 9.80281946133409
