19
Energy = -76.69547172 eV
Ni 9.905003954816689 6.7937471780154945 9.257391549301893
Ni 10.414392922138806 8.634250567639834 7.877216730664088
Ni 7.618733165974987 6.832548329565538 9.241070822278772
Ni 8.731915172976715 7.145507962541284 7.195617726950654
Ni 12.114797927549178 9.914268524632988 8.76287912113369
Ni 10.993830568670054 8.534264270843284 10.365235663926544
Ni 8.95443783570292 9.269574426386848 6.1829535513121945
Ni 10.908068434268738 10.612051358785159 6.754924147951689
Ni 8.756458836934597 7.588428653134449 11.310128050035372
Ni 10.84372494079798 11.791965538484636 8.796402028697916
Ni 7.654693160105863 9.908805086511885 11.661486720822692
Ni 6.489460295560727 8.579165570131195 10.191738594603597
Ni 8.805908643656203 9.010640284864802 9.585679804305123
Ni 8.886184675785207 10.781591547134365 7.9795072058678445
Ni 11.529790515268552 10.790078894961836 10.884600032111726
Ni 7.288053581940365 8.899681509076904 7.864346014306802
Ni 9.265624115039627 11.153128016833099 10.418117773133797
Ni 9.900384212717753 9.572794296464513 12.09904669318434
Ni 7.085534216772537 10.743223195218942 9.494720302233752
