18
Energy = -72.16020932 eV
Ni 11.706686319292366 7.873452098851908 9.675507543283201
Ni 7.77666616082219 8.669811696884974 7.949553094864242
Ni 10.604241704936923 9.408561713574757 11.095357685978067
Ni 8.860033531090123 11.009545227388355 11.58924641124586
Ni 9.596150509233293 9.883948357961026 6.82199681861948
Ni 9.410958880249968 7.515762607219525 10.153446185852054
Ni 8.440005616382582 12.192697422304827 9.61651974422601
Ni 8.356284722573726 6.417979598358409 8.375733205133454
Ni 9.269696129208029 9.89098647500533 9.283174800913038
Ni 10.665434770110389 11.612778853676575 10.146371917174347
Ni 8.263749104681112 8.812174339487083 11.68841755849609
Ni 7.108159723194407 7.715686069415835 9.959740742325405
Ni 7.750550597806585 11.011922145046185 7.747020010404494
Ni 7.141724632223532 10.134540299732448 9.980031352693285
Ni 10.119306931243186 7.9254786141408635 7.90040870737673
Ni 10.621321394254398 5.91900223739517 8.975276506843047
Ni 11.417568919579494 9.940777940376547 8.558611806742826
Ni 10.056180897332187 11.886382823683023 7.888508513048403
