14
Energy = 22936.55995213 eV
Ni 10.022556501893321 8.438204366652235 11.116708540402561
Ni 10.306935834155782 7.244464018442133 8.69990897277074
Ni 7.658860440347135 9.556081884783575 10.887919695770194
Ni 8.316058043379286 7.667225803714052 7.3481250582314335
Ni 6.650332713088581 9.001467508449615 8.627734739380465
Ni 11.298768081741287 9.629784671318124 9.162712071911137
Ni 10.289947984993283 9.056059987607352 6.8974822390196255
Ni 9.638028779792123 10.993683665954888 10.471742530383713
Ni 8.04317567624368 10.096323665499673 6.95811807106708
Ni 7.736405463700202 11.210990524668704 9.06462113696763
Ni 9.829872383155507 11.29134243512942 8.089583550248795
Ni 8.071335460837817 7.196534128973614 9.761144964407267
Ni 8.999339516653858 9.265325863943216 8.943905620895393
Ni 9.894243120017883 6.108371474863542 10.726152808543848
