17
Energy = -67.46342477 eV
Ni 11.42636130864039 11.425339818675766 11.77283369358926
Ni 9.021474691359618 11.425339818675766 11.77283369358926
Ni 8.16836194453053 12.273580854119425 9.802987589655144
Ni 10.223918 11.956474471070042 8.685077413322876
Ni 12.279474055469317 12.273580854119425 9.802987589655144
Ni 10.223918 13.177059486351308 10.674409813858436
Ni 10.223918 10.223918 10.209328478458284
Ni 7.292839710075777 10.223918 10.632006799791215
Ni 8.528378267839082 10.223918 8.655502017280838
Ni 11.919457732160923 10.223918 8.655502017280838
Ni 13.15499628992423 10.223918 10.632006799791215
Ni 9.021474691359618 9.022496181324227 11.77283369358926
Ni 8.16836194453053 8.174255145880583 9.802987589655144
Ni 10.223918 8.491361528929959 8.685077413322876
Ni 12.279474055469317 8.174255145880583 9.802987589655144
Ni 11.42636130864039 9.022496181324227 11.77283369358926
Ni 10.223918 7.270776513648674 10.674409813858436
