12
Energy = -45.05948816 eV
Ni 6.725912562919413 7.484137054931984 8.379777664111034
Ni 8.770208280642056 6.845674286660812 7.294949502055744
Ni 6.865343426518138 7.263129757823402 6.061824821419079
Ni 8.766863255321836 8.461002617353914 5.516799010120127
Ni 9.731160924248547 8.893090193506273 7.582422641080225
Ni 8.320187563021491 9.635368754269066 9.381597512685703
Ni 6.803720081495688 8.181568685514318 10.581199310229348
Ni 10.548015903799374 8.971995354745681 9.735750242049543
Ni 7.407286735630557 9.298165139082379 7.193004130593439
Ni 6.039546527399803 9.703035082559126 9.030029009304272
Ni 10.759559973660222 6.979907868776869 8.541643121846654
Ni 8.766718165448403 7.415481101693644 9.625791653216163
