19
Energy = -76.69376635 eV
Ni 9.236431860044522 9.76309989625654 8.67055588407983
Ni 7.267069069083632 9.965259300167 7.562058389199686
Ni 6.879687427004086 7.515042669026809 7.831565133813258
Ni 8.634779264654759 8.316514711680462 6.533244628147895
Ni 7.377096463747227 6.502372985746784 10.047101125395855
Ni 10.863252515317178 8.716358887512522 7.514456497912868
Ni 9.228860596164283 9.521585955275487 11.0467537748258
Ni 11.261349006504933 8.420106675164998 11.668099463290378
Ni 9.097393584262589 7.347823545913465 8.606751704484171
Ni 11.28875375781575 7.395233086256405 9.49259965258981
Ni 11.022549932308577 11.225086137171713 7.979637001950405
Ni 9.447754084820156 7.212487562131755 10.943412535099633
Ni 11.326863794987343 9.722645619869343 9.759847424867786
Ni 7.610226690412511 11.047833621706639 9.904624242132451
Ni 8.675541035701864 11.984331243053278 8.018242785898066
Ni 7.282451875864523 8.782411455171449 9.693986586568705
Ni 7.5110214491395775 8.044946895015677 11.871991449327524
Ni 9.920090367137641 11.636500674727596 10.04211574289935
Ni 9.490256502694619 10.458337332957468 6.404685068987484
