13
Energy = -49.91038359 eV
Ni 7.369441691572079 10.564460253896998 9.352208059783989
Ni 9.351835 7.418713129404878 8.135959905784237
Ni 8.113295146144612 9.351835 7.358242235609289
Ni 11.334228308427923 8.139209746103004 9.352208059783989
Ni 9.351835 11.284956870595117 8.135959905784237
Ni 10.590374853855385 9.351835 7.358242235609289
Ni 9.351835 9.351835 9.351304689142278
Ni 11.334228308427923 10.564460253896998 9.352208059783989
Ni 9.351835 11.286168063773092 10.565787926150998
Ni 9.351835 7.417501936226909 10.565787926150998
Ni 7.369441691572079 8.139209746103004 9.352208059783989
Ni 8.114788943680368 9.351835 11.346868968316498
Ni 10.588881056319625 9.351835 11.346868968316498
