18
Energy = -71.60425494 eV
Ni 9.133211621861275 11.544733804236413 8.394882683222182
Ni 11.671253603259915 8.386570279032505 7.613551099690895
Ni 10.913513748793656 12.476419349253945 9.733871210803315
Ni 9.558434561859139 9.226447811923686 8.192383631138883
Ni 11.426431926454104 10.589451877702054 8.399748066511458
Ni 10.684112751396068 6.504981357191825 10.785362307526091
Ni 9.23816631883852 8.332235563849949 10.658277847226628
Ni 7.381040075834757 10.080238344292903 7.7465506090303515
Ni 11.483781587794544 8.60137368869217 9.896982560731455
Ni 12.4036203795589 10.730945283867094 10.46983640094458
Ni 10.097026156367086 10.442769160681427 10.486455861742735
Ni 6.967590011490493 7.950792560354362 10.904320032191752
Ni 7.705977894024221 7.9404512241034055 8.732279577570251
Ni 8.403152269270718 6.188696022994826 10.20464696517935
Ni 10.02855074084569 7.022023474226482 8.648534712198698
Ni 7.749721267412244 10.051166519044845 10.03121916320753
Ni 8.623080438204108 12.275132966944813 10.484552513346008
Ni 6.863803711061155 11.981058446539027 8.968067014013238
