13
Energy = -49.4259961 eV
Ni 9.79042139672923 8.283880836732658 8.118686407469632
Ni 9.371555283561396 6.120854078133208 7.374209051190688
Ni 9.865707015203766 6.98139827327159 9.974135575024025
Ni 9.60389642313402 9.399848960799318 10.091547541032988
Ni 8.087017784314801 8.083487388461075 6.584034283466281
Ni 8.850556520817554 10.248538939102659 7.31416201902527
Ni 7.587981463350276 9.19061887937947 8.903059013037144
Ni 7.812150825954107 6.836814390726545 8.865962369646581
Ni 6.534743263141553 9.758852957378856 6.8089340866126395
Ni 5.930777359342338 7.795108614256498 5.598480398623536
Ni 7.947348726837751 8.007162409726629 10.870353028256261
Ni 5.8827174989155955 7.84263527947391 7.918131557976974
Ni 7.024777710153098 6.078813851498567 6.7870042716799945
