17
Energy = -67.47137009 eV
Ni 9.868503 9.868503 9.852152091802042
Ni 9.868503 12.810914178141108 10.297659175793308
Ni 7.822847541990131 11.914158458009874 9.448793749827225
Ni 6.926091821858891 9.868503 10.297659175793308
Ni 7.822847541990131 7.822847541990131 9.448793749827225
Ni 9.868503 6.926091821858891 10.297659175793308
Ni 11.914158458009874 7.822847541990131 9.448793749827225
Ni 11.582128644038603 9.868503 8.310624152665495
Ni 9.868503 8.154877355961403 8.310624152665495
Ni 8.154877355961403 9.868503 8.310624152665495
Ni 12.810914178141108 9.868503 10.297659175793308
Ni 9.868503 11.582128644038603 8.310624152665495
Ni 11.914158458009874 11.914158458009874 9.448793749827225
Ni 11.066892206370612 11.066892206370612 11.421022648763389
Ni 11.066892206370612 8.670113793629389 11.421022648763389
Ni 8.670113793629389 8.670113793629389 11.421022648763389
Ni 8.670113793629389 11.066892206370612 11.421022648763389
