12
Energy = -45.20152532 eV
Ni 7.913378021846005 8.38997956297385 6.647635449539324
Ni 7.981912479981753 6.141499489674357 5.722786016993044
Ni 6.215721158432884 7.588373625608558 5.273153521306858
Ni 5.971726379022703 9.739739936050205 6.126062176565436
Ni 5.940345901764559 5.681209185510544 6.693307444908266
Ni 9.496598311172573 6.805968116181103 7.4226394396761695
Ni 5.15823969401012 7.907551950873486 7.287769626700377
Ni 8.019501334413455 4.96565796918565 7.753393134415384
Ni 6.709956681488864 9.358690347015234 8.354671899424726
Ni 7.049165949344333 6.964568620718975 8.278231074382337
Ni 8.730441105432877 8.412019518597123 8.966756713896478
Ni 8.902124961612314 6.13385365613364 9.562705480714458
