10
Energy = -36.90215873 eV
Ni 9.253921065637984 7.333176396736544 8.453236030050734
Ni 8.309819449881633 5.256089353545862 7.958091392733089
Ni 8.978009277509853 6.696916359913566 6.208481087559907
Ni 7.269059182855141 6.682459389064252 9.524688137605384
Ni 6.964985164728075 7.021794502308707 7.27062739581866
Ni 5.4415348189874315 7.959948580917842 8.753797391293409
Ni 7.554801679417849 8.93474143288607 8.923076291157061
Ni 8.645737010232896 8.948876807114013 6.810591147873869
Ni 7.29293963097241 7.984260319845729 5.173864942998621
Ni 6.3111271896684356 9.203671327558736 6.945480652800357
