10
Energy = -35.45801918 eV
Ni 5.710183161844224 8.073326425610777 7.6349945110239625
Ni 8.131532180164555 6.898126316820393 8.355454874313132
Ni 6.961954163283674 8.812689167481965 9.381655070989952
Ni 10.796809887541563 6.702652320607235 9.17593351242058
Ni 9.328865872259227 8.171554210003537 10.098134207304092
Ni 11.339602258511185 8.991815981646804 9.407792753692956
Ni 8.909754264405487 10.162524238586197 8.69022870922928
Ni 7.722434747750279 8.884790615432143 6.946027813626793
Ni 10.08860505821776 8.246950068384752 7.662507424356696
Ni 6.250054406336237 10.360226371020568 7.868571618777064
