10
Energy = -36.92601696 eV
Ni 9.708946720983748 7.799542669974833 9.376805570166294
Ni 7.670288696588188 6.623900336600269 9.596580513714807
Ni 7.755801448882297 8.558764143540763 8.35219292112892
Ni 9.710700958800746 8.553268950778808 7.1399157999797325
Ni 5.990147150452564 8.54529402108422 6.8783539655141706
Ni 5.68096444264246 7.795930063532878 9.094585846433084
Ni 7.888578119731179 9.875579594486457 6.437740280568012
Ni 6.627096468891974 6.371590102208666 7.508376111684714
Ni 7.9277363098067015 7.6005922590260955 5.938157296846161
Ni 9.004997557335447 6.374608093343177 7.673721063388019
