19
Energy = -76.76640017 eV
Ni 9.013557534387752 9.78183078435173 12.002772406025136
Ni 9.078728187014098 7.531822364411534 11.053666070429038
Ni 7.21483953271791 10.869564470841263 10.601723534139976
Ni 10.044710525009792 9.824789102746836 7.476046195841466
Ni 9.094417452551996 12.089316581210426 10.575035440960205
Ni 7.059728039743635 8.611096673688419 10.897243028189738
Ni 7.82712032221272 9.306370432841735 6.960523916907572
Ni 10.553991815602613 11.733984088986766 8.812469319385816
Ni 11.715868809908025 9.753019643724466 9.185724275677758
Ni 6.449059976247365 9.631927751133023 8.80290843445276
Ni 12.605481276024841 7.676356385368327 9.611503231810683
Ni 9.227249806098886 9.773130889268657 9.768432996359268
Ni 10.367210069225337 7.661938718336437 9.108488765952442
Ni 8.216083161055076 11.248468940095307 8.347219940659599
Ni 11.81299309774932 8.210656374166579 7.394279309950178
Ni 11.083619060666397 8.65337468006354 11.211803127778389
Ni 11.042990614008913 10.998121143561958 11.07747777397777
Ni 8.039871423376399 7.916744381462703 8.847833488852737
Ni 9.475559815723363 7.61240515251554 6.927431891280315
