17
Energy = -67.41445009 eV
Ni 10.175459647380213 8.753836325346429 11.607846428232186
Ni 7.926740873131021 8.399901695305305 11.458723193932844
Ni 8.77509682662144 10.59115221135065 11.476767002183244
Ni 9.423502284670645 6.909196925744629 10.105665509782526
Ni 7.302882314388154 9.964629368856698 9.67758647394372
Ni 8.760395854788989 11.898499318142695 9.557746576826402
Ni 10.742394932865498 10.59230202790045 10.027563455123314
Ni 11.586417971881607 8.242936102603474 9.91270660244146
Ni 9.311299250552317 9.010167709276141 9.26982768128616
Ni 9.377713653197803 9.214878399765812 7.017028373963129
Ni 7.034483776431617 8.845817911636095 7.559173110209487
Ni 10.738507610710236 7.370044437762431 7.972011713081213
Ni 7.87145994859058 11.017098082818881 7.569506837572556
Ni 10.153569367225794 11.367835948020206 7.806033605817882
Ni 11.577236411021607 9.554517507321565 7.987532778521699
Ni 7.073760766052866 7.534482607470975 9.509554756027729
Ni 8.489348510489476 7.05297342067769 7.80499590105417
