13
Energy = -49.59207439 eV
Ni 8.213243801847726 11.264283110442221 9.45602519181604
Ni 8.213237790226605 6.519850749269565 9.456026193752894
Ni 8.137923633358772 8.892069434698028 9.538651808001203
Ni 10.149645329084517 7.66862913065597 8.746983750358545
Ni 10.149648334895078 10.11549671356112 8.746977738737678
Ni 6.894685285677863 7.702319380871989 7.904775566431812
Ni 6.894690295362001 10.081815480776527 7.904781578052805
Ni 9.556007262480868 7.710906161466866 11.028797455953756
Ni 9.556011270228408 10.07319964401328 11.028792446269616
Ni 8.779678339332706 8.892070436634882 7.129368127392088
Ni 8.81774668134975 11.206850995365354 7.200727059977436
Ni 8.817743675539315 6.577285870156999 7.200721048356314
Ni 11.416563798679881 8.892048394024362 10.254197538773116
