19
Energy = -76.28108672 eV
Ni 10.215768173640335 7.561886818227527 6.189693926165825
Ni 8.582635946556964 7.218242140532657 7.930948700375021
Ni 8.767027418564291 9.328619961916257 6.732373126419233
Ni 10.74830840603564 6.338609567941029 8.166000892738474
Ni 12.349971264581248 7.735370865563386 7.237679530059594
Ni 7.193143890990245 10.791342649666326 7.554892869540013
Ni 10.507679103359218 8.835285923942457 8.14676037183593
Ni 8.28782679208606 9.386338403945073 9.270603275136175
Ni 7.274697474622167 11.650940065049921 9.670329218723486
Ni 6.699881162447878 8.455906949218818 7.607104473697365
Ni 5.82553162467277 9.78697661061164 9.25801009598984
Ni 12.001302481564915 7.767733076576468 9.60398342914963
Ni 9.49009790311071 11.097094878498709 8.549458974547955
Ni 10.645374992470503 9.54631347622747 10.323155931388289
Ni 9.00469863389122 11.005568954866837 11.018546676254283
Ni 9.656867512158858 7.3410926545704065 9.987155493043753
Ni 7.155570252871598 7.627723596735875 9.971997586856492
Ni 6.874918502080758 9.899379035248238 11.25130804156023
Ni 8.79340012150554 8.70027602787233 11.60469904373015
