14
Energy = -52.97000888 eV
Ni 7.470347031027932 9.853813628768924 8.906779054790904
Ni 10.57610750304744 9.559659069229127 11.463375256256594
Ni 9.144460039060597 8.568815361669444 9.897771430855563
Ni 10.724389808649324 11.965711069762827 10.233754425223756
Ni 14.165624461381793 11.178970253458576 12.238495397384268
Ni 7.71043008568498 7.605703116764164 8.325445586912032
Ni 9.249633519412022 9.153545013473959 7.626867162491551
Ni 9.234476950552683 11.395822267601897 8.486597763591389
Ni 8.704380881713035 10.769551636236363 10.661445382647242
Ni 10.905626632657503 9.900959714548785 9.099888659786926
Ni 12.250815415961267 12.480594991407607 11.91429195911176
Ni 10.08600966582569 11.617697604981847 12.430816561097613
Ni 12.569572363082397 10.528858526844834 10.67301513182112
Ni 12.11638062707315 10.455330000792582 12.974959935599184
