12
Energy = -45.1473702 eV
Ni 7.192433063225919 7.528355961742648 4.969549903532707
Ni 6.323151897826842 9.526593719775907 5.828066538147974
Ni 8.54274033264364 6.436789268958943 6.4549482324283405
Ni 8.383420074839753 8.825380333041565 6.678151200821261
Ni 10.093766552336431 7.575064023946358 7.716855808239503
Ni 6.569729781872415 7.516000520454716 7.226847017970135
Ni 6.706819543414226 9.762669364764498 8.071362143820185
Ni 8.624534848438717 8.835984454904057 9.09136821272298
Ni 6.427703836457328 7.997984630089353 9.533098877822006
Ni 8.19479640337487 6.592072242174936 8.79063751907496
Ni 8.075594666680537 7.39332027112456 10.99127612490568
Ni 10.201305672250566 7.3457818823837195 9.983835093875074
