14
Energy = -54.14413296 eV
Ni 8.90275795057426 11.205173351755372 12.859757692935805
Ni 8.813488510505262 11.938705719974184 10.60911562580338
Ni 10.82408 12.155607559495603 11.809805440847555
Ni 10.82408 9.492552440504546 9.838354559152439
Ni 10.82408 9.91806097825737 12.256681165805054
Ni 12.834671489494738 9.709454280025813 11.039044374196617
Ni 12.745402049425742 10.44298664824494 8.78840230706419
Ni 10.82408 11.730099021742637 9.391478834194945
Ni 12.745402049425742 11.205173351755372 12.859757692935805
Ni 12.834671489494738 11.938705719974184 10.60911562580338
Ni 8.813488510505262 9.709454280025813 11.039044374196617
Ni 8.90275795057426 10.44298664824494 8.78840230706419
Ni 10.82408 11.436463529259903 14.091042991236533
Ni 10.82408 10.211696470740105 7.557117008763477
