13
Energy = -49.43971523 eV
Ni 9.973716 11.46520821178542 11.64458889830001
Ni 11.178915590509732 11.087649728919958 9.659852481007356
Ni 11.703117540000719 9.973716 11.76637487634932
Ni 7.911121900852871 9.973716 7.7572095131852326
Ni 8.244314459999282 9.973716 11.76637487634932
Ni 8.768516409490267 8.859782271080038 9.659852481007356
Ni 9.973716 8.860478753683948 7.626053851730477
Ni 12.036310099147128 9.973716 7.7572095131852326
Ni 9.973716 8.482223788214577 11.64458889830001
Ni 11.178915590509732 8.859782271080038 9.659852481007356
Ni 8.768516409490267 11.087649728919958 9.659852481007356
Ni 9.973716 11.086953246316048 7.626053851730477
Ni 9.973716 9.973716 13.430443646811415
