17
Energy = -67.76258064 eV
Ni 11.408517800628292 8.663847281824925 8.747539466593347
Ni 10.562192956618656 10.958166577032777 8.829291264803057
Ni 9.894484226867698 9.525269712308154 6.961903443111631
Ni 12.171758242036068 7.900655873663572 10.930452140309919
Ni 7.8875031582121 10.347149969395986 5.867273937333383
Ni 10.676555155048359 9.689527521815647 10.872406426912262
Ni 9.582351072350317 7.284983106465682 7.885825488147421
Ni 8.285185798421642 11.05753016391434 8.05160410186614
Ni 7.635153432124381 8.63105633043341 7.423535965732345
Ni 9.153311515951167 9.16200767065708 9.148259608070724
Ni 8.727675864381434 11.034483568711073 10.421917021688643
Ni 10.029893968943819 7.275359822041918 10.258876041899406
Ni 6.1433952076114045 10.428108361914012 7.376598720308093
Ni 10.428903289881099 7.990460540350365 12.442053204380374
Ni 6.903588413141424 9.663676510591362 9.551541671641756
Ni 8.413879076995327 8.796961244192442 11.341616282916076
Ni 7.747744376962381 7.370883185708493 9.479221393820495
