15
Energy = -58.21863535 eV
Ni 8.98891725456211 10.08560079991065 10.926137617050951
Ni 9.705090582466193 10.79674149435302 7.612752906198317
Ni 8.846350356076236 6.9290308097024935 8.40505834226819
Ni 8.382580574466136 9.20233810143563 8.735937773611699
Ni 10.92576844620351 8.728873341615088 11.494133791439685
Ni 11.270832453382319 12.846957328181782 11.565879461554381
Ni 12.039223194344595 10.769303329381591 10.853834346188934
Ni 10.488793769683008 10.849154594647873 12.521850771074911
Ni 10.930846644759342 7.261357208002535 9.442891698800885
Ni 8.982819751377777 7.777183227803162 10.545448600476009
Ni 8.12281231580557 11.468650026678137 9.282069662327995
Ni 10.219459328247748 8.451960977378675 7.378692281801417
Ni 10.412584067841335 11.9034995332724 9.582274698077883
Ni 9.003386523580955 12.383127605486143 11.325490868053958
Ni 10.688873020917796 9.554559905865315 9.335885464789401
