18
Energy = -72.1654626 eV
Ni 6.0675627813116675 8.460915961361914 8.580242921475332
Ni 6.574200498485849 9.973387839633773 10.240204594174896
Ni 8.568591042935806 9.63316076506182 11.364864406304987
Ni 7.343739543364673 7.649080771622423 10.496069760061511
Ni 8.601361397848548 10.894554641363289 9.348671472137552
Ni 9.785302089292916 7.695922131811287 11.14118375128477
Ni 8.80256672932211 8.572268258522742 9.062744622646475
Ni 7.387584142532372 6.6392642228356955 8.185712200126376
Ni 6.73009543360777 10.585643421984638 7.9501586601686896
Ni 9.205489644496687 6.138672980873331 9.532775640942036
Ni 10.617431254029531 9.737482465525018 10.141041384000717
Ni 10.306564515036149 9.166232426878427 7.278364966867707
Ni 7.892401869292788 8.723881035378987 6.972261394604449
Ni 8.783933999386157 10.950905933947885 6.9304565838278
Ni 9.511033832820129 6.935243882403245 7.30820168088977
Ni 10.681814914468001 11.218276380886094 8.289416458192495
Ni 11.024526680710204 7.622926810849978 9.048069724128114
Ni 12.289581006798798 9.500155183872234 8.500642560789759
