18
Energy = -72.14051172 eV
Ni 9.984293162549424 7.425387707260281 11.463344209177396
Ni 11.939835441210114 10.636144816477254 10.27070966307578
Ni 11.805822190809693 9.091048764101547 8.323572818729724
Ni 11.069289259225359 11.234391952664541 7.972555077412804
Ni 7.5100410364453545 9.615687510224312 9.383746150097675
Ni 8.668108952297121 11.435191989286794 8.196662868136707
Ni 11.030546671287256 9.373540948260791 12.141810144450615
Ni 7.957684522997804 7.492069178222758 10.335198274295104
Ni 10.087757150535124 11.428004822301478 11.802924871050068
Ni 9.626695726438047 9.378816082312836 7.385867936632489
Ni 11.989406156078546 8.162664632348992 10.432255423957484
Ni 10.048997862500332 7.700128396978886 9.124734519531113
Ni 7.356096644436969 9.88303839926901 7.053410121187913
Ni 8.65654244217474 9.432315227386383 11.567631433929549
Ni 10.2065661519859 12.460017792057684 9.7293753005141
Ni 8.15093484699472 11.579173761370479 10.54271614736694
Ni 7.972511308452547 7.805475545026187 8.007840467381943
Ni 9.870567042978069 9.972918660115957 9.710200427368072
