10
Energy = -36.80505915 eV
Ni 7.8315431200974865 10.578449790868243 11.206012631734497
Ni 11.470783781775898 11.487635798100772 9.99829309790815
Ni 10.293444566715642 11.29732751726177 7.935520641711385
Ni 10.920903024146591 9.434486115165404 9.12895239576752
Ni 11.156144920008812 7.553727492761737 10.408788539614498
Ni 9.506626230095394 9.021657127677804 11.00482315224139
Ni 8.640360698867655 10.038842988983697 9.056242148533386
Ni 11.798188963990075 9.55991957028321 11.332663205051839
Ni 9.207837566305567 12.020039196869714 9.914132631967025
Ni 10.070738671272725 11.086223325057071 11.856716730960573
