11
Energy = -40.78018273 eV
Ni 9.076321015658724 9.097521061639748 7.780280050620981
Ni 10.349267863693504 8.440125031722362 9.754783048987019
Ni 8.957261836824113 9.21917720533264 11.60459958144527
Ni 6.934153142680017 9.872298183749058 8.420263174460848
Ni 11.310000009150633 8.510961116846019 7.648167206744844
Ni 6.739844214142638 9.80956699168649 10.794142355353586
Ni 10.83419898986805 10.386582745772179 10.848788120158199
Ni 7.9988063687981095 8.237336588860773 9.68191494765455
Ni 10.744048341710494 10.625633204954294 8.476882398241083
Ni 12.491768126621194 9.453800681566797 9.443616971919806
Ni 8.725090065423128 10.507757162440939 9.707322169843083
