11
Energy = -40.80027927 eV
Ni 8.839162862180629 9.025031233203217 11.235704090142026
Ni 9.960685495384546 11.14988072692693 11.488076057909241
Ni 9.177564704826988 12.934663099561925 9.984374113447101
Ni 10.810062573540616 11.400118907331741 9.374087117981551
Ni 10.117159093284874 9.09021563245439 9.266924797455442
Ni 12.386373089719902 9.650429010382418 9.344086135020271
Ni 12.358951747301617 11.162720909603546 11.145706239918209
Ni 11.16546007821941 13.114854263247961 11.130573580490191
Ni 10.103987195192264 7.204590272482 10.645904286652259
Ni 11.21447062301243 9.114469284385619 11.277117918839334
Ni 8.47990723271883 10.766811508111074 9.721230966762
