16
Energy = -62.87487091 eV
Ni 10.044494478490767 10.84627302093713 7.257123736965341
Ni 9.991693560155873 9.857874807200142 9.373730540748136
Ni 8.083287600984082 10.132034523220169 10.894021819062319
Ni 7.904610979500149 10.599378374457197 8.497077533590563
Ni 11.306819178455767 8.84881644444326 7.696258211840126
Ni 10.579725252672596 9.231368596682746 5.558392935915083
Ni 8.895586685907134 8.884449569671194 7.141008395809956
Ni 6.099613173642692 9.523028756620429 9.759071604684937
Ni 10.149100672678044 7.085187693385266 6.535300080597199
Ni 8.18189078193549 8.422906938219688 9.406628887665512
Ni 6.587484272990842 8.722578366864322 7.593849512094841
Ni 10.073002741915596 7.217378219675941 8.864220275232512
Ni 6.167326139070917 7.139288313550018 9.282574365298407
Ni 6.942573807354873 7.98800576375254 11.363200399588555
Ni 8.200066181371684 6.265294466725502 10.132034544736937
Ni 8.021542320001359 6.731163529997956 7.742172018489345
