17
Energy = -67.44783644 eV
Ni 10.577240480580631 11.008030987609136 7.442623295558299
Ni 11.542844673395182 8.434009496611255 10.342399001632316
Ni 8.708579594768228 8.840477543738137 9.236905577741943
Ni 8.53186220646507 9.642196495797693 7.112222661704903
Ni 6.708598539525364 8.382700422530805 10.471422876809054
Ni 7.9145460672614805 10.316015637625215 10.992732878969376
Ni 8.962754662807093 7.249201062387627 7.464832508789045
Ni 10.713754294200415 8.774774282889192 8.119343163639469
Ni 10.221741684291832 10.255881362417446 10.566726334696634
Ni 9.135414993635624 8.083433051171083 11.268189586163869
Ni 8.822091228704167 11.233760219276032 8.939046525513888
Ni 10.846684234317514 12.230069164800126 9.45457068285265
Ni 7.869656155513091 6.621225819977213 9.534821311141823
Ni 10.171066655815752 6.828434432622478 9.46103985297921
Ni 6.749477457519421 10.167385852881552 8.871450946531196
Ni 12.150309458183065 10.355804199085904 9.107065984932124
Ni 6.788641831650381 8.037381191650569 7.954174740105968
