17
Energy = -67.14795705 eV
Ni 8.353912282747618 6.770746886472767 8.359241367718921
Ni 10.663783402348464 7.243027597354879 8.840502608035845
Ni 9.877960938902755 7.28392621976981 6.588774038685942
Ni 7.852533264942649 8.397120510938018 6.738368005773336
Ni 9.046672256684536 8.920293095910106 8.913663465878873
Ni 11.680582708881222 9.272216282287076 9.66633893232802
Ni 11.141516786027013 9.036528028047867 7.422892767586431
Ni 7.716097379171908 7.763388600321176 10.471103262464899
Ni 9.313477088118319 10.16352053953221 6.583524280033707
Ni 10.18306475030269 10.89071155911879 8.690198529955415
Ni 7.485318767302658 10.385546517307587 8.11977655018858
Ni 8.29547063795659 9.563386081176281 11.894495662511448
Ni 9.996163385926433 8.22997326761399 10.942728513058809
Ni 6.428854945609124 8.233137569271875 8.550560369780039
Ni 6.507677988529201 9.762742963496365 10.285841884941975
Ni 8.381081455750488 11.117873009532108 10.1729819197308
Ni 10.397211332361179 10.526780670780305 11.135031077396432
