10
Energy = -36.28968125 eV
Ni 8.631611047655387 8.173305996869614 10.166021527475255
Ni 9.869221335763399 10.050320275913661 10.600157020429597
Ni 8.429920799494624 9.217725641395992 12.232682193628612
Ni 8.969813445325329 7.203996800867153 8.026890670340828
Ni 10.424595664344523 8.885062276309291 8.63547879860798
Ni 10.775031282694997 7.695592015429838 6.669731301899046
Ni 7.327637927067408 8.959855941234084 8.38884467932447
Ni 7.520834268187956 10.205623703098262 10.383475531854645
Ni 8.89399995743168 10.62402594109754 8.48287364466596
Ni 8.979279437840212 9.11516251150998 6.7064741182774315
