10
Energy = -32.63905843 eV
Ni 15.480391944610512 12.553860765218355 13.331264347326725
Ni 13.266285857259358 11.983541582346588 13.780542432067
Ni 14.43791595796304 11.081356300249332 11.920758774015523
Ni 16.0966704634364 14.397792878924973 12.10179260347844
Ni 5.583257157758707 12.610686944073395 12.90390377143298
Ni 16.561554454105877 11.97571673025228 11.373422343294884
Ni 13.8538682018589 14.083976950533504 12.824938055669973
Ni 14.617496254739395 13.117722018305031 10.888663779400694
Ni 12.52794881700245 12.468458130346178 11.679401472892435
Ni 4.577814082114482 10.783746361600612 13.090131371290582
