10
Energy = -36.55095276 eV
Ni 11.26095154946394 8.869431235590671 9.943070674163383
Ni 10.97200508974741 10.461332598046718 8.250679282417734
Ni 10.503685084508325 8.205637136127923 7.833961497695972
Ni 9.582635197299192 10.462121359596734 10.138654975633004
Ni 9.088351782109878 8.115462252540826 9.777119243520522
Ni 7.365625986438393 9.649004310234561 10.040277309577425
Ni 8.77852399509856 9.743386057994952 8.079652300761959
Ni 8.275015685669839 7.4095216167749145 7.714821455314279
Ni 6.597085723527223 9.007206226864934 7.934702984060717
Ni 6.89422490613735 7.395002206227759 9.605165276855246
