19
Energy = -77.18520969 eV
Ni 6.4297076275242295 8.847147390144508 8.8874988173698
Ni 9.760065371003762 7.175649762490867 10.425516197398814
Ni 9.549648447699637 8.481617622941442 12.441095543152729
Ni 10.730634871140092 10.587732045876754 12.19495606326401
Ni 12.329400844321242 10.184017206746402 7.866932639273102
Ni 7.758033450981015 10.626263619554358 9.650834557431327
Ni 7.713368076404537 8.478626019533786 10.83386461469921
Ni 11.166807584732279 8.342069453126394 8.832559843099432
Ni 11.662694838617458 8.512345511277353 11.243249263160601
Ni 8.383489702162626 10.565873466527467 11.9467020714478
Ni 9.984453917866855 10.282262904335873 8.01552132313221
Ni 9.754128229274807 9.506416565475835 10.324336420390194
Ni 11.14488077324741 12.236364743191498 8.438021671074988
Ni 9.73039743577257 11.847999688652077 10.310815836490686
Ni 8.725848752036912 12.21551556507382 8.1866233275127
Ni 13.31175007418125 8.903718951694144 9.608296119385173
Ni 7.727062473408946 10.128884725635908 7.380066138522691
Ni 11.825131004019111 10.666558826604604 10.0810185273229
Ni 8.70357156149323 8.318521776362571 8.577464666060479
