15
Energy = -58.33196683 eV
Ni 10.877704848674572 8.745432837635697 8.806136823331919
Ni 9.160024644936106 8.967806662364708 10.533375837870194
Ni 8.62294021942461 8.723026465865702 8.333232129578233
Ni 9.480416782740821 6.760908010041564 9.10373408954034
Ni 8.187069367147155 8.740457870234836 6.006619033440798
Ni 10.149728430220959 7.522476344058204 6.860278439349584
Ni 10.105035845267098 9.897713285600624 6.850095637041698
Ni 8.373405213863219 6.837709918205934 11.18997828988946
Ni 9.688813232213588 10.829090506986638 8.995030752128871
Ni 7.951463316098083 6.728223992188193 7.1453254603195075
Ni 7.9115342836460565 10.707038433124133 7.282582429735937
Ni 6.838401955910416 8.419814992031286 10.449649953855282
Ni 7.107096812268766 6.487976722483175 9.24910428967509
Ni 6.459147490510732 8.557153348601616 8.011315975330886
Ni 7.43240042203626 10.420353475536263 9.528723723870916
