13
Energy = -49.15794358 eV
Ni 10.72080971206759 9.074454011353232 8.5163286100589
Ni 9.413769230208304 9.869366447210254 6.818546191507074
Ni 10.032294802801617 7.580782261070045 6.828391366312935
Ni 8.956979301417574 10.555217852013772 9.04640790433783
Ni 10.20844168176067 6.971001049010606 9.362095565408804
Ni 7.741379963680212 8.355789028823002 6.191252917097128
Ni 8.280154226869852 7.070731318669175 10.689654900408396
Ni 8.391760913282003 8.027740198239858 8.371036498663278
Ni 5.9875867454221385 8.335832846108389 7.745936346589809
Ni 7.241257802096436 10.236103133430733 7.5842153779945045
Ni 9.549986242244383 8.939059768000797 10.548563226178953
Ni 6.521181184145948 6.834375795698232 9.317578549690376
Ni 7.14400325789491 9.139900851382478 9.837940529292734
