19
Energy = -76.8746561 eV
Ni 9.212490778284097 10.984396068020716 7.766403331220901
Ni 9.633387276694183 8.652373421351705 7.659623978148229
Ni 11.430353919106087 10.112564647105046 7.930187986775092
Ni 10.043429859428475 10.410785725235899 9.87751582115401
Ni 8.006947415580418 9.48976416597698 9.241440425835163
Ni 9.811032071750521 13.115722930566433 8.476810912429933
Ni 11.81566588358715 7.9088843299195775 8.554815120274544
Ni 11.689268623828722 11.978228158691072 9.325680326294748
Ni 9.87362577530342 7.9729000014810145 9.841468304608847
Ni 12.27873765589817 9.64086901139147 10.108278404107883
Ni 11.888604456138593 7.396531761991125 10.88257317644816
Ni 10.014267066931813 12.883506889409649 10.77183114394622
Ni 8.176998333915021 11.896562299754518 9.725209697470884
Ni 9.81446223789444 7.002746689605918 11.955813782258112
Ni 6.908573544268905 10.509974558274083 11.081219957352594
Ni 11.482419641040144 11.320940839145688 11.658806371059502
Ni 10.683133223566616 9.15680509917105 11.879026198510513
Ni 9.071209853154702 10.990227028777936 11.91370211300314
Ni 8.328491931353302 8.739315921855386 11.51269249682586
