13
Energy = -49.92268781 eV
Ni 8.720480319729324 6.121811779903789 6.306431443065371
Ni 6.4166704375657995 5.710663180277894 5.605600506258886
Ni 7.452050934006227 7.858114457715987 5.170645481000678
Ni 6.683860879327685 9.377404200969972 6.872646010164968
Ni 7.1958878972174 4.916068679230569 7.7834121593401555
Ni 5.1155245485622 7.749779662804554 5.927366743784766
Ni 6.937612312719699 7.153460552180928 7.323832074996737
Ni 8.92339376384357 8.415115789668194 7.067371802439243
Ni 4.991007964017399 5.906150134427455 7.553094277367003
Ni 5.164300696266445 8.172179019694388 8.339423774451122
Ni 6.399739087377609 6.415529359644223 9.50989041491391
Ni 8.723075117487314 6.572593696632262 8.694901193137843
Ni 7.466329109782894 8.577880325711996 9.036301379190794
