18
Energy = -71.17127906 eV
Ni 12.303523834840643 10.26993504360032 7.714032311774746
Ni 11.791656138109484 11.998051214603176 9.177161189164485
Ni 11.689479570651349 11.461794910905388 11.480315498725847
Ni 11.487448044293055 9.771442412721475 9.849362968955138
Ni 10.478364584216079 8.757812768303223 7.91362390054188
Ni 10.115524571803839 11.047710972109906 7.765245918340173
Ni 9.686082793037404 8.258549186599176 10.062611683457403
Ni 9.747273666023926 11.281151065442545 10.173142198935
Ni 10.304074695132606 9.619525391084725 11.904587180715735
Ni 8.093214523973776 10.040609227865081 11.297552394644304
Ni 8.48963364350887 6.27226986653558 10.240312681462283
Ni 8.68552481630936 7.873757568012785 12.08883664958532
Ni 7.968686903817563 11.645152317347357 7.433484547813232
Ni 8.593587026582496 9.532160995406398 6.681581199283039
Ni 8.260273824266442 9.933788792861993 8.935530641983638
Ni 7.235417170818839 8.19772115256622 10.184732062306548
Ni 8.41028560524794 7.632574530591681 8.130055532063958
Ni 6.634673350549255 6.374654277020669 8.920391502804
