13
Energy = -49.24117112 eV
Ni 9.8430695 12.142243307642573 12.314845286674302
Ni 8.684426787162154 8.665911888997913 10.658580760199193
Ni 8.684426787162154 11.02022711100209 10.658580760199193
Ni 8.674689495754112 9.8430695 8.544332509879316
Ni 9.8430695 11.91110050564495 8.837779141049172
Ni 11.001712212837848 11.02022711100209 10.658580760199193
Ni 11.001712212837848 8.665911888997913 10.658580760199193
Ni 11.011449504245892 9.8430695 8.544332509879316
Ni 9.8430695 9.8430695 12.376871795064522
Ni 9.8430695 7.543895692357424 12.314845286674302
Ni 9.8430695 8.697011768255544 6.777397319452151
Ni 9.8430695 7.775038494355047 8.837779141049172
Ni 9.8430695 10.989127231744458 6.777397319452151
