15
Energy = -58.15126485 eV
Ni 7.293143199788127 6.35959020980972 8.968356824348772
Ni 11.509366999158708 7.782614456210641 7.167427485978891
Ni 6.053123394913323 8.149121378235721 10.363531240725626
Ni 7.667453267410615 9.738439881344236 11.201171069310696
Ni 9.956430877465658 9.045300791647131 10.479177926341901
Ni 9.965369085506104 6.380683968797298 6.239002083926287
Ni 9.75596912009748 6.93427871844445 8.540024904633373
Ni 8.09692090145839 8.43309974076302 9.340344674187559
Ni 8.075282741295874 7.442950841959695 7.017138997219286
Ni 10.041446342962358 9.26155419944826 8.140269022949406
Ni 6.1440871294835215 8.234742473761036 8.012643498345103
Ni 8.727917402768886 10.744123581599178 9.350108186221073
Ni 9.67699237739222 8.718123489402327 5.946202309191359
Ni 6.437785609509834 10.229611621790195 9.217495687733186
Ni 7.85766502286838 9.804718118866857 7.276059560966806
