15
Energy = -58.34129737 eV
Ni 9.892266898067508 10.699710807468758 7.555338653890342
Ni 8.366791493902063 10.299471239318958 9.320718029913294
Ni 7.694098118189542 11.68840990307504 7.567484436082399
Ni 10.648082843351554 9.993807275160815 9.77304882579518
Ni 11.751942152610587 9.26138515383698 7.871261301516779
Ni 12.853978613110963 9.236467568068836 9.862977041277853
Ni 7.899558426215336 9.472291191964176 7.01504229424837
Ni 6.193234262105408 10.027998238423443 8.48699256266469
Ni 9.591085427686878 8.405767386150941 8.185080571313485
Ni 7.328521693285372 7.901487057795101 8.765018453043828
Ni 11.149775286941702 7.690950692093871 9.793618668679537
Ni 6.74437226034452 9.11969115845635 10.601574479269223
Ni 9.029617004377936 8.423062644720716 10.636989070427596
Ni 9.15701292743836 6.457337110323456 9.46810370133978
Ni 7.299655152163865 6.838252680100554 10.865501303300876
