16
Energy = -62.60747427 eV
Ni 7.456351075988466 10.378528629787235 10.454153000097502
Ni 7.5942804468651595 8.135368518657094 7.142512110949757
Ni 9.943807517031019 8.150865684076159 6.723674185370145
Ni 7.038548340550126 10.076074668201686 8.24156798167351
Ni 11.115119470749079 8.01646539499911 8.92029913182853
Ni 11.281815742579312 10.387077709109759 9.746075928484597
Ni 9.447135031197421 7.037267469806776 10.515443534413869
Ni 8.726116478274577 10.18773645985185 6.6853445928306305
Ni 10.794975012800005 8.737663942932613 11.275106170685644
Ni 8.451255844554712 8.729263723346955 11.708508966772744
Ni 7.307133176627652 8.01062105115893 9.615393190096167
Ni 9.185623023061739 9.118666963435297 9.125580275494446
Ni 9.131186200891706 11.331767832866806 8.860943820639628
Ni 9.575354397164984 10.781214273900796 11.242940710990867
Ni 9.024429851309058 6.754606990450954 8.29963262607253
Ni 10.864696580443512 10.099515358142545 7.53093087225711
