12
Energy = -45.39129521 eV
Ni 8.20745924339361 8.943086820571015 6.916058754528366
Ni 10.539404861072793 8.942244346151993 7.484272595327439
Ni 10.9556771546663 10.28960257310227 9.433524555319803
Ni 7.424630679183804 9.19784950600123 10.861336443684978
Ni 8.778504841963596 7.145541597507203 10.48161457888606
Ni 9.265549734649714 6.9848892279892425 8.03281827418014
Ni 10.876107264411115 7.877301515665416 9.573945875359419
Ni 9.24316179073875 10.896290998998527 7.844642188908787
Ni 7.063595476583374 10.311791022533784 8.658990439286736
Ni 8.782896235126989 11.046053892992251 10.16246260498897
Ni 9.793948718116201 9.185386971787398 11.230880704345017
Ni 8.849018000093617 8.959915526699275 9.099406985184274
