19
Energy = -75.65619211 eV
Ni 10.69759 9.248993513619654 8.313835147008923
Ni 9.528860858391036 11.281123703467118 8.096346419418056
Ni 11.86631914160897 11.281123703467118 8.096346419418056
Ni 10.69759 13.06080495449089 11.016635910530223
Ni 8.712379718206197 9.584775878482928 9.693588281001478
Ni 12.6828002817938 9.584775878482928 9.693588281001478
Ni 10.69759 8.096760333502077 10.293947411062815
Ni 8.654676105754579 11.95265541213176 10.097828498351836
Ni 12.740503894245425 11.95265541213176 10.097828498351836
Ni 10.69759 10.6888767391989 10.227478146975022
Ni 11.92778033764509 9.171202205039998 11.96920431744002
Ni 9.467399662354913 9.171202205039998 11.96920431744002
Ni 13.856887913441726 10.503717244729096 11.531494804338362
Ni 7.538292086558271 10.503717244729096 11.531494804338362
Ni 11.868844156436063 11.467849434690333 12.311326225618318
Ni 9.526335843563942 11.467849434690333 12.311326225618318
Ni 10.69759 7.306964829796453 12.449474472252613
Ni 12.868973853777844 13.46458101116929 11.776631059945547
Ni 8.526206146222158 13.46458101116929 11.776631059945547
