16
Energy = -62.9521601 eV
Ni 10.221180910304858 9.005152170299983 10.936769244329906
Ni 11.649791521865975 9.59505319818558 9.120084182897154
Ni 10.946475583762851 7.33041284472071 9.37540046138892
Ni 9.127805873619154 6.92635559425277 10.743783919181167
Ni 9.806970173796458 11.391838069645585 9.558557402329486
Ni 10.622394136331248 10.661953894782414 7.265629433340896
Ni 8.622604210624534 10.551530637677175 11.590268273585446
Ni 8.609084189930362 8.381655723366606 12.533192870797235
Ni 9.365450395856298 9.358487871557923 8.786224085355068
Ni 8.849526638032856 7.255657116924941 8.276568940881123
Ni 7.757373295318543 8.747388667497217 10.364922969356485
Ni 7.474610629871961 11.020073264673233 9.640511917169317
Ni 10.939374550585413 8.277257832491244 7.2420399096017345
Ni 8.361662141088283 11.180813966544372 7.484414481366508
Ni 7.148667872360895 9.21206413567254 8.115893266175926
Ni 8.868030974824293 9.052758263002241 6.491989992974856
