16
Energy = -62.38116257 eV
Ni 10.230800355780618 6.341415718966419 10.881250740596379
Ni 7.59526991591639 8.644443848965814 10.64488342494554
Ni 6.518880333511654 10.007674197711111 7.16919063072648
Ni 8.869832696335214 10.656533631581663 10.146449287694253
Ni 8.769576704048085 7.140779105695893 9.181578800942589
Ni 10.16721534740587 10.87150427939447 8.09023332968047
Ni 8.69290593103359 10.492947095445762 6.270781876421599
Ni 6.522653806072876 8.088646974898499 8.657289509581371
Ni 10.907710708229514 6.293573769642053 8.688844451037685
Ni 10.6597805395705 8.585844930370376 8.450314075864059
Ni 8.423135958068327 9.271646862560253 8.223572018565132
Ni 11.326400314366715 10.20626157444009 10.012100953635118
Ni 9.875116052395747 8.6013972159952 10.737681237855572
Ni 11.970281794765668 7.80085611668174 10.208742128266547
Ni 7.949590419214062 11.658479561887074 8.150371714473946
Ni 6.537680562786738 10.354043411029497 9.511627519289272
