16
Energy = -62.91627709 eV
Ni 10.358441876987309 10.702914326750353 7.967825479546159
Ni 8.976205216819178 6.325905458699811 7.698871803169991
Ni 7.459283825291618 6.745802160089973 9.425920150213363
Ni 8.581011281805514 10.032796834929725 6.460862469262058
Ni 9.97221529788537 8.429863569116288 7.914026427909836
Ni 9.185971909932231 7.772979845427274 5.848828708950271
Ni 6.269936662761869 7.490387875246207 11.275459063785085
Ni 8.324845652467506 6.407997239378892 11.603413927647958
Ni 9.736980828340652 7.0922682526956144 9.879070332798594
Ni 10.24412396148308 9.484219571654444 9.978098305234557
Ni 10.766436939904876 9.504764965016674 5.979453321028302
Ni 8.262756706740712 10.035019191600416 8.843512762732743
Ni 7.514591781180858 8.148252190573828 7.494358362041994
Ni 6.280088750978597 8.867576749641453 9.369706404453982
Ni 8.230168496049673 8.633588893368467 10.779339610143401
Ni 6.444771550548934 10.206952588807846 7.4075511631409965
