14
Energy = -53.99416472 eV
Ni 10.786307403797132 8.05652980252283 9.439120501178209
Ni 8.931694387709964 6.6952022045161055 10.048891076757803
Ni 7.067469248801804 8.215585718502227 10.60370957970323
Ni 9.259985826434086 8.91201792506708 11.062546149545659
Ni 7.755492484769872 10.458765866391598 9.82739109939481
Ni 10.06538477798639 10.346343682104562 9.340561316258324
Ni 8.588367138364756 8.574647647726884 8.787634215563864
Ni 7.01376213629351 6.832511808467594 8.654606491973654
Ni 10.515572509509337 9.175897516915652 7.372235782722074
Ni 6.291586104991406 9.124162525876441 8.534234689208828
Ni 9.394130884002125 7.08011825336756 7.337534983918989
Ni 8.346477054444819 10.231990482431677 7.3167376828993325
Ni 9.211894258361998 8.761419836225828 5.546226342177463
Ni 7.3518899266135564 8.114820871964012 6.708584230778233
