15
Energy = -58.70206091 eV
Ni 10.847907049684943 6.669244559293585 7.303352301262034
Ni 11.67982332860318 8.621899526496481 8.25628758753114
Ni 11.240576320039759 9.036602872963261 10.488784001745515
Ni 9.845591439447102 7.524780346159356 9.285301235458991
Ni 8.532896576219818 6.476446570621313 7.635976728904032
Ni 10.312422312051273 11.053300213614987 11.191036448024668
Ni 9.525929828555924 8.634731300484509 7.275604085114168
Ni 7.4852766529052115 7.9289708119581865 9.218748792409384
Ni 7.226230883106317 8.179593872292106 6.817027255660911
Ni 8.859368086146544 9.224663652451692 10.689977110261683
Ni 10.065001843977264 10.281005474450215 8.943540236308875
Ni 8.277437897781116 11.37592453001218 10.076962953132304
Ni 7.79058508463465 9.98247529767998 8.208215914178957
Ni 5.613971596646659 9.037731904465007 8.28538970069504
Ni 6.567584022361964 9.827705490457959 10.264675871332742
