12
Energy = -44.89374732 eV
Ni 11.21691738919324 10.143490311825508 8.471425613053597
Ni 11.26803822358359 9.59812927290364 10.792647391863575
Ni 10.04321009007867 9.802096673449576 12.942416594680102
Ni 9.124439353242202 11.016520386370054 8.508808471561515
Ni 11.939780436561273 11.719810517706303 9.945650326167746
Ni 9.132839660283127 10.517062920351561 10.83069754624291
Ni 10.826999690568147 11.709057150597168 11.997651606484865
Ni 9.876280815095049 12.618711392839694 10.040701836599869
Ni 10.896552936142728 12.446867644113581 7.9210133127638676
Ni 9.470368446366912 8.803271827261797 9.218665943196111
Ni 9.393783268504693 8.172192592959126 11.402472436345844
Ni 11.383461690380356 8.025461461930744 12.5005206164219
