18
Energy = -71.91531103 eV
Ni 9.79994582360774 10.053623885902265 7.041248255337758
Ni 11.26627724047832 10.570371531530988 9.012167605427202
Ni 10.797443253788689 8.328237785195688 8.422862524587876
Ni 9.564905588097606 12.056764810009227 8.533214642954897
Ni 10.037155066164914 6.096045818549856 8.26783125790509
Ni 7.647402852641885 11.003120091286464 7.6955949810055495
Ni 9.62022323360901 7.653416807327066 6.523934092605559
Ni 7.7648172491965886 8.654268986252294 7.509756450280646
Ni 9.010230758024415 9.707905934052821 9.171439476621691
Ni 9.860760166774503 11.237902935580358 10.846040381135232
Ni 7.885450616341227 6.352635474397026 7.573341398525393
Ni 9.367219870723183 7.3483239241815195 10.081666719672025
Ni 6.508204077505386 9.66346098958233 9.315801046762159
Ni 7.742393372596351 11.530706264380767 10.023727479244199
Ni 10.705709750611838 9.075825106714687 10.751560319744627
Ni 8.244345230238714 5.347021569067618 9.626315358790917
Ni 7.190194100958621 7.494500698168483 9.564313554573019
Ni 8.132877501413443 9.278234634518025 11.150085516329373
