18
Energy = -72.22805912 eV
Ni 11.544961634170317 12.317515154782178 9.131310802807327
Ni 11.42154757337278 7.748393269508245 9.837186234692428
Ni 10.220625789628079 8.61681120492491 8.027415476996113
Ni 10.03142330008866 10.67579761735259 10.384226688053698
Ni 7.59886987509192 10.505720518529214 10.430028975347875
Ni 10.622084607596873 12.969346395785148 11.132760165282269
Ni 10.456142055190506 11.026695472460968 7.561237924820319
Ni 11.83930277653128 9.930372628668698 9.111271514899371
Ni 8.590726293791256 12.09861522112247 11.815102997579517
Ni 8.73666375585551 9.733442085715179 12.293863318297692
Ni 12.62146755963324 10.056810464077033 13.071456152494607
Ni 9.040284799459242 12.342302090559265 9.291028416779362
Ni 12.29108478354323 11.248661552576527 11.120933148244012
Ni 8.54459813015809 10.130105305458347 8.40421709003852
Ni 9.16203030239276 8.559904236041756 10.177561734306002
Ni 10.575619654284802 11.194641886804563 12.773232007557125
Ni 13.082959567139234 9.008259936464471 10.954622658453939
Ni 10.936463780663372 8.996305027131285 11.805619817043201
