14
Energy = -48.72815854 eV
Ni 9.225362554763615 12.089097190743372 11.251970128927463
Ni 11.270059034649911 10.59035233694195 11.67660057789163
Ni 11.588486476477009 12.251579702236205 10.11574
Ni 8.642993523522996 7.979900297763797 10.11574
Ni 7.50657535538536 10.943280227570854 10.11574
Ni 8.96142096535009 9.641127663058052 8.554879422108371
Ni 11.006117445236386 8.142382809256627 8.979509871072539
Ni 12.72490464461464 9.288199772429149 10.11574
Ni 9.225362554763615 12.089097190743372 8.979509871072539
Ni 11.270059034649911 10.59035233694195 8.554879422108371
Ni 8.96142096535009 9.641127663058052 11.67660057789163
Ni 11.006117445236386 8.142382809256627 11.251970128927463
Ni 7.818627533464681 13.393264614117333 10.11574
Ni 12.41285246653532 6.838215385882668 10.11574
