16
Energy = -62.60743113 eV
Ni 10.639825384922082 10.286898251854106 7.558199711195649
Ni 8.058760514913006 6.615230959896487 9.828193721676916
Ni 8.731583229461519 11.496329532633117 7.971119652261526
Ni 9.65684138727521 7.674953701332749 11.092235756613213
Ni 7.517841257086464 8.904789145918036 10.67356411597825
Ni 8.43865185021952 9.252215741559267 6.927482791156363
Ni 10.589771119971012 8.02565562243343 7.3356514006781275
Ni 8.633226855278293 6.834540441923659 7.514424139722979
Ni 9.058274740131573 9.018137817125298 9.058069563304242
Ni 6.865633206473628 7.98842723565458 8.424029154667105
Ni 10.345437900121931 6.640196829235773 9.154450665424783
Ni 6.920560334950393 10.253182636082697 8.651706829733325
Ni 8.169967808403639 11.284824282466696 10.281648871558692
Ni 9.718373637654034 9.936383860025717 11.315635773291088
Ni 11.222399825193976 8.926204769946235 9.591020221751483
Ni 10.45505434367493 11.293280007301775 9.613913525257828
