15
Energy = -58.32960195 eV
Ni 12.738614250141117 10.26193109814503 9.903125731215678
Ni 14.807122191449952 10.052066968413609 10.954384735507967
Ni 8.880206129096406 9.360849738539669 10.279033465011407
Ni 10.499285853485242 10.74480986433148 9.333885733184477
Ni 11.005111904982861 9.489889804332472 11.33507354554025
Ni 13.8689841501548 12.110237705510256 10.700317309751776
Ni 12.163497152950773 12.47036274398306 9.113902698487832
Ni 9.931224743290272 12.931267454427449 9.792354288059444
Ni 9.014076313690596 9.416217268342454 12.651043252094702
Ni 7.200199160451024 10.39921003798847 11.471088017341149
Ni 8.131301730210597 11.452457632764395 9.526275563341672
Ni 11.550899982022374 11.962546267180711 11.2805986591162
Ni 12.987386746247566 10.404828879659902 12.291804254097746
Ni 10.877551357433678 10.793110551534664 13.256154556309705
Ni 9.31678038839287 11.403532577903507 11.53621951278155
