12
Energy = -42.39863549 eV
Ni 9.965795004072264 8.35092753 9.965795004072264
Ni 9.965795004072262 9.965795004072264 8.35092753
Ni 8.35092753 9.965795004072262 6.736060055927739
Ni 6.736060055927739 8.35092753 6.736060055927739
Ni 8.35092753 6.736060055927739 9.965795004072262
Ni 6.736060055927739 6.736060055927739 8.35092753
Ni 6.736060055927739 9.965795004072262 8.35092753
Ni 8.35092753 9.965795004072262 9.965795004072264
Ni 6.736060055927739 8.35092753 9.965795004072262
Ni 8.35092753 6.736060055927739 6.736060055927739
Ni 9.965795004072264 6.736060055927739 8.35092753
Ni 9.965795004072264 8.35092753 6.736060055927739
