15
Energy = -52.66334197 eV
Ni 9.572727044543415 8.628204624316327 10.532317518076779
Ni 12.078563922676645 8.276092074933704 10.48620378635714
Ni 7.101382573526792 8.278885933327473 10.45792531287606
Ni 10.876104304941906 11.106740584379155 10.469277851021394
Ni 8.282459587318693 11.108171265344657 10.458271130311926
Ni 9.569016330892655 13.213241403712408 10.235572803311635
Ni 10.765617502249855 6.504021407980546 10.521482747070598
Ni 8.377498668826716 6.4636358458149905 10.53211165983243
Ni 9.576228072017637 9.993221794002672 8.091135371111717
Ni 11.946653444850329 9.993294142873115 8.764597743413661
Ni 7.156063601985298 9.99160970981455 8.741760936477158
Ni 10.783425223373362 12.253924994301471 8.580186319801188
Ni 8.367105647900537 12.253695313070528 8.57967449974929
Ni 10.957371660419371 7.756186562032997 8.575796223118234
Ni 8.164404912539718 7.75369684603235 8.548308599408001
