16
Energy = -62.5934907 eV
Ni 9.14670172728811 10.589648296180547 7.890994140878694
Ni 9.830901993942796 9.183169521272097 9.5759104738023
Ni 10.114678999796714 8.412841596910615 7.1969770890935925
Ni 8.206773711419007 9.574433195691027 6.05382788236118
Ni 7.778863773662279 10.18683826094239 9.802800744395627
Ni 10.025448500721447 6.94340013036057 9.237075050956982
Ni 6.781751064165462 10.423438818126124 7.64766549444592
Ni 8.40277827663796 7.3321936776120396 5.719223982694512
Ni 9.548940671994181 5.995321563258211 7.199482243566101
Ni 8.09949122504939 8.104402404755728 8.10638901865064
Ni 5.974859451415694 8.909063658623745 9.1740063477543
Ni 8.179463940688452 5.584790700429503 9.111266098250258
Ni 7.906002210014932 7.75346984413829 10.302223541298769
Ni 6.285776309356477 8.139785729711447 6.809108353319287
Ni 7.182845361504552 5.8293381202181775 6.958059005246841
Ni 6.170602048884929 6.667898713099762 8.840597254563301
