14
Energy = -53.65821121 eV
Ni 9.48970745390244 9.238686108332384 10.947484197215715
Ni 8.35314776308 11.065145958491183 9.51560198771954
Ni 10.354242305027867 10.077043267587143 8.982934115769213
Ni 9.44850539680534 7.908342645634832 8.95870265201622
Ni 7.248628303840554 9.279404934919215 10.500899411332776
Ni 8.317585370342705 7.208954310433315 10.873858349222226
Ni 10.43647031684116 8.946028670475027 6.9476197597832545
Ni 8.255897449425355 5.905214016481823 8.733967894401413
Ni 9.04626160823204 10.883690540270756 7.245750107417584
Ni 9.351969977812196 6.887722950079647 6.860989455940029
Ni 6.586762578094299 7.367261411350967 9.304283378285689
Ni 7.732070804384815 9.200023336883124 8.196929914496742
Ni 7.097267838400901 7.221720681824234 7.0621126050690375
Ni 8.38295090326427 8.912229236689843 5.970334240784342
