19
Energy = -76.51413782 eV
Ni 9.315653673417772 7.257685786747367 11.56100489868566
Ni 10.489327458369887 6.388095860834326 9.767109987884002
Ni 11.208676709115855 8.530340421178233 10.84800066640951
Ni 9.747134238394072 6.855951256746298 7.58653872823046
Ni 9.280407211668079 9.676601025135197 11.475404126120655
Ni 7.952039300111205 6.550202072805447 9.534546155574384
Ni 11.453105108895809 8.218696230545332 8.569783298421916
Ni 7.343852970106353 8.381281239966695 11.037980470559479
Ni 9.199570965180989 8.379415656191004 9.440831626290024
Ni 6.233041035787298 8.576475674556411 9.038008398497507
Ni 10.354267088221702 10.348752585860497 9.35090119301629
Ni 7.887944658194704 10.276203406326886 9.63459488299592
Ni 7.691004402912403 7.919006742351 7.468149713674647
Ni 5.6766667071997885 8.789559593557806 6.7076265658835315
Ni 9.785806539306474 9.257470747502298 7.270158160284923
Ni 6.44166972604858 10.630326703523805 7.855876620816618
Ni 8.753587335879612 11.322375025082025 7.741586702681322
Ni 9.049611318629205 7.867769991575072 5.553397586888878
Ni 7.79039176062711 9.817055916296791 6.1757716430064376
