10
Energy = -36.52022196 eV
Ni 5.219839737452841 7.509217934197621 6.050172013515223
Ni 7.226348145722018 6.3687188247513555 6.081968714479222
Ni 7.370354696161536 8.602650422964313 5.827672540639258
Ni 9.314460387230122 7.4022781940705205 6.613377492590063
Ni 5.902251042270866 6.354573735772694 8.084608918797636
Ni 9.795326685178406 7.514510118705963 8.994406556127684
Ni 8.201708570939816 6.090344940217324 8.167904464323696
Ni 8.467134058242994 9.045682966100948 7.904823579612347
Ni 6.199414585782451 8.569077645215842 7.823983401805621
Ni 7.4250457089118935 7.664828835896507 9.57296593600207
