18
Energy = -71.98602462 eV
Ni 10.751947845254486 10.49339506053166 6.828968601983002
Ni 8.346805348411717 9.109706392881565 11.52195250265193
Ni 11.225205438560959 7.502966745786733 9.57390901504052
Ni 10.503168170903484 8.107537397924236 11.689747372714953
Ni 10.768553980814024 11.955962776909487 10.64017082102963
Ni 11.890511671613554 11.28616056215627 8.772017314828354
Ni 8.904281544464688 7.544934621107304 9.878722343306366
Ni 6.674608226825454 8.02319264525892 10.301322452528447
Ni 10.264785832752622 10.34206105810025 12.225302322244298
Ni 12.105203245759583 9.146734131077896 8.267448255000774
Ni 10.192721766557067 9.701428113811925 9.866384049400637
Ni 8.518447441723156 11.324603210520573 10.79265218816098
Ni 8.392849460838848 10.238262782198644 6.89704051149328
Ni 6.442207892291042 10.29510717651061 10.841326364729813
Ni 12.229738053520673 9.729799602792282 10.743770260599902
Ni 9.483905186606647 11.466144446189547 8.578008225999183
Ni 9.77504142366416 8.611750067901932 7.887320836357626
Ni 7.8391614570113335 9.64940226708635 9.065173465763962
