11
Energy = -39.46063729 eV
Ni 9.808293681375561 8.400627138222802 7.631940516033868
Ni 9.702179176800263 10.735766416705726 7.600556571631387
Ni 8.419154069501806 9.5082101598234 9.158427525447703
Ni 11.624053071061114 9.687267096952421 8.327355894720228
Ni 10.946714170914584 11.676128008365675 9.347045758325349
Ni 11.976907444229463 9.978469156309767 10.612751349775857
Ni 8.600694360401635 11.846889626018953 9.335715683587987
Ni 10.3610379851092 8.44228280576074 9.901859674292789
Ni 8.502662568796463 8.591564308703475 11.30692275543881
Ni 9.70768099869234 10.495250821215544 10.893028493874064
Ni 7.423313798494422 7.710235787298098 12.957087102248813
