19
Energy = -76.69508893 eV
Ni 12.80377629432256 10.149940118341945 9.930106795059626
Ni 11.945281906161242 8.464051404250283 8.584304819967498
Ni 10.935250549360008 10.652488850114217 8.549124361382626
Ni 11.0131272777761 11.30713405310798 10.871882949387395
Ni 10.622878126652127 9.251162982125997 6.627285357868125
Ni 9.616315241474673 8.637803138404509 8.564225385665019
Ni 8.789371157573562 10.599433227605644 7.473846989122558
Ni 10.85002270185554 9.018739099031457 10.63570853431501
Ni 10.356322906602852 6.858242680903945 9.77190976549865
Ni 9.30558407108655 10.101101278172756 12.114900359999263
Ni 8.295478250906617 8.349614870180247 6.710729581763725
Ni 8.62449112752312 8.227574970576859 10.71900420910467
Ni 6.594950020104341 9.890300719789106 6.701458002256957
Ni 8.069341124890139 6.918291834325053 8.809437908384329
Ni 8.956328354077106 10.636122360002648 9.904622740576002
Ni 7.09274344634009 9.852068297527161 11.194563831321071
Ni 7.235059533214113 9.430741479645993 8.85489849148856
Ni 6.186099735497241 7.7382244691086095 7.691722077368024
Ni 6.301150101399074 7.7810451706965775 10.118176671072172
