19
Energy = -77.11073283 eV
Ni 11.93266398780798 8.953911639073738 9.160300461122123
Ni 10.185346950635202 7.519501128824977 8.10680208395941
Ni 6.36764982853877 8.567929615947577 7.7236568967809385
Ni 8.147947638080948 8.309872788973424 9.117097877130071
Ni 8.439514116748013 9.970469574808966 10.836974196172813
Ni 7.588276577167435 10.575012272689701 8.575591626702678
Ni 11.101700606214271 9.532306294272983 6.979376051213441
Ni 9.559872517400414 11.359109637894333 7.262745773853304
Ni 10.052492092288508 8.077387690970681 10.551630940056402
Ni 8.741719034133547 6.170848633936728 9.630293991772685
Ni 6.237935591028595 9.123819738596056 10.077460439986563
Ni 10.89017954380632 10.402338501734217 10.798543483331603
Ni 9.82476322038072 9.774671876632478 8.875057057096807
Ni 7.705543168953269 7.634505767338206 11.25824350625222
Ni 8.666790514272389 9.058536898851365 6.893024661659986
Ni 11.593944725986995 11.322980926040545 8.613922077858112
Ni 7.926150745316785 6.751666485990828 7.446743244496
Ni 6.378597760491146 6.7564597961943855 9.373601445139977
Ni 9.41697760461567 11.899971197878298 9.623801179482165
