19
Energy = -76.92996579 eV
Ni 9.519655729045237 8.412168063071478 7.335292342929555
Ni 9.445111169403473 12.185471117086289 8.057401086352826
Ni 8.125614878185399 10.228393004089204 8.014538921733173
Ni 10.771161121864864 11.604764238217424 9.96795728475882
Ni 11.91726298858998 9.524967856649386 9.92660739484871
Ni 11.740674157017827 8.115926486743497 8.084891390695029
Ni 8.333183377188844 11.596519099850054 10.049029147849438
Ni 9.665625802065104 12.234470571716164 11.895378882375393
Ni 8.305910460798001 7.795131946227341 11.05433655565828
Ni 11.185624645946007 10.447314676870539 12.010944985142109
Ni 9.981113501932827 7.1766666662232055 9.365758619571665
Ni 10.57939389279396 8.243285201054546 11.515431386883096
Ni 9.544737092461228 13.597863293473258 9.955630112332678
Ni 7.744033205298409 7.9107543620648935 8.74369245257816
Ni 10.784890986588874 10.28432526600564 7.9108150150435685
Ni 7.119777186457407 9.637862086288091 10.179502060407318
Ni 9.521936306004731 9.438392647633881 9.71354717959902
Ni 12.190695853970192 7.206224632790089 10.212795203691257
Ni 8.86359479370786 9.992728021588121 11.881905012561655
