11
Energy = -40.3528771 eV
Ni 8.441345980827396 9.358063363375061 10.60945408602169
Ni 8.4380009312974 9.358439739170427 8.353592024699413
Ni 7.362606245193099 11.109387713789184 9.484124157292714
Ni 10.086057246023591 7.787303991387062 9.485788958784601
Ni 9.658543522851701 11.285225271331218 9.483145757924396
Ni 6.296684533573681 9.12282260845262 9.482326646526287
Ni 7.8648462245626884 7.358407067950022 9.482732129871314
Ni 10.751874028774912 9.644718040907842 10.685822486258186
Ni 10.74821890107209 9.642048061244616 8.28184846622791
Ni 12.462770720155952 8.661241207817172 9.483032515771997
Ni 12.201556667604413 10.984847934574795 9.480637772558714
