18
Energy = -71.91387052 eV
Ni 7.789158416378716 6.554816152333636 10.921478514048344
Ni 10.394065721502798 8.879763456379367 9.280388483582088
Ni 9.003937263551217 10.119862276817457 12.694080164292398
Ni 9.78715056658848 12.094149362658868 11.378780596481075
Ni 7.353171270480996 8.7408646860518 11.714431677538796
Ni 8.614199383663232 10.355422633027962 10.42613946230468
Ni 10.216235069760216 11.736306241568096 7.174725573184723
Ni 8.793893197992634 10.133023285212564 8.043193703163789
Ni 8.56504148896157 7.922979533095664 7.280028599474762
Ni 7.82020951319928 8.39005607196226 9.429274337541768
Ni 9.495025377404648 8.089324250417173 11.308182723694504
Ni 10.806016376553748 7.627868194007704 7.410355644801752
Ni 11.645609032468121 9.921798937798636 7.631447015664298
Ni 9.396273440928631 6.726633043902468 9.204051472218726
Ni 8.903537806293459 12.283716799127719 9.13012875455793
Ni 9.939771127227958 9.507424103055762 6.150852832565326
Ni 10.875531306567263 11.22235633696739 9.42079499219048
Ni 10.886581095938158 9.98781638671088 11.370245564526586
