13
Energy = -49.64506554 eV
Ni 8.86709095846083 8.928537069014524 6.3243820901655985
Ni 9.215444660716337 6.886294263339963 9.655524366616035
Ni 7.364668439404777 5.673508610047351 10.311823385931616
Ni 8.082002423439272 10.831403324050003 7.5293488239194115
Ni 6.918479061568036 8.74365307882334 7.710413362485596
Ni 6.90451813082428 10.194357052746323 9.503335452661949
Ni 7.097270092894594 7.25955503037191 5.97484255096893
Ni 10.726074279350113 8.012281331318047 8.11864572752677
Ni 6.77757934792427 6.421492639681774 8.229189516875815
Ni 10.357464424368215 10.263869578573212 7.459136097687448
Ni 8.901045904398545 9.14190902183974 8.938046203950094
Ni 7.1180140888306775 7.936049539151184 10.00362587034973
Ni 8.84330474325519 6.940659680383286 7.414723466242659
