18
Energy = -71.79870368 eV
Ni 11.469602830605453 9.74800191623562 9.149059723289078
Ni 11.205292107506786 7.666657402846177 10.059433360432084
Ni 10.534191607110744 9.53553808146415 11.273315897221782
Ni 10.522038941168876 7.937785618523991 7.742718656068611
Ni 8.77848544202941 8.834678230176113 6.325302872059756
Ni 10.25708136854101 10.36816075657204 7.30693745528482
Ni 9.428947523562192 12.458509621138669 7.935391286429967
Ni 9.678241213080542 6.1841044040347635 9.194602273863623
Ni 9.034149413412088 9.019687007226327 9.093531702745594
Ni 8.450617920589632 6.7723122657541985 7.3162307812949505
Ni 9.556115958866746 11.173383572273547 9.79051091311359
Ni 8.953979385678915 7.686552624459425 10.958080053043277
Ni 8.281525560356373 9.996402992121862 11.469746242864504
Ni 6.766007158857109 8.574062285393076 10.442261989833376
Ni 7.049269388203528 8.592638834562607 8.031264965108882
Ni 8.003429280773762 10.736714734548057 7.409003661403772
Ni 7.153013405631187 10.63617945224945 9.524836113814525
Ni 7.413464442352421 6.626276464439858 9.393175011713735
