17
Energy = -59.13174022 eV
Ni 7.497895269749986 9.680101106060425 5.1945668497831345
Ni 9.686019097591318 8.882793061867236 5.727321029228624
Ni 8.750624086809589 10.867449631833232 6.86968534450048
Ni 10.289543172733959 6.7280306124112785 6.568291303926373
Ni 8.18450439078262 7.328575870277062 4.961071077558304
Ni 6.0458119222725 10.508028658000324 6.602180844806362
Ni 6.187995287596948 8.211389527605222 6.1459979902621305
Ni 8.279667508028034 7.153311494281405 7.57658164771647
Ni 5.984070237483662 7.202485993088367 8.879634021050267
Ni 7.420821174113863 9.559711482460937 8.269352720155286
Ni 7.320222644560057 5.1633713144430695 9.149729219853604
Ni 9.996619875509682 6.459147991073703 9.167348519652185
Ni 10.388395786384136 8.606130873951404 8.012483156415904
Ni 6.6786062327408775 8.263155010185583 10.874855970125605
Ni 9.108239370253754 8.538243098068873 10.12358118810327
Ni 8.015616658537883 6.5230130317570465 10.723957903798789
Ni 5.877801467174556 6.037515424957813 10.865815395386175
