17
Energy = -67.43989728 eV
Ni 11.09230306266444 10.00235901562527 11.166869192799394
Ni 11.010123110080615 11.384077237976388 9.32054261776068
Ni 11.504681392643294 9.00493026414631 8.951579279915709
Ni 10.5727962589651 10.49899387914828 7.2343200301225385
Ni 9.2929084494866 9.308208284078848 9.287103476792856
Ni 10.326362622241 6.847558316615197 8.8395578666346
Ni 9.325483973607056 11.476227289129593 10.906111160922052
Ni 10.243847375087787 8.222750533691515 6.990903497599354
Ni 8.81857639333282 9.137388243150847 11.486811790264975
Ni 8.676737449802518 11.352569417991242 8.546743478019055
Ni 10.755932864338636 7.7333037770432735 10.923357494563254
Ni 8.139153347640859 7.723649238044715 8.160768945841793
Ni 6.885390156409593 8.389638148159854 10.164957572696252
Ni 8.469617551949701 9.68904389487577 6.730088648355024
Ni 7.22364993667565 10.661951971554398 10.410641463301541
Ni 6.8080764666691 9.78228389095078 8.321524282020382
Ni 8.646717451909861 6.925898202904367 10.425657396027692
