22
Energy = -90.59652882 eV
Ni 12.170524377386728 9.596405715890661 8.142700905276524
Ni 10.431959492615158 7.4146878441706505 11.00161573127101
Ni 11.877887495002968 11.580438063029138 9.269619717575736
Ni 11.443971614996531 9.336303905661884 10.31776771149664
Ni 10.907967678592275 8.738692959536282 6.458401888773591
Ni 9.750236896110032 9.11847558185579 8.489345678550931
Ni 10.138930924344955 9.353231834904491 12.499310252561692
Ni 8.990121728012376 11.778834316076587 12.134596821564251
Ni 11.105709054163823 11.323274730775587 11.442320020866301
Ni 9.59221207100157 12.00662461121715 9.684690784026456
Ni 8.725965129297213 9.633581497000634 6.403547938980069
Ni 8.30644729630337 7.89711245474329 11.741791835188758
Ni 9.193382591296716 7.279688840839086 7.170118111142141
Ni 7.313400275023345 11.509590342593404 10.491128099439734
Ni 7.272303689953791 8.465494040488082 7.864814376447472
Ni 11.164647241151831 7.400727664331973 8.715972430759985
Ni 10.300617172507076 11.108449734316643 7.542853281675619
Ni 7.5286175134526445 9.974835201370485 12.334990666611807
Ni 7.988531772574572 10.680606313090555 8.41014078740234
Ni 9.114411387567012 9.921623473714893 10.586401164401105
Ni 8.640930276586216 7.32232629293903 9.479140654782727
Ni 7.01874929809083 9.08812919244456 10.090584683569999
