27
Energy = -113.46874106 eV
Ni 13.397317693417099 9.554451809363576 11.07236313646422
Ni 11.727701946508756 12.652333167440881 12.688223375957316
Ni 11.29854212578301 10.735485038481565 11.515644716386351
Ni 13.272861646048158 8.317534295505158 13.104118650262091
Ni 9.544860775398263 9.45170427483555 12.597991969155256
Ni 12.999270539547881 11.134039115432959 9.311932472486248
Ni 9.62357674303923 9.042319804138096 10.229624406698374
Ni 11.809637624500056 10.495335084186571 7.360080551949559
Ni 11.792702121748034 9.131952064071811 9.388904676696388
Ni 7.665054936644719 12.94085295752701 11.694796759433085
Ni 9.90795882588844 12.994512402412584 11.118467415918689
Ni 12.780671601417492 9.40181972237578 15.157477436425843
Ni 10.178186533311306 13.760866185714981 8.885340038771286
Ni 11.044790147986255 10.627229486766117 14.060941530825902
Ni 8.248664684596648 12.633251642491668 9.400316662810738
Ni 13.146385443441769 10.638473459451662 13.220725433773065
Ni 11.123053361802404 8.31349351267612 13.965579412103907
Ni 8.612402103592302 10.943844353983769 11.038072140932531
Ni 12.01713008845207 13.050049222798483 10.261506601539296
Ni 9.549043100849957 11.875174505393034 7.37920683604569
Ni 11.914190914236288 12.719687540096091 7.867668801466002
Ni 13.6686606267324 11.916867636477841 11.406557853160487
Ni 10.491707084938618 11.267909275782047 9.30152073424952
Ni 11.423575047683187 8.317449659553748 11.601981194831355
Ni 9.386796976719639 11.85085358150483 13.04449869452922
Ni 9.9188114641529 9.353502906203648 7.87171256437596
Ni 8.13633227890464 10.395008783178335 8.802063070721927
