24
Energy = -99.88652339 eV
Ni 13.287302466018884 8.102810851395354 10.724876589684596
Ni 10.395398256115442 14.382180852229723 12.326052695722232
Ni 9.861515230698659 9.88848089095977 10.209415938954292
Ni 8.676267932031498 10.951071475842094 11.999595012441153
Ni 13.492493638618804 11.904240903774223 11.527979677064456
Ni 9.758844220284105 14.326260478891644 10.104850576966733
Ni 12.06277402088569 13.714570776654174 10.65344696175265
Ni 11.995981677535225 10.12788125840162 11.292025412472674
Ni 10.543124040993176 12.145448837281188 11.291727329892154
Ni 11.017380566267985 7.899638639431838 10.802215347812407
Ni 11.931778068216207 9.239202888579559 9.044332847905558
Ni 10.826961246399181 13.121723350442421 8.498164403310959
Ni 10.74765738460775 10.625507850385386 13.278123094593012
Ni 12.075911842280268 8.608090186994849 12.950876040385241
Ni 14.215157738556298 9.647472470347411 12.168287556865698
Ni 13.011719329411921 10.807884320949233 13.711191979891806
Ni 8.357704774057641 13.246757802011158 11.630306331854964
Ni 14.019019086722736 10.181107819761273 9.871406265880303
Ni 9.539192298930546 12.586202647372724 13.57218028608255
Ni 12.244272576947425 11.61481359584778 9.464669312204622
Ni 11.935864944973286 12.78366211885285 13.04675295712302
Ni 8.991637007479952 12.046659483903287 9.62375831475173
Ni 9.636608149127065 8.829215082319188 12.362869193677316
Ni 10.450339819759964 10.83044131202025 8.140742691151303
