29
Energy = -122.24177588 eV
Ni 12.226406420920133 7.426086842250844 7.262083978399457
Ni 7.209575906707314 10.789384041004208 9.99535501420176
Ni 8.678484831227921 7.35963188216622 8.462474951449918
Ni 10.309277175701494 11.876170489242465 12.676332832143034
Ni 13.533217746501313 11.80173297033892 11.035529224446352
Ni 10.33984713781376 11.079754338527207 8.205125456620097
Ni 12.280884608082605 10.29716661584264 12.453681862812042
Ni 9.244781742170739 7.539791188077833 10.972000640384008
Ni 13.225384816894413 7.425500225458045 9.43246754370316
Ni 11.594450434414703 10.771991753463283 10.305420898939046
Ni 9.797264201361912 13.41982429481497 9.109016438901218
Ni 10.232241784102163 8.72917151525775 7.297145728702269
Ni 9.314956565009776 13.739262540708372 11.529783412099333
Ni 8.137379762656758 12.009848812833502 8.151185910454846
Ni 10.871762281727026 7.147622479826822 9.114364053211588
Ni 7.549680316961546 13.138239820804678 10.135370712979968
Ni 7.755670445066452 9.43146920638311 11.91184424918476
Ni 10.013927414876546 9.655258977003658 12.005685710499364
Ni 12.469260996535805 12.635203028355273 12.900222615333043
Ni 7.2651085041997225 8.475228241425976 9.861652587146887
Ni 9.70114213471719 9.28562050827978 9.623562171298461
Ni 11.629849838742693 8.351537792825857 10.983016418251633
Ni 8.141887235319636 9.681021016132501 7.969178524261886
Ni 7.915468119066033 11.834428343337578 12.140049760926424
Ni 12.077454702255963 9.293151769127801 8.61482831681094
Ni 8.772810905745132 10.449065292912538 13.809223274871119
Ni 13.611629001501555 9.50821129310216 10.49819925951588
Ni 9.361309240140352 11.557306281143068 10.366855955468326
Ni 11.422726655225022 13.013471970562856 10.836856698284594
