29
Energy = -123.26835738 eV
Ni 11.28720107700656 9.998345536896894 9.512340155272138
Ni 8.738274201294903 12.283103947950384 13.029640801157575
Ni 10.97986201068218 7.547374288171005 10.591072133234697
Ni 10.916574879695323 12.657317202695483 9.666867183243752
Ni 11.582055456723658 9.38204032665197 12.049290518938845
Ni 8.520021013649297 7.258232345722562 10.56044565275664
Ni 7.678505387229932 10.996875317029371 11.44758261341339
Ni 12.703298498893172 9.795105857064573 7.717820493376231
Ni 9.211368855681057 11.006195792366388 9.54741135101147
Ni 9.92495359365239 6.286697204487664 8.91779698580819
Ni 9.442336073806324 10.004106811724265 13.279509160223702
Ni 14.36824556050237 10.453642269260046 9.259776309579703
Ni 8.955527520248912 12.8567160599917 8.208122694997124
Ni 7.4273949719000045 9.374631083423097 9.710681209415307
Ni 7.214939864635386 10.582571441813117 13.691588543965088
Ni 12.83688032391635 12.011162847801323 8.555858019856325
Ni 10.540630666070067 9.217350521102615 6.818991231627906
Ni 11.679832813541209 7.778654133141517 8.38914116770042
Ni 10.449321288562935 11.46443440730664 11.639009886801853
Ni 7.077905507749619 11.757592998770248 9.229237090829967
Ni 7.540420237940172 8.741679906206084 12.201300495884183
Ni 8.75852800857627 13.014092992955295 10.695816564933839
Ni 9.75034229061503 7.690112066106495 12.656837343755901
Ni 8.40905419758191 10.437654619257776 7.519881550398667
Ni 9.48856652699922 9.312051638980945 11.058345813394995
Ni 9.412330687344431 8.551772340239722 8.701724045609566
Ni 13.054759978088091 8.753298653812514 10.164023075265769
Ni 12.704515422712095 11.201774342474872 10.814476990254025
Ni 10.735468408036498 11.359247018505775 7.6200209661789575
