24
Energy = -99.81663757 eV
Ni 8.722470331062352 12.015861731594955 14.347302014695769
Ni 11.31970482919385 13.581989740341688 9.3573118977219
Ni 11.477034971710696 10.13296979828205 10.07196460587282
Ni 10.849861200475626 12.422382098233212 13.253445525786052
Ni 10.022001897210592 11.660970535209438 11.235621461837844
Ni 10.457769074664839 7.412881299069007 10.621328034606886
Ni 11.90524572139258 10.362269350898753 12.413117426394729
Ni 12.253154330128554 12.428361501390471 11.213884472121
Ni 13.718378872132924 10.602210358704369 10.89959743685151
Ni 9.431135804968509 9.32054852848537 11.385157675469893
Ni 9.888441384813676 10.194860584809527 13.554176378828394
Ni 11.70707142781367 7.95852077189469 8.78228070731035
Ni 12.735763994824573 11.751832256860256 8.940439686375074
Ni 8.018359103999837 10.997308753488207 12.329824463870333
Ni 11.55286033550046 10.040784529429747 7.6896231792571275
Ni 9.652746790746974 9.180665184992678 9.011648189782616
Ni 10.175049222148175 11.61972888963604 8.755146758781137
Ni 10.96674000551912 8.213375315303194 12.783626481639697
Ni 9.013630393531207 13.309708633355307 9.987196002661465
Ni 8.717329862505217 13.247093401099091 12.39641972876632
Ni 10.681067380064258 14.135770413352422 11.518789553219102
Ni 13.501063729882993 9.433071591232705 8.908685505811176
Ni 8.240174695919322 10.858934521510129 9.94478194683007
Ni 12.606864752846521 8.425955440515084 11.052565850659498
