21
Energy = -85.70167412 eV
Ni 9.919830103294972 11.37199237741326 9.206552308829561
Ni 12.727919130776165 9.509239883345627 10.820653721765371
Ni 9.77053809216073 6.859544943060324 10.798611775752075
Ni 10.188049624506295 12.773861823559773 11.037730008688364
Ni 11.917168364730205 7.497621765337804 10.124296124980829
Ni 8.80822754417946 10.957058115413314 11.690716214229942
Ni 8.020522796949141 12.43086246317441 9.99249920779194
Ni 8.067610462205272 9.781107856205612 6.016839106511114
Ni 7.779422485390266 10.075134981147006 9.84902428837194
Ni 12.08707404534819 11.611399593151534 9.977727641763867
Ni 8.121732062634806 7.796664849457555 9.408020020635961
Ni 11.636088063299637 9.591878163147616 8.679281054621557
Ni 8.380646770140027 7.5845246768188215 7.038282276508309
Ni 11.011379720363575 8.372400505167356 12.185469283670507
Ni 7.9067304172330175 11.335400133523462 7.846848196750998
Ni 6.868060930604846 9.15405892327629 7.894363044422569
Ni 10.059448689177872 9.198350606796676 10.27125210541593
Ni 9.381536570352901 9.5263894711908 7.873168046002678
Ni 11.073295186341182 10.743354638231782 11.851935448577763
Ni 8.394075901340873 8.59346566150788 11.703104519168896
Ni 10.305091777720111 7.462663030541562 8.453983705203981
