24
Energy = -98.03177209 eV
Ni 7.482560187099582 9.781584982001078 13.123863928341107
Ni 12.359581680266158 9.481757012012183 9.190218085358586
Ni 13.129584758842876 11.067209286052499 7.525908151894796
Ni 9.216669354770032 8.88297348364779 11.850496137388902
Ni 11.788382949309359 13.005121431581038 7.534176079550468
Ni 10.585652004390731 7.544946444530584 13.179202266664639
Ni 11.897915857709096 12.124750320285111 9.738162841282929
Ni 13.815752394725171 13.032266363411095 8.724795088203502
Ni 11.299817452680278 9.798291750212828 12.95445148488457
Ni 7.616158753709189 12.65806595136937 9.67537230905354
Ni 7.9306999078076235 10.854167738066284 11.141492749085945
Ni 11.510819772482204 8.302930176521771 11.140421476963443
Ni 12.864812405721684 10.280218873153467 11.325314287016946
Ni 14.225461745719587 10.892081742225482 9.562932179974398
Ni 9.452474761125885 9.290076218197758 14.324549154968878
Ni 10.865769892430839 10.855798956041793 8.062434201196819
Ni 8.719331065901025 10.750305984577745 8.94264735380074
Ni 9.679478372796089 12.498283780266416 10.836907650447012
Ni 8.1972552644785 7.559886876449769 13.494638312724716
Ni 9.680191617239933 12.84993249696742 8.555531784289359
Ni 13.69906718506447 12.541709520476147 11.129605837067544
Ni 9.443587345705721 11.201525059579557 12.856420244152245
Ni 11.566832720724125 12.0327802163155 12.137491638492339
Ni 10.451448242314433 10.299111281668429 10.485045941481843
