24
Energy = -99.93795573 eV
Ni 11.327032788749186 12.047305822978872 10.493229309748875
Ni 13.086810911123715 8.802671859146315 11.448554564566313
Ni 11.342206168868696 10.82217936200662 8.416002618898949
Ni 7.764753437050048 9.03936096462946 9.904650505434242
Ni 10.78432237429535 8.700502346289367 12.571706729477196
Ni 8.383814056409705 7.083215290023664 8.704715369122647
Ni 12.163859817241416 10.770787932287433 12.27265672195946
Ni 11.750883107336698 7.070888462521737 10.9092855909774
Ni 9.525900795977583 7.727864597205533 10.705295155970067
Ni 8.393515947683282 9.151992928797727 12.153668810344673
Ni 7.501720852940001 11.17005689250893 11.107833447474246
Ni 13.161587439086809 10.640103961731848 9.998078707883668
Ni 9.221468991151626 12.981987404515964 10.97832354293678
Ni 9.907053759822992 8.921708980192891 8.379451654664196
Ni 12.316994398835629 8.57567236915868 8.974708203895679
Ni 10.145625536022894 12.926679494906917 8.663045886203918
Ni 9.268447337375887 10.91016471593288 9.745935047408144
Ni 9.794548171488051 10.97689941811516 12.11486196405719
Ni 11.030285321982232 9.580286624025412 10.527292166068136
Ni 7.8643329513786 12.75005192205814 9.113038485812586
Ni 10.720251464935313 6.795657960174365 8.865403057344125
Ni 7.756159724188642 9.028577785701414 7.5189662545595555
Ni 9.014628908192307 11.078936074805132 7.508620835954527
Ni 6.844477446722131 10.79140015295605 8.696670199487405
