24
Energy = -99.57838417 eV
Ni 9.260668415078042 13.007450992976 8.914952417203029
Ni 9.070460958011838 8.805901867847183 12.576007272323448
Ni 14.43034920690287 10.09352984540515 11.569446831252462
Ni 9.409417551212778 10.793851802978654 9.69291179853929
Ni 13.351364193651314 10.726772980937985 13.594552815051664
Ni 11.33652027324556 9.543154463048687 9.491959526939391
Ni 11.851738227729088 14.190287812008263 11.622861639175936
Ni 11.56878431799466 12.176757159861184 13.16908837469628
Ni 13.458468008561729 12.273350875730179 11.754627510429497
Ni 11.342269758249826 11.799697149480522 8.543389204948172
Ni 11.090362686082731 8.306766857743245 11.581430910149185
Ni 11.182429566675395 14.296070344795297 9.08827835105343
Ni 12.028575841446317 10.412503926920174 11.540027809468405
Ni 11.13718065636775 9.71805355717612 13.59167856996548
Ni 9.197818357633817 8.557281044765563 10.245398122219989
Ni 13.093226469626345 8.56094166320277 12.723370943781969
Ni 13.02250730080556 13.157141598779743 9.696087344024804
Ni 7.7116043116681405 10.19542217579194 11.195629144105554
Ni 9.65598777744093 10.987335042595387 12.242172414549684
Ni 10.874737433418442 12.402739147844981 10.69625240533685
Ni 9.542665245296005 14.552356620627508 10.683686872924937
Ni 13.307527399158964 10.869680577784171 9.658154388873552
Ni 9.723289453575628 13.405170511864968 12.6617444576462
Ni 8.300841864979553 12.502214255749701 11.011485719864966
