24
Energy = -99.78893351 eV
Ni 11.01845915563834 10.907163600590835 8.53310942675948
Ni 10.874979134862354 10.890116766663933 13.535122834459472
Ni 12.239836812561858 9.30126389335716 9.765433069674671
Ni 12.173661433814653 9.299029047330139 12.324754499693148
Ni 12.923447918759711 11.608093581529454 9.790571180600233
Ni 12.829179416512584 11.597546302670315 12.396559016789714
Ni 10.950030537406953 12.971332696685298 9.740044810347216
Ni 10.875228448462865 12.948585628548274 12.363307827495328
Ni 9.03856968487709 11.513035042925715 9.667210288306826
Ni 8.960475234477633 11.509010058516338 12.256206440558632
Ni 9.831426173459981 9.236006787937212 9.7074742004015
Ni 9.761227978314656 9.233445239931854 12.269867485818825
Ni 10.95470374896032 10.932428082052336 11.025181266406456
Ni 13.418430437497777 7.805644260583022 11.062049576544917
Ni 14.107893382890703 10.060899923176285 11.107477794278031
Ni 14.608001478363791 12.427015765459652 11.225146423492683
Ni 13.031992259113567 13.899907013407216 10.274423132461179
Ni 11.058929210535645 14.871799026687144 11.128762281156606
Ni 9.038697386625726 13.552612395607705 10.989386548913586
Ni 7.177197585133432 12.111950550954766 10.890704957966244
Ni 7.866721476756968 9.848994593574668 10.931396231417363
Ni 8.68915822676038 7.645024450930746 10.976809301954958
Ni 11.047753338618277 7.642358328702381 11.021721347952731
Ni 12.989509425180954 13.921823304095154 12.524953822651781
