22
Energy = -90.31937513 eV
Ni 11.483667184913882 10.877083180411466 10.376882960542067
Ni 8.119109988857172 9.3069179637393 11.534097297130359
Ni 8.701338952330179 8.385699030522394 9.463209975983197
Ni 7.168499669905627 10.374352847367293 9.65381206712954
Ni 9.745641761880908 8.508112650991917 13.181223719289278
Ni 9.93911586337136 12.728179291093522 11.21776786129517
Ni 7.862625257289714 11.628184459457053 11.512118638318663
Ni 12.917404022164007 12.278574070832248 8.772082920520734
Ni 9.403537504578454 10.63151087796561 9.338858432391172
Ni 11.845067678897614 11.930215975237102 12.533336829016621
Ni 11.069173620556043 8.825977667590015 8.849253255799322
Ni 8.23914628828785 12.62147252460871 9.469267574085361
Ni 13.62277493361905 11.1400912997435 10.931393628516775
Ni 10.46099787690486 8.72975612320231 11.034791994269412
Ni 12.790165771902604 8.816383516446546 10.652972643708136
Ni 12.215414811204875 13.233350314977876 10.706296849126685
Ni 13.201796283184168 9.99110728811507 8.759685029966063
Ni 11.931573948663324 9.606716336112344 12.665768708368473
Ni 10.547455337580315 12.807878938431417 8.989619789463424
Ni 8.86606939141224 7.105977928085038 11.480574688227575
Ni 9.843234614733975 10.702281604567476 12.349841337772409
Ni 11.234086916233192 10.899063951196117 7.842994503363932
