29
Energy = -122.11336935 eV
Ni 12.130178449409383 15.349100603633316 12.370390388553496
Ni 11.769829871660882 14.507560136665534 10.06952977413539
Ni 13.349830454473116 13.481429895411367 11.50373953379071
Ni 10.488881712073313 14.375523128623461 13.99744854433466
Ni 12.554827563853808 13.457361737423494 13.772776773703123
Ni 10.962639608974243 13.431688213586478 11.98382850223377
Ni 13.408261771673352 13.137135942482258 9.192967051304407
Ni 9.64647787027375 13.534660389658619 10.013680774111185
Ni 11.638756054302755 11.732307742842162 10.375489350750117
Ni 12.698262033553245 11.467776175511121 12.61387605091212
Ni 10.548724561252248 11.870139022050113 13.688572988612792
Ni 11.135803731902806 12.62921667297446 8.352359695784353
Ni 13.976950953020284 11.302884877121334 10.619795763098523
Ni 13.072419332152101 11.056278505868585 8.329680172300938
Ni 9.196400662177288 11.409212373863395 9.239233409372803
Ni 13.496383591335723 9.356695100863044 12.12983046546545
Ni 10.935477714510958 10.1588319472814 8.488027716186803
Ni 12.588069467241276 9.48893911964388 10.026706076293038
Ni 10.20768644643575 9.528449393091401 10.899662190678118
Ni 9.486617705465635 11.743179620413077 11.576712166934255
Ni 7.745732069653207 10.452926334466634 10.76729047289209
Ni 11.2898851219706 9.687404717340387 12.975756763983847
Ni 8.903782657765436 8.93543392954805 9.157226207459203
Ni 11.795250996993467 7.803468500453172 11.42660010943366
Ni 11.12421132352732 7.915473700165069 9.069732603152781
Ni 8.942973261986152 10.029937102030395 12.997272444095891
Ni 9.868636080476405 7.813040263548208 12.773603664594853
Ni 8.053552639609945 8.329199944055313 11.44941119145455
Ni 9.674753282812619 6.981437233320139 10.56131088849504
