20
Energy = -81.34909377 eV
Ni 10.69164282382857 10.279913894410905 7.198527492916245
Ni 9.728117933904436 5.730327707778084 8.359868104335893
Ni 8.566224386326121 9.353624783116516 6.514482678078905
Ni 11.23651479080451 7.027838786068714 9.631221817475122
Ni 8.03604461007868 12.16802176623746 9.365592120653417
Ni 9.151238838120596 7.870291189028096 9.110099307546498
Ni 8.787834209996033 10.063357859641883 8.646711931734876
Ni 9.170506047810685 6.166236743687638 10.756937093858502
Ni 7.45381650804193 6.28418030830865 9.1610193846173
Ni 7.6789059673291895 8.209878805200878 10.790483907797448
Ni 9.044417768350357 10.39499104614259 10.861814695481494
Ni 10.044717156899225 8.277359688733924 11.288875104333552
Ni 6.800431975891622 10.259597484863031 9.964291819566624
Ni 6.9583882597124145 8.521512131510343 8.343042369565083
Ni 6.858314895421843 10.854434051164914 7.635881159289911
Ni 8.28889959478532 7.044012746682475 7.0374772380164305
Ni 10.338852365117916 11.71296035747177 9.097237019836488
Ni 10.976372957900804 9.411461947194029 9.40799504793147
Ni 10.532947767966714 7.906650107310815 7.330760233635883
Ni 8.918739164742458 11.802882667660505 7.044479351653263
