28
Energy = -117.94234264 eV
Ni 6.814944151662179 10.103533183562488 11.45480269438433
Ni 10.582169151553057 11.302273842654774 8.797611327211532
Ni 14.05985175831821 10.915064045714365 11.930027513090847
Ni 11.394193069512735 11.631854538338317 14.979568199099647
Ni 7.813441940549685 12.133270909467571 11.86565183686315
Ni 12.299878512465385 11.31013848370112 10.428500349150239
Ni 12.096241095497845 9.392949981011464 8.914267737885831
Ni 14.743907336702682 12.077159132517828 9.919370325402626
Ni 9.569467396999022 12.088904852587032 13.490890856464762
Ni 9.473732931103367 13.964520793678709 12.017002208130192
Ni 10.151534774747686 9.837368093283523 14.358574948908474
Ni 11.129654041334378 13.763519616768079 13.948815964403
Ni 12.843923521068621 13.463669347687937 9.66968496244402
Ni 11.335875803829126 10.833299078490546 12.555414623504872
Ni 12.828851302457702 9.759354025562594 13.774233419158426
Ni 11.721109265001894 13.272480177015881 11.791273010072368
Ni 9.89905980931223 11.891415053583696 11.001523289683728
Ni 8.943947500179645 10.013551481441235 12.318542839974155
Ni 10.456011814057824 9.573922331092808 10.521766720254607
Ni 12.66237185565845 9.07146840845716 11.360953818685172
Ni 14.211825009676057 9.841620460816282 9.736903429723743
Ni 10.829172730941965 8.460094719922596 12.640822844799311
Ni 10.489456886692022 13.696714315868096 9.73720664963913
Ni 14.058971686745965 13.329132294144491 11.736166248973937
Ni 13.016949002228944 12.258921796524724 13.545104289416303
Ni 8.426859699165718 10.541652628234187 9.891545452249547
Ni 13.111197797002216 11.47496983804828 8.26299578319786
Ni 11.571092563088623 13.164794627593128 7.737609921013042
