26
Energy = -108.98223976 eV
Ni 13.468600462270675 7.848009759416597 11.306427974547503
Ni 9.928581414594902 13.363090271588469 11.85150222354893
Ni 11.542592092919692 9.0804259460619 11.582671165075086
Ni 12.27081821315463 8.698319823258105 9.42352873968652
Ni 12.547516778102453 13.228628771049156 8.681663836040418
Ni 12.104528583843432 13.116198782298971 10.936214659975414
Ni 13.369143979715856 9.529242179377354 12.983640098275307
Ni 9.757838119238613 10.505666221626177 14.529939091092057
Ni 11.305641353344228 11.017901280022906 9.91713946684617
Ni 11.057742353424539 11.982182518070736 7.476158661178029
Ni 12.056539312967432 13.452185331135462 13.23362024068619
Ni 13.6299301799103 10.113933369691406 10.688683673773008
Ni 9.812896138366584 9.207748713488687 9.971135857679288
Ni 10.213179068537162 13.038453484644297 9.455615900101106
Ni 13.437215929425479 11.778600795330552 12.359550600894671
Ni 9.046513922622688 11.358023824986011 10.784627954856665
Ni 10.943942457188442 9.69482133896744 7.838947478469573
Ni 14.126016103118554 12.289630706533673 10.117516831498994
Ni 12.135908673758689 11.1859764724564 14.31036794002566
Ni 13.036935232840314 10.87621240917071 8.451177699754423
Ni 10.947949293106523 11.346479385921116 12.378909784540939
Ni 9.377683630064851 9.562870919666226 12.359998413879412
Ni 8.485076450380236 11.733430817319128 12.99418620763152
Ni 10.143486189002912 12.760404433207004 14.251056753468514
Ni 11.295880684881475 8.965355039176321 13.86395078594939
Ni 9.168700369160865 11.052861889612817 8.496800048249117
