23
Energy = -94.78444839 eV
Ni 11.86033813597983 7.515676443427182 10.16636992280191
Ni 8.97769684413249 9.312193507808104 12.440129696899655
Ni 10.561728330200925 9.452413603404699 10.73184801413155
Ni 9.765472774225104 7.381987045578357 11.236485281594646
Ni 10.482978791861525 5.692435615376785 9.764236667444372
Ni 12.012569837972409 9.475252091436047 8.911950182672733
Ni 7.979619834382331 9.210469581203178 10.3511020138136
Ni 8.326367560575976 6.464071711239248 9.685982938484088
Ni 11.495709413669795 11.41502042212927 7.60214850848734
Ni 7.564241270084691 7.463555901808361 11.866954424851047
Ni 10.168804370423581 7.64503587325212 8.473768178706989
Ni 11.186265347335457 11.546947426956613 9.877192619289293
Ni 9.58327380942918 10.967329565513566 6.377391414715236
Ni 9.62762941695763 9.901659470941432 8.553395323691705
Ni 9.128299384751891 11.273491040674559 10.93695819027621
Ni 6.2211232964240635 7.4790623167988075 9.987730641481411
Ni 11.192929774165005 9.185184745979402 6.781553290023788
Ni 7.640238789748138 8.161615890484063 8.270234510967406
Ni 5.979209683966717 9.609117795984359 9.051489139602827
Ni 9.289437262216804 12.143736287915837 8.557701751589905
Ni 7.599738402821794 10.466715614256755 7.506925777192973
Ni 7.2648438331703415 11.4204203582266 9.600310855684352
Ni 8.963488898631446 8.687583222108287 6.520750581230742
