22
Energy = -90.84076264 eV
Ni 10.681671257712171 7.44443428064746 10.63739739275012
Ni 11.708827246661217 8.602635958888522 8.711733870651374
Ni 9.816750251632365 7.07408916315315 8.450406694989947
Ni 8.369588271994884 7.14914930122936 10.431551035415458
Ni 11.303190450710991 9.605586970293885 11.19388812228516
Ni 10.718086391656183 8.115687630427043 6.567240134677672
Ni 9.190913699012633 8.882238333939522 11.831733081820206
Ni 9.689138000380025 9.34830655800818 9.42460876797942
Ni 7.666371608659562 6.004307399079814 8.39529216678246
Ni 11.316333622123862 10.334024808734668 7.175705891699454
Ni 8.349171595954342 7.423768347107622 6.4874023532592915
Ni 6.107674063965279 7.217622582015304 9.819219577506972
Ni 5.997848365216481 7.31727683371682 7.335748434582922
Ni 7.750885769380769 8.350672677249817 8.52008289979257
Ni 9.050640997568939 11.05876191904891 10.682802327603754
Ni 11.472248443489239 10.994548966903647 9.440393797048264
Ni 7.228059614733751 9.320417183238348 10.634060427633665
Ni 9.612095606193662 11.601519729253933 8.292232814733339
Ni 9.083292320029116 9.68456464206987 7.013663256306706
Ni 6.791562930120536 9.450210769591642 6.671530323620451
Ni 5.626706628145587 9.284348929351362 8.766088687428374
Ni 7.5469432404552395 10.696639077784495 8.725147329329799
