23
Energy = -94.9878315 eV
Ni 12.181510470256791 6.8706788054514885 11.767346296400984
Ni 12.791261187905123 9.06543185129152 10.753159942084505
Ni 10.798464947718825 10.38485532109844 10.475513140928975
Ni 11.91095426202047 9.584309376958014 8.520048484185024
Ni 9.7444305641463 6.753351478181973 11.524597864592762
Ni 11.128129539068413 7.7436848609342555 9.932103620771224
Ni 9.59335772384379 9.215903708459852 8.789848060406174
Ni 10.946091189697206 8.750326514110212 12.185716196293058
Ni 10.226592918899376 11.441690121410069 8.332421129504805
Ni 10.780905262583042 7.535387819264361 7.61878872505263
Ni 10.432487494150672 9.643473144395992 6.624911074205724
Ni 8.503453331510975 8.099298697818762 7.041395497535892
Ni 8.907011090238196 8.961766763873111 11.11486659947143
Ni 8.306405277029695 10.496670114692307 7.193307344692596
Ni 9.002948984508453 6.956198136999356 9.209679747529293
Ni 8.018915749214575 12.506733148909602 8.230909887261289
Ni 8.505523629522237 10.96890404472645 9.962340552005399
Ni 7.442790103602305 7.212138289435038 10.972207994357234
Ni 6.405760003572021 10.817072335632298 8.866276201684556
Ni 6.369662356938892 9.298782987613968 7.017119714838751
Ni 6.702815304718558 9.75146506135651 10.96291301568116
Ni 6.352834953745778 11.664839570739861 6.712471702753372
Ni 7.264517844603307 8.574335956510943 9.064628855847287
