21
Energy = -85.82356119 eV
Ni 11.55840663216721 9.970591131719686 7.006191761152505
Ni 9.273801509053751 9.981475136093431 6.657479036813821
Ni 10.130885301255995 7.782075547425134 7.315866997805645
Ni 8.195773170886905 11.03546035030796 8.441643438834955
Ni 8.6941398776145 6.483413513993656 8.805075490846214
Ni 10.183900508160603 9.382023497329008 8.924478880739118
Ni 9.615759035306382 7.6865841649024045 10.576099924412391
Ni 12.303227790781797 8.352914394940308 8.385156298865356
Ni 10.382832926295237 11.742824990443562 7.9571867495267945
Ni 11.02829412156541 6.531637292421417 9.146621311774423
Ni 8.012692142705319 8.632187496784187 8.163605333590167
Ni 11.908235985463648 8.278815000361256 10.596613348863103
Ni 7.162957149193384 7.728227870137113 10.201067517363064
Ni 7.255798368253921 11.722009076478727 10.500107977162957
Ni 9.72213786217591 11.680980577934172 10.203911532654505
Ni 8.384754449217793 9.680952425714677 10.482766318188926
Ni 11.917964158257128 10.639990643287975 9.544652636447546
Ni 6.318938210145424 9.814290719333865 9.347559883487712
Ni 10.511082112098089 9.878395088319825 11.456439709458012
Ni 6.495111373732441 9.710226052916616 11.7073461919596
Ni 8.626145559072823 11.061632993415078 12.296459236018435
