27
Energy = -113.34470609 eV
Ni 13.761127388462324 14.15561821597519 10.8542607072003
Ni 13.868347639173074 10.521759704486664 9.205680005330752
Ni 13.707670265285271 11.878822943697251 11.162266032587155
Ni 12.644959541086418 13.20692238220498 12.790412334405758
Ni 13.074914989583975 12.731476586313839 9.036358124825195
Ni 11.890218430365124 10.837366686089682 7.9909736802112805
Ni 13.581094932465342 9.537331029540223 11.27545384133141
Ni 12.128913040780702 8.907260262157578 9.42128639987159
Ni 11.56671086850471 13.39228781075196 10.772346110516962
Ni 10.358905980040477 8.867779974504376 7.885163874471923
Ni 10.795272661656874 12.903642647784647 8.570240610057704
Ni 12.16861943999615 10.865561488598503 12.713188848580534
Ni 11.556998197553769 11.02367514336877 10.364271912533749
Ni 9.479587506740428 12.42798876838302 10.4759038448869
Ni 9.65272736096626 10.880911220236829 8.706246267761095
Ni 10.375006006066416 12.364971591138742 12.62330375683635
Ni 11.430246177326358 8.883364425503505 11.701455610407018
Ni 9.93660244880852 10.118466434509791 13.16099254070427
Ni 9.253512826438353 9.856208945789106 10.929537607772017
Ni 10.05605962953334 7.848669489012268 9.992591303731666
Ni 7.581136858647476 11.414765748456759 9.633563133686096
Ni 8.111710509296755 11.471584799551685 12.115955153541409
Ni 8.171110509017794 9.074227946893723 8.998018870172821
Ni 9.612876200433165 7.745522426376748 12.397973298688566
Ni 7.8202182961028015 9.164410194198167 12.831699785721026
Ni 7.82854219292869 7.7093747062463525 10.907572099918468
Ni 6.7109096218257775 9.740486145816998 10.87824679846742
