20
Energy = -81.57165795 eV
Ni 7.353589846139342 9.284627337699291 7.006123700416182
Ni 9.063919345193408 10.93309388002866 7.008671068541276
Ni 7.079923607405926 11.212041266996673 8.280557225811712
Ni 9.656297598472559 8.539640880467886 7.0518566236268985
Ni 7.8086686770291776 7.295481188365425 8.06166571497844
Ni 9.785338325986077 7.387668694683233 9.259064264479292
Ni 10.914791296910293 10.282041431636427 8.267770734356334
Ni 11.706320148643396 8.09213031833817 8.131512951672018
Ni 8.739813231576534 9.567931491411962 8.98790127893854
Ni 9.183545951031169 11.833416821044207 9.290301006425755
Ni 12.69879870516097 9.599016968361521 9.646994785226417
Ni 11.345849131658518 11.517281017955357 10.210635870971164
Ni 6.60655687141115 8.959741345820401 9.404116744002577
Ni 7.740112619566297 7.030773715276328 10.377882882498419
Ni 11.881751613456695 7.409461810932407 10.355675761893627
Ni 10.618195159436063 9.352118231962036 10.664244650540358
Ni 7.272395004587353 11.050794429516575 10.571113384548921
Ni 9.409739370206422 11.189400834287905 11.539828777070982
Ni 9.809824901423276 7.319449963573888 11.578822576159688
Ni 8.278924670376043 9.098244447312887 11.259616073512385
