21
Energy = -85.79417176 eV
Ni 8.4248963056766 9.84795997475838 7.049711263785627
Ni 10.656012566844307 11.077933889512265 11.316290974109267
Ni 12.063891620021714 9.913409363714376 9.674780518807617
Ni 8.712983376899615 7.28057124927705 11.688235693497832
Ni 9.607992471130867 10.443184068760575 9.440648679190558
Ni 7.494734422493978 11.131289955196355 8.940161946475252
Ni 8.208506993351888 11.297116557993245 11.24967208995518
Ni 9.32635792286195 8.301653189879792 8.518459828606064
Ni 9.958453447739057 6.294694283545693 7.649093546000295
Ni 11.308784193107106 12.003676694318605 9.00262485210356
Ni 6.83287626064924 8.908677308725416 8.448604858914047
Ni 9.168691796069846 9.55327720241487 12.46269782280448
Ni 7.756706645731497 6.913932575104512 9.46915597528251
Ni 9.198028583689439 12.758026700870575 9.749941671309271
Ni 11.55294045038476 7.850054781940839 8.694825400171496
Ni 10.027914407729524 6.453939219898357 9.943604205807812
Ni 7.899038571127105 7.409041706438457 7.008903311124804
Ni 10.478470998425296 8.612594965002518 10.794126635677388
Ni 10.90763578288234 9.9542002945044 7.581452897806204
Ni 9.434839341638845 11.894915102993036 7.535097802579731
Ni 7.896415009601273 9.087334210861972 10.514453392785704
