21
Energy = -85.63325008 eV
Ni 11.788637272452958 8.092320039990154 11.350814941524332
Ni 8.524918115846384 10.411130819765416 7.2864133281321335
Ni 8.516241405586545 11.178461276355922 9.492619916842774
Ni 12.653538412244254 11.937396716991879 11.090983868062224
Ni 12.380916707279063 10.0361069587288 12.354374565665145
Ni 8.707979729757055 11.376852032183178 11.836062316097356
Ni 9.580909377488178 7.589788247315651 10.815824140132884
Ni 9.135296078451757 8.767553356412938 8.811031032591154
Ni 10.858041256314216 10.24199594572685 8.173818131207675
Ni 10.386776192629558 12.327673642339692 10.333569949817253
Ni 7.497367970397986 7.392406463604637 9.686793135576718
Ni 9.896556841242507 12.318236415721639 7.952858549378019
Ni 6.899980630528515 9.583773902378804 8.92731747177683
Ni 12.147653682665055 12.102546956761072 8.827502700871348
Ni 10.444292315132934 9.995373283448243 10.49486791819209
Ni 12.61368952404029 9.912769351715417 9.868873822063925
Ni 11.317355706666348 8.051238594548073 9.084515314683081
Ni 8.04111475403285 9.336033360465308 11.012448451404051
Ni 10.847186043602765 11.692126323145619 12.590749451601212
Ni 10.009628929918001 9.348840572426871 12.587147950772849
Ni 7.567631857923101 8.132847872607158 7.295673067589195
