27
Energy = -113.2674177 eV
Ni 12.896954260134278 11.66215690280837 12.39451571275461
Ni 12.916731437659077 10.747446114933835 8.337853144476753
Ni 13.860231293793403 9.657012815556612 12.879738610163436
Ni 11.488794930535276 7.064979358909753 11.063689691578716
Ni 12.142006170204967 8.091914309786828 13.043794335602623
Ni 11.23132545882661 12.61743726097015 8.206406377988195
Ni 12.459385571961516 13.8074583590131 11.644989115522925
Ni 7.800059233200775 12.03620962422784 11.520146639108045
Ni 9.133069371049118 10.306502753801523 10.877104041511565
Ni 8.606309947322417 14.158497351583843 10.976384434930827
Ni 10.324244690387268 12.300040900790878 11.522122112938986
Ni 10.434231563469726 14.682310175246839 12.316990993533034
Ni 11.690207440382371 9.801796415673099 11.337792345887134
Ni 8.822674907797705 13.264182208855441 13.222067994950425
Ni 12.305581528390997 8.706642474101237 9.355246552852217
Ni 9.331195608874928 10.954131612218792 13.172770829913839
Ni 9.147029657987298 12.313328288270554 9.484712299599204
Ni 13.592622839757583 8.024734591101272 11.205641063188105
Ni 13.872173995672624 10.285267216187723 10.549597511246029
Ni 10.01612641194561 8.417323059189965 9.974927393942991
Ni 11.167346227879825 12.703911407096752 13.609792708837885
Ni 11.488018605245585 10.264511017428376 13.658689296555737
Ni 10.689094285548371 10.51660469738138 9.091722932339223
Ni 9.94309276667434 8.69689775684337 12.41522537239925
Ni 12.303912778895633 11.980266232552024 10.145642159737005
Ni 10.723212223799136 14.09612391453191 9.978857485524625
Ni 12.941633248054229 13.99777510757185 9.283901413176377
