29
Energy = -123.10108701 eV
Ni 12.992962434887982 10.827940923298927 7.73512449632546
Ni 12.148590533447608 8.573844007621867 8.551994357224492
Ni 12.936598301049269 10.299811766346698 10.115969783012645
Ni 10.41532978960736 6.851517024665626 9.476402181033825
Ni 11.025780372578613 11.383308296621927 11.171605304640584
Ni 11.011052241758648 10.645537081083708 8.945028699152822
Ni 10.735459336864015 7.3791651948026535 6.996640457954405
Ni 11.06424735282659 9.825340910538952 6.712885112423218
Ni 9.747929878060884 12.56270046432915 9.324867699380693
Ni 9.585413216611013 7.406112084375397 11.771468091957368
Ni 10.99094555756788 8.921953606039908 10.68043540340824
Ni 12.259536664858434 12.541200150403135 9.394666059079237
Ni 8.993590938853549 10.29888769021544 10.181480383441901
Ni 11.097315359564956 12.230942790995613 7.278596679517211
Ni 8.876397094615152 12.264654542138945 11.486885475297592
Ni 9.495834096376754 9.843198190295709 12.364045268872458
Ni 9.733339922303074 8.796271453591872 8.483130262674681
Ni 8.504927209456794 6.949940190982005 7.837017121243192
Ni 8.182516850083664 8.052071044500206 10.128605645959551
Ni 8.90287350489411 8.838908085183517 6.330834239596867
Ni 8.999147288948093 10.96534423234311 7.649345099980483
Ni 7.236260467249371 10.710108079565488 11.717154458784897
Ni 7.241399142952562 11.4110530821943 9.362077688015155
Ni 8.26591729409722 5.795868581876241 9.932551858165123
Ni 7.486341883913248 8.518535006230573 12.31947816425393
Ni 6.205458917804345 9.220506541910945 10.231825202524451
Ni 7.3803019870360025 9.290049700820411 8.158911212364167
Ni 6.458938427848911 6.825299560540554 11.16784005175973
Ni 6.407585858440995 7.151921641043945 8.8751254665132
