26
Energy = -108.90353655 eV
Ni 7.765781566878109 7.939147576247456 12.743877406178278
Ni 10.962517803492416 11.893656557881398 9.838971885149567
Ni 8.61260972575754 10.093884210780836 12.819325250535366
Ni 12.68434435031849 13.11394471967125 8.301028928295057
Ni 10.73536784008613 11.83074051595501 7.564487334609755
Ni 12.096769584966896 9.680756444835211 9.498107470182907
Ni 8.288240500118729 9.061681234686894 10.687616902395407
Ni 10.21842838813215 8.186401777951174 9.457345988037735
Ni 10.468481802683879 9.88200738879694 11.273854533605482
Ni 12.711698895542993 10.04133458136891 11.831005828330824
Ni 12.08432873703686 7.846322510217277 10.903259775774057
Ni 9.903653260409245 7.6688848456169465 11.816958960773464
Ni 9.405139217005674 10.30488456145338 8.95607351929913
Ni 11.789929346018328 8.309988621737512 13.151347624567073
Ni 11.005360824467582 9.43715135446172 7.4795899721841135
Ni 8.829319573373844 12.618982533339206 8.872962560646823
Ni 9.502485743426643 12.267863276195037 12.957651399178953
Ni 10.608797279121148 14.078836031982377 8.718319482124276
Ni 12.907236865312086 10.896984712685473 7.746656974356895
Ni 13.250571580718137 11.660657292006265 10.153896695592255
Ni 9.643224660102439 8.409367493185291 14.065645661296788
Ni 9.815091560441031 13.566140087301484 10.98213747890837
Ni 10.91228977358225 10.447140323299159 13.513106275776556
Ni 8.652490971403873 11.47694338022698 10.909167799779027
Ni 12.183884799954928 13.858832214928098 10.457378081546997
Ni 11.672201481030084 12.191188298474191 12.045975066514012
