23
Energy = -95.46966664 eV
Ni 11.089877465910844 7.55203627675891 6.738446461902687
Ni 9.18417418843569 8.54855921323048 5.960853091747788
Ni 8.941488895533064 6.868437622181718 7.734244589060546
Ni 10.965951854050138 6.516585718295502 8.856996189109351
Ni 12.189622118113366 8.56514685127388 8.493930078601275
Ni 10.965880091902802 10.31126230282746 6.907570710752364
Ni 9.854071244191154 8.964630368660206 8.229319925690342
Ni 7.279488017277845 8.61910212218936 7.414340324452799
Ni 6.874435962051996 6.697602519658146 8.861552859831942
Ni 8.504201702039865 10.585861939984394 6.735883737477044
Ni 8.959870738711524 6.4857899116093005 10.201333750750734
Ni 10.646485133648968 8.283542324514737 10.360105931485005
Ni 8.123524891681129 8.539629697245736 9.652467478202368
Ni 6.771362929956133 7.406284968539059 11.138465508560266
Ni 7.328077118452053 10.588329344454367 8.7855533272284
Ni 9.536277948078267 11.488671191757675 8.564871398527094
Ni 5.831230865705792 8.791517401436552 9.355255491390851
Ni 8.809042421135173 8.293720667839361 11.887564125071833
Ni 11.393637578133122 10.47312184193696 9.49346019982215
Ni 8.066427567283633 12.079658921585878 10.407301686587681
Ni 7.055126845582338 9.955736432681524 11.14801336298653
Ni 10.418480658849628 12.34919807441001 10.536785412259091
Ni 9.439531199408995 10.272744978155288 10.825556846468336
