25
Energy = -104.54399274 eV
Ni 11.591426594086075 9.554643611263037 7.089497163829325
Ni 12.62363046874607 11.606073403512154 7.8226783703199185
Ni 9.260981235885462 9.577955696279693 7.0880186188573955
Ni 10.419404537953815 11.01975067574163 8.539140850120766
Ni 8.110529304059897 8.341508400428093 8.626104744186476
Ni 6.766701814472412 9.241010895744434 10.17407857034875
Ni 10.411687708522855 8.486386680398416 8.943517426690672
Ni 7.943748342194696 10.873929209213436 8.617830738847063
Ni 13.782729717564823 11.5591526194184 9.889741890444835
Ni 11.724473560253664 12.616099277086933 9.784123502787764
Ni 12.380847088608062 9.755792540401966 9.258858898288635
Ni 9.089594084417465 9.97905919022499 10.36062427052431
Ni 9.28708758264666 12.380222781368829 10.085096343797645
Ni 13.564916018027226 9.638065802221648 11.210904593260965
Ni 10.791301405157842 13.031065074406886 11.896003820210977
Ni 11.416901169449504 8.443596856133619 11.054604078789959
Ni 7.173791282765005 11.45578741287857 10.825607822555066
Ni 7.668978181247483 9.548753634545362 12.266131247623948
Ni 11.157680355069179 10.801978986246699 11.13250614951497
Ni 9.012613616154407 7.813128129704571 10.87466987408494
Ni 9.930152311994803 9.31225356715022 12.655320827125708
Ni 12.259851659874448 9.532037646978479 13.071713222489839
Ni 12.916020651105928 11.777997148658022 12.131728124088937
Ni 9.00265765757322 11.540865832499682 12.287310091589799
Ni 10.954635462155352 11.35522673748057 13.556530569607842
