28
Energy = -118.54541166 eV
Ni 11.358555279586446 8.487720786327039 7.548690101458552
Ni 12.314794795781529 7.4520066497576005 9.519326736274833
Ni 9.945109778706463 7.410360611787184 9.13118215748865
Ni 7.677555902342809 8.588849798129953 12.896348315680632
Ni 10.952731379266538 7.324620414269134 11.371356263058553
Ni 13.191634673345929 9.490211145703114 8.893492393525337
Ni 8.60906480975014 7.425669570055494 11.112583326111379
Ni 7.633652137766018 7.456098666139956 9.008199117545146
Ni 9.494457787689608 10.065331723691983 8.053635994060755
Ni 11.714834694481059 10.886912429412638 7.670099548023103
Ni 8.871601106187534 8.146682295294164 7.07345372044899
Ni 12.200341963860842 9.481473812915924 11.59361526886428
Ni 10.993907308326468 9.421085990081338 9.745759339025
Ni 9.474089167567785 7.0447414645293325 13.221564404206692
Ni 10.311735581305337 9.840927199810459 5.910264004273754
Ni 6.634065245201175 8.79666271290462 10.725223438941516
Ni 8.026585317967209 10.462399584209546 6.309591772529652
Ni 9.911593903797847 9.14445119263878 12.319919296674469
Ni 7.115770866542195 9.584105929303284 8.309692369361073
Ni 8.075790175209496 10.770038915913299 12.173872180244704
Ni 6.707124850401565 11.088997890176715 10.164872202178227
Ni 10.38533729689544 11.207598101573335 11.35616053338813
Ni 9.805684369681813 12.049377723237926 6.741789880535034
Ni 8.657470200122361 9.739378964612907 10.22575951091849
Ni 12.334345480704167 11.37507512561365 9.991230667862817
Ni 7.987332191994119 11.857558759665169 8.33190485086166
Ni 10.234221073832321 12.040707676749264 9.12542146425216
Ni 8.50958204768094 12.489924251491196 10.603960528200965
