25
Energy = -104.3292649 eV
Ni 11.593125207340613 10.439255653227724 10.465784872547378
Ni 12.167631739509961 8.807023057628742 8.977300732117666
Ni 8.8872551553896 11.434773022583329 12.075495688727502
Ni 13.89833001216295 10.629258915860715 9.782233808728892
Ni 10.35377344615397 10.068770503997088 8.097838876124287
Ni 9.833766108600654 9.333368090427424 12.652251843087814
Ni 8.83753060541242 12.959852665406066 10.29896871971206
Ni 8.104844659009967 9.584837616125228 8.173276139498144
Ni 12.70406162521889 12.656067400920879 9.957129355039449
Ni 10.90179056936697 12.552522864395987 11.500460805268983
Ni 9.756382521659265 7.954475054769273 9.09844425847488
Ni 10.605002842715763 12.165231848579575 9.082721533418418
Ni 12.441206669241625 11.12030223951263 8.064092860825486
Ni 7.360339590792467 8.410000164896452 9.932348510609701
Ni 10.898868917354058 14.264695174409363 9.949394134288433
Ni 9.319791808280204 9.823335093607955 10.336045869052734
Ni 13.391821205738534 8.852440100978265 11.110537064130448
Ni 7.384690074616493 11.000103822702341 10.155696277083829
Ni 11.152606320492094 8.132155110127675 11.042157985249617
Ni 8.926032335869973 7.541187457880842 11.412872511549043
Ni 13.018038854678112 11.265394046623745 12.00090887222359
Ni 7.57718983007857 9.438460305131105 12.016160003552457
Ni 8.518443989812743 11.832736723471234 8.231629146806513
Ni 12.11674530629286 9.241447753424948 12.972931942445134
Ni 10.97889891630727 11.220473625407587 13.34148650153434
