21
Energy = -86.31035778 eV
Ni 8.029403750997853 9.395919832077217 6.260788961013466
Ni 9.813188973988284 7.830417373982801 6.643796295173891
Ni 7.867090377723716 10.942445522633372 8.174342343992647
Ni 7.608690215493442 7.046131406283981 7.10135461749378
Ni 8.559238657020039 8.684661141866652 8.418376947211216
Ni 6.3116334052388705 9.047471497590857 7.912795781986419
Ni 10.023585393560854 10.194663479129176 7.321258533445099
Ni 9.368321571836274 6.601168657973197 8.83338463250063
Ni 11.090040603596767 8.376927630423861 8.557038259810948
Ni 9.891097745665766 12.054819191990068 8.843801326892164
Ni 11.760897876603678 10.751553528291195 8.844075037216102
Ni 9.818172050992745 9.816750225957081 9.956833851676876
Ni 6.980016339759185 7.262509709816478 9.387980892203371
Ni 8.270971542437373 11.724055768474683 10.421747133973989
Ni 10.940476100154395 7.165607188519236 10.559634954767937
Ni 7.156375796533292 9.614130952352099 10.088808338284647
Ni 12.1044045155807 9.256434058001322 10.553542050166342
Ni 8.734611283677173 7.900076527924637 10.846905579512473
Ni 10.702247472059254 11.37635239424905 11.204758536817945
Ni 8.519205135734568 10.08255922706567 11.987235332017512
Ni 10.496091767527972 8.921105261579267 12.127301170024127
