24
Energy = -100.38456889 eV
Ni 9.082504337113408 12.493076664937723 8.214980884839726
Ni 10.125702570083323 10.909132174151965 6.643909473548553
Ni 10.296998579755277 12.564315618577702 10.363060390115646
Ni 11.5784865898245 12.292408814716724 8.190348700639998
Ni 8.171373711114937 11.272022014771759 10.160354724326895
Ni 8.032609302585914 10.228946270670521 7.924891292602928
Ni 6.736132039966576 9.305539484739532 9.86100021805044
Ni 7.737000608655195 7.754328634041762 8.28631998504072
Ni 7.878930833212592 7.24846078211701 10.782473544033088
Ni 8.067522872079941 9.497407339278015 11.936885701183613
Ni 8.956583253457842 8.943785101786613 9.785404284815849
Ni 9.857412143408235 8.662803189800481 7.567005728662374
Ni 10.191254772920374 10.301490688937289 11.165749079576353
Ni 8.97866494288007 11.800169885566861 12.372507511958498
Ni 10.181265987547807 10.664552134830478 8.889212803800058
Ni 12.230501682976477 11.005992792941843 10.156623589821274
Ni 12.05167200481014 9.880239878860507 7.809462383133414
Ni 11.429241121436444 11.750668848977627 12.397965371198811
Ni 11.458848982252618 8.686494495499547 9.843363065051522
Ni 11.771188894884704 7.464655482281185 7.9294466833338495
Ni 12.046440165585704 9.394754838832737 12.074381857678073
Ni 10.040988387532309 9.822777461610167 13.387510595611968
Ni 10.02161463064592 7.967213177354924 11.71703601200629
Ni 9.883981585269856 6.895684224717228 9.34702611897023
