28
Energy = -118.1153981 eV
Ni 13.07647157044818 13.62614789001725 9.095751399778392
Ni 13.780477320444982 11.256039422225484 9.740120512608316
Ni 13.53945145809112 8.926906263493898 10.744257159277614
Ni 12.062837017289423 8.134250501696851 12.693016696336784
Ni 11.739213130476934 10.136978142938903 14.045186012460539
Ni 14.834340624863838 10.80050459994604 11.717575493697685
Ni 12.308879458584267 10.520258351140562 11.736854603828734
Ni 8.324111696866982 10.817935021280979 11.955736027923253
Ni 9.508677943384608 11.221743944687992 14.218322263548439
Ni 12.095342500187622 13.511790040296882 12.765698932309377
Ni 10.044916094910652 10.4675360638548 10.367535356389027
Ni 10.110649204376287 9.447613056226933 12.529769497822818
Ni 11.562602872756047 13.703047465815413 7.235940458477957
Ni 12.678978996757843 11.768840015509921 7.750309844278251
Ni 13.811584641321348 12.943821380807426 11.334463098167472
Ni 11.942947830466327 10.00741841123973 9.134820776573676
Ni 13.88573325389377 9.369203036255284 13.256453363323828
Ni 11.148145949865112 8.41389381770534 10.61209731541678
Ni 11.667863379778572 12.346053399920867 10.317461072698658
Ni 10.014213971651271 13.726867979610564 13.941808834549322
Ni 10.191017424162348 14.214753316497703 11.5841480094707
Ni 10.589169611781305 14.118341537098038 9.284178787812241
Ni 11.627374803934837 12.31943496331286 14.75003769225077
Ni 10.448748957629642 11.935057381149381 12.330604243974552
Ni 13.496012490643437 11.716705432641612 13.427517373164571
Ni 9.065590825618852 12.57119203523696 10.339093432057538
Ni 8.306750346931349 13.032553583117254 12.572774120044722
Ni 10.42279831162515 11.877223612132399 8.419630645509258
