21
Energy = -85.67131339 eV
Ni 9.599484273380208 9.189062712839602 13.108134015804811
Ni 7.465828013309214 9.819575177199624 12.156036857739862
Ni 11.546630860284974 10.157775093082757 12.139643438376943
Ni 10.58789440018336 7.354478917021655 9.563979929194335
Ni 7.781511419075075 12.052370112320569 8.635334266441149
Ni 9.442492496476197 12.742449345645285 10.084522911624727
Ni 7.409829864494857 11.929828453683324 11.012323784306036
Ni 11.068057135890477 7.929779437059421 11.780534450147021
Ni 8.893223844886347 8.314730211669959 11.023194761576205
Ni 8.335666330545742 8.078582366994763 6.37998837141319
Ni 9.435839913125978 10.855418347185372 11.446356952251861
Ni 8.472022918866523 10.059041024399882 7.512883249647571
Ni 8.461883112388913 7.98109796735878 8.694181726443437
Ni 12.287044157990007 9.143771595668039 10.151659765337879
Ni 11.933329921244498 10.170211595224451 8.034617387166803
Ni 11.450693588722917 11.420712740729854 10.096053926513088
Ni 12.421305475994565 7.849148835946168 8.202921499540276
Ni 10.0902425858382 11.679963104325433 8.108013248664818
Ni 10.36931909074816 8.499275892047953 7.337663020717249
Ni 10.102491396208743 9.681468591818138 9.401182416720973
Ni 7.701749356064521 10.007052579006317 9.76619132636596
