26
Energy = -108.88879556 eV
Ni 11.276805018427288 12.800104835932897 9.20653633060454
Ni 8.717054049562845 6.822815228410324 8.334408486404216
Ni 10.232202035204752 9.028486979591744 13.366465773262663
Ni 11.013194199395214 12.149836160321202 7.024295049655668
Ni 8.969374444009171 8.804097322256697 7.013103623414249
Ni 11.90675127145955 8.953612844515808 9.001792965202188
Ni 9.763474570548055 11.96835796109299 10.738595845045863
Ni 11.758192737305679 8.713235026744035 11.444273617171891
Ni 8.968575252501509 12.439477212790324 8.426890567375207
Ni 7.442385293321987 10.655121601820545 7.759686731686928
Ni 7.794600909182821 11.064427172748898 10.043542124146732
Ni 12.667291990539626 11.076074620303668 8.236684217376244
Ni 9.182745513470032 11.026317516866825 6.3476243368744125
Ni 6.930715520545477 9.240455375970486 11.142192855309666
Ni 9.598654722707975 9.328593732162924 10.968923955090327
Ni 11.188722098249128 9.740218985297847 6.824027048322399
Ni 10.832073163422729 7.480815309722853 7.496379311473412
Ni 11.855136188587597 10.829194744591021 10.385046054402869
Ni 10.082144905952985 10.478143562921582 8.728342307607704
Ni 10.105953919741644 7.06785450194243 12.105426018740303
Ni 8.172181255811354 8.250133608790854 12.79611308544756
Ni 10.950492598180281 10.959232053403944 12.468491618697712
Ni 8.492904486809007 10.69731733962154 12.39125592605034
Ni 8.118873878273108 8.923102206717422 9.122480405968384
Ni 10.45073857787005 7.361711128370388 9.827808831717764
Ni 8.198891485371599 7.2242166240720636 10.666809801203433
