24
Energy = -100.04715709 eV
Ni 11.239488787490778 8.715671388986996 9.086637176221407
Ni 12.581044016211651 10.225797654104504 7.967649424503678
Ni 11.521447900997622 10.812122570760076 10.105138215125825
Ni 10.64315765485453 6.903420650021732 7.646049208199962
Ni 9.681730003140999 7.147825239828206 9.855660429261333
Ni 9.899770813152609 11.299075478178505 11.786898839751174
Ni 10.637212537667425 8.756128484055022 11.46453632977185
Ni 9.304453528835488 9.894143594571661 10.040751466662524
Ni 9.009467267285252 10.197809425616128 6.180333229096859
Ni 10.942794347460014 8.976736134377477 6.6944969879821965
Ni 10.3408441205349 10.788640991760124 8.040373498239795
Ni 8.451688155092894 6.244801533202263 7.96734293641103
Ni 9.42342133183461 12.235405129597302 9.677095568539766
Ni 8.479241465261474 9.537954033330086 12.28241306999413
Ni 8.755820757859487 7.2536206584818474 11.948366059153537
Ni 6.965978499620147 9.280959004552237 6.830474822550276
Ni 8.932492010396484 7.771243358933938 6.066841627720197
Ni 7.518342270726238 6.1803637297235925 10.148308105067478
Ni 7.438960483747227 8.48581440526314 10.4319029798922
Ni 7.977264181327427 10.96690501452009 8.2410835705985
Ni 8.748132154466962 8.580978745304176 8.152869327018081
Ni 7.47582444636361 11.056451169301384 10.659462092712669
Ni 6.603762466178265 7.579754896361331 8.395760216316846
Ni 6.1433279105711245 9.82404382024408 9.045221930284876
