25
Energy = -104.34817189 eV
Ni 9.780964738804363 9.44376196671779 11.101676508189065
Ni 11.252712311779982 7.655757278383908 11.769286620317752
Ni 8.147846674941317 11.619822364745817 8.98932195415454
Ni 7.6352179620085545 9.460993124364226 10.005770378447039
Ni 8.85617997122348 11.15153445731728 6.733124171015205
Ni 8.474933447844217 7.793118716205287 8.498662653277288
Ni 7.247623808465125 9.788026275258016 7.765467189031609
Ni 10.659751688570855 7.670296998539766 9.51266755940238
Ni 10.533736139877165 7.589657813329418 7.2109988870448705
Ni 10.976885612793183 9.977724484001092 6.820813926077906
Ni 11.402897398371126 10.062612763574704 12.549391038098976
Ni 12.36386473819933 10.818252114162968 8.574779371580425
Ni 8.859175523117088 8.867129916656253 6.350371968332224
Ni 9.52083129391285 13.137475452676828 10.201978485809322
Ni 9.235095419432454 10.592204514961933 13.419296664270732
Ni 10.375454495577578 12.338848041645694 12.374698371694537
Ni 9.600334422526767 8.302474040542162 13.190624011442065
Ni 11.018560615447191 11.382852169419136 10.41734174418582
Ni 8.478341612179324 11.384317863843084 11.32040193553686
Ni 7.659351072477699 9.257777995614285 12.289816180406293
Ni 10.405567827590476 12.058835040715564 8.229151901492259
Ni 12.412092013942848 8.546660651983501 8.150667518998162
Ni 8.72237545415003 7.4399057757449185 10.928219654815866
Ni 9.698717727547221 9.784399740973026 8.680822306783856
Ni 12.12817811772945 9.322250527133452 10.361339088104872
