29
Energy = -123.14491833 eV
Ni 11.15560438445397 13.010372435736981 13.518846737555178
Ni 12.311378616782617 14.489101865982212 11.721984941569044
Ni 11.155620533907525 14.08973288036305 9.647570013149556
Ni 9.09788657078218 13.103639839179925 9.958308465604722
Ni 9.237399981114445 11.016844950442865 10.919897803504794
Ni 7.566382626266733 9.52763939797911 10.277657247815357
Ni 8.718113575062544 12.702717289809097 12.442066704399792
Ni 7.1527365054849055 11.924928875294826 10.600738340514074
Ni 8.620598314355405 11.074477303458833 8.737143951323828
Ni 9.91823319223196 9.176514802444837 9.545742172153792
Ni 7.613087330312619 10.525964693357562 12.521376393534306
Ni 11.155596734712779 11.360796838632808 9.258091363203032
Ni 11.155640083246091 12.458975833200705 11.35402101199428
Ni 9.999832702039013 14.489089116413664 11.722006190849955
Ni 13.593081594305835 12.702701990326714 12.44205905465876
Ni 11.155600134597787 9.92458251924188 11.448606681369517
Ni 13.073782438685067 11.016837300701832 10.919891003734778
Ni 13.164523548497277 8.775256579508834 11.936958419210518
Ni 9.958094254787248 10.843428565593593 13.278909132073636
Ni 9.14673026888664 8.77532457720823 11.936950769469485
Ni 12.353128963631741 10.843485513666783 13.278940581009735
Ni 11.155583985144231 8.67332113285523 13.338878088016218
Ni 11.155589934942919 7.673588837373318 11.06489396216646
Ni 14.698123138537985 10.526000392149843 12.521404442585395
Ni 12.39300787558326 9.176485053451245 9.54575152183733
Ni 14.744772594453034 9.527638548007777 10.27760879945453
Ni 13.690613004466373 11.074484103228853 8.737172000374915
Ni 15.158496912589253 11.924928875294826 10.600729840801868
Ni 13.213261850167715 13.103641539122272 9.958295716036174
