27
Energy = -112.55307837 eV
Ni 10.009492547040054 13.8605638756245 9.973800983078046
Ni 11.447560019344818 13.863418674320751 8.146450083987673
Ni 9.10202557142873 13.579215018966355 7.8319066987202985
Ni 12.211437041219163 13.092676824475298 10.300705447928616
Ni 9.941915653561349 12.367711809524554 11.756278556249956
Ni 12.336991892094263 11.947827187186286 12.27866186825511
Ni 10.643909769901695 11.52444088313947 13.858765507395464
Ni 8.60859079334371 12.007407055835321 9.618357445453785
Ni 10.541749453744929 11.731521195738932 7.631150028814326
Ni 12.79043662383156 11.944583189484234 8.347286429648195
Ni 8.197045318471615 11.464272233755976 7.348019742809553
Ni 13.079906641130608 10.714751534186506 10.358411597020817
Ni 12.90930932270687 11.071223129876657 14.37624386620109
Ni 10.985832125679948 10.028987642180317 11.992321988286632
Ni 9.624164696025316 9.592939098274975 7.515717014894554
Ni 11.440480055714142 9.30230625447469 14.320969272303277
Ni 7.9061168927205445 9.848265573402005 9.080686350836633
Ni 11.878772112775415 9.748307034741444 8.457818239126796
Ni 13.193406074004496 9.648777770648637 12.523115532277965
Ni 9.1731831512342 9.681527761869008 13.490209951506353
Ni 8.722170710837974 10.305677506266855 11.272580768092304
Ni 10.811361694133488 11.235121573318859 9.907986872412653
Ni 10.001497013386462 8.990284957483333 9.714039427667894
Ni 12.134590571174124 8.53547992964053 10.567298874508541
Ni 9.938729394780792 7.54982138443926 14.119182868156523
Ni 11.839224265676188 7.650624109345619 12.750488093111459
Ni 9.737168218429504 8.03726012021266 11.809930947828269
