27
Energy = -114.35658989 eV
Ni 11.02904473327902 11.132542118207118 11.736642885295657
Ni 10.538888898303801 12.54181487116441 9.699167245518892
Ni 10.834022490388884 8.721178770358106 12.193741621173082
Ni 8.81109635088386 12.033257417196923 11.155185359924834
Ni 12.399771603305352 11.23579302912279 9.461661021759829
Ni 8.84518272958781 9.857838181995188 11.913420323689827
Ni 12.495496896166824 9.318614059844915 10.701513515057302
Ni 8.957272249194853 7.397486949402266 11.514631350892174
Ni 10.802814634769042 7.8200024282772445 10.017710975413417
Ni 10.288923956917532 10.101360424326396 9.9132894016903
Ni 10.760154141523635 11.123416170941 7.709371151092781
Ni 8.63164325604914 11.401815700930879 8.895412658524272
Ni 8.18321160176931 8.80492192479943 9.87476178724188
Ni 6.819264922057379 8.585815839998387 11.809899380047083
Ni 8.776460074957074 10.875575619129227 6.568813260146969
Ni 7.030464388138531 9.979752155975142 8.009734517642375
Ni 6.9690827051426965 10.661810169049375 10.481353094602722
Ni 11.932560891925942 9.18810213957068 8.30916145827025
Ni 11.0386668416432 7.149298819517921 7.744126654304322
Ni 9.060900657052228 6.627895167288576 9.062718752523441
Ni 7.926106482313474 8.823488206320084 6.0483801182273025
Ni 7.006905623884346 6.763603780769919 10.254207725318814
Ni 9.420178105035982 8.95231826269105 7.9511600588179645
Ni 5.8092667943685825 8.73212878560158 9.635774244220086
Ni 10.651071882251557 9.158998153935904 6.145221072853585
Ni 9.055336256309877 6.941397129088706 6.642823553812969
Ni 7.196197867120974 7.6134138360480055 7.9822700509139235
