21
Energy = -85.8003193 eV
Ni 10.558846092246409 8.765115408343416 6.391512836441766
Ni 11.454860873202533 7.195902419282262 7.800658736904946
Ni 9.920886482824807 10.757731995180302 7.5174646844979
Ni 11.64902996394182 9.492265703546744 8.573644732482531
Ni 8.964542084393493 6.851670932206848 7.12169828099888
Ni 11.304534864602939 7.625506428897127 10.113544724258423
Ni 10.926357452484822 11.57440044509368 9.488453535415113
Ni 8.300334372567185 9.203451863539849 6.589203054341031
Ni 10.039051382312989 5.925476430864052 9.115637851261074
Ni 9.557496978715365 8.462289356414274 8.577488413532793
Ni 7.751494335095467 6.035489438802428 9.118528015679132
Ni 8.943785844195347 7.498235565773989 10.616555829818108
Ni 8.80020890148569 12.404258757250094 8.835454739143827
Ni 7.150951656033271 8.065517295832702 8.274446031956327
Ni 10.183091616672433 9.612476082433039 10.552861218978789
Ni 9.06378838665652 11.59704930154642 10.984881529658143
Ni 7.9463969668837855 10.280527376059405 8.700520189075958
Ni 6.599839744479754 7.5643001642312395 10.519348590008475
Ni 6.877128047010208 11.667058920856821 10.175155949066147
Ni 7.802051299713586 9.567924974897421 10.940033870959393
Ni 5.858656586636241 9.587620795079568 9.559670762985094
