20
Energy = -80.79490111 eV
Ni 7.875712128409589 8.278046132644684 6.762776473210933
Ni 8.801516657024235 10.36366576969303 7.437065462979884
Ni 10.176986845948887 8.57188870848852 6.787311573015406
Ni 11.042809216975884 10.287799088708441 8.280598865523693
Ni 9.717788241757376 12.113493731348864 8.847982371458157
Ni 9.194729165558652 6.846476024389248 8.159813855020339
Ni 6.470529986511746 9.88814884059935 7.835967326678059
Ni 8.13012621603405 8.748993382980222 9.028096711900139
Ni 11.525915020434923 11.552152048669344 10.208117923101646
Ni 11.13901575304854 7.972918975025377 8.79533700618151
Ni 7.73262198299378 11.100072307537141 9.43862360864231
Ni 10.810043511401071 5.828993113608013 9.623377567959487
Ni 9.344418988919436 7.426126823351255 10.541817996383552
Ni 6.169858312197994 9.596291805178819 10.185799194701637
Ni 12.655046948775729 9.43039091542064 9.892350913191496
Ni 10.40299528728476 9.55754023157384 10.463084477934263
Ni 11.661792295160343 7.551432579980416 10.990991230379459
Ni 9.306083091005654 11.531003582950234 11.136852042646725
Ni 8.238937569356446 9.386841060126764 11.313278344849078
Ni 6.957257923484456 11.321910020009074 11.624942196525366
