26
Energy = -108.39376046 eV
Ni 8.61434189984411 12.393801614420894 9.716210142557053
Ni 10.096578790381793 12.503670799707486 11.508643583503092
Ni 11.00392708520969 12.169835805811845 9.253268528260696
Ni 13.28639211856408 11.311214731993337 9.244043312927355
Ni 9.997769077214633 10.287549785897653 10.35683191514944
Ni 7.441909732294622 10.364916879423703 9.655516434302658
Ni 9.371930822970132 10.841067179834235 8.087795741801681
Ni 7.257750701775295 11.778842362011508 7.818291842878114
Ni 12.126078000915022 11.431374375272839 11.255640312482281
Ni 14.177313904455753 10.359290680834704 11.205597746790712
Ni 11.534023858852867 10.005087800197778 8.385713816734865
Ni 8.267485134931109 11.019486448609838 11.779166989331223
Ni 10.455632079825424 10.45621700329867 12.716535876391294
Ni 8.504529752480273 9.376230698582502 13.44302914272588
Ni 5.585567763483446 10.170151362385063 8.247430943084815
Ni 13.331202624410643 8.980426205683553 9.533326774770849
Ni 12.127855396724414 9.170890921137657 11.587743303086297
Ni 9.903206751993482 8.620842498632001 7.408132575343297
Ni 7.500535316011404 8.770369571854825 11.407075142101862
Ni 9.802325850436338 8.374723465557059 11.734192072448357
Ni 7.651064772200785 9.301216215161686 7.529469409428552
Ni 12.151537310522437 7.793767337833025 7.766091208304179
Ni 11.144213872162782 8.061615807566152 9.804089089130184
Ni 6.421821022788391 8.2887482217088 9.338559241739059
Ni 10.115963916189436 6.572914068478793 8.416149626156104
Ni 8.79439125621691 8.261096970961535 9.466804041426157
