26
Energy = -109.18151715 eV
Ni 12.746327570302267 10.641724481360164 10.679150116200443
Ni 14.464316740625193 11.139880050775812 12.163513719389439
Ni 13.328465509445655 10.433892155553998 8.48494494349024
Ni 14.537421139162893 11.942381749198885 9.923133780134773
Ni 10.916007149165974 9.312359896657092 11.426590414606185
Ni 14.645510000334745 9.480420940941242 10.371818305272946
Ni 12.143025641336513 11.150560623696853 13.02866389166741
Ni 12.18171066746872 12.479904600054923 9.197280190815537
Ni 12.977638419921712 12.961571694029926 11.516954988000055
Ni 10.916027548475956 11.915704123484517 11.13403671062291
Ni 10.915973150316317 13.293432687493958 12.920908213879034
Ni 9.650218633739165 12.479911399824761 9.197285290642915
Ni 10.916020748705806 14.088841082844741 10.584515391502565
Ni 8.854365678755324 12.961530045439199 11.516952438086365
Ni 10.915915352271915 10.343694248075863 9.094910117344014
Ni 9.689021805874022 11.150609922028957 13.028680891092161
Ni 12.447091962587178 8.542303944211728 9.79448727174776
Ni 9.384796540000897 8.542290344671743 9.794539969964942
Ni 9.085685028087227 10.641693032424195 10.67925381269203
Ni 8.503446792337478 10.433950803569475 8.485003591506027
Ni 10.916004599252286 9.218776850917541 13.688260798579133
Ni 13.112660376026703 9.048651118085656 12.323056450378195
Ni 7.294517511728828 11.94243104753099 9.923146529703219
Ni 8.719313973656826 9.048718265813743 12.323035201097138
Ni 7.36768650808077 11.139864751293365 12.163568117548767
Ni 7.186375952339795 9.480445590107216 10.371854004065064
