22
Energy = -90.69267811 eV
Ni 10.425797359428994 9.879328771805952 11.325399465957931
Ni 11.545606073410276 7.942230156906284 10.472368959491575
Ni 10.215388046095638 6.417403602155496 9.323093828566575
Ni 11.844720278912735 7.591268263097284 8.12810963715865
Ni 9.697011845290113 8.537662109640953 8.116840130435692
Ni 11.405895732499319 9.795724605187063 9.068319455259115
Ni 11.410125386758889 9.397695441927429 6.699778877758352
Ni 9.281673335638148 7.683275661384275 11.07343802890726
Ni 8.199178465199763 9.410327682028479 12.28817017849502
Ni 10.007518594222633 11.555206824430398 9.638090237855629
Ni 7.997597551589754 7.145278485838452 9.028913654576154
Ni 9.618119397742062 10.783277941746727 7.490142971542853
Ni 6.9001123295692866 8.048748101863142 10.848252365994485
Ni 6.508723847934387 10.389838384862614 10.792749926188796
Ni 6.6414405769596785 9.205862583221174 8.738128835891967
Ni 8.606183050228491 9.593338018036407 9.918743056315526
Ni 9.376298179234631 6.5688413519776585 7.088199566287531
Ni 7.44493372987564 10.303852403682999 6.8186766102387315
Ni 7.705078732590866 11.463178960216263 8.90209382664571
Ni 9.244390446860264 9.022994937922924 5.866767276724177
Ni 7.462819040777079 7.973190622172184 6.911282692876173
Ni 8.48508434861453 11.550706948284445 11.335461914978344
