21
Energy = -85.82239173 eV
Ni 11.109715964042534 8.75453525256069 7.348656885593023
Ni 12.055633440322918 11.571871383253244 9.735246376509291
Ni 11.39562528740109 11.081120409313716 7.5577465540982525
Ni 9.199201518159555 10.276734875980093 7.376220592767332
Ni 11.747784511372014 9.57595169909582 11.190260559149223
Ni 8.090185069520206 11.571473433061465 10.73437571896795
Ni 5.772867608192675 9.676103462749177 9.31124612911238
Ni 9.159678451783735 6.493507564313826 10.02981603240518
Ni 7.980868870281612 7.824958250664709 11.443420756859014
Ni 10.363950982722933 7.6122616102019744 11.746842846875259
Ni 9.393866131282499 9.70028682676609 11.645774607258597
Ni 10.372639525374835 11.716329975579646 11.292678032033727
Ni 7.157515550496675 9.141868557872135 7.5373739809840625
Ni 9.658326850038593 12.067203726756972 9.017671041162261
Ni 7.387353586167783 11.345817198655723 8.499220501160547
Ni 11.156582010224335 7.73304721235583 9.558468331460178
Ni 7.969450903711081 9.454751300834255 9.76969846683373
Ni 10.319672295459176 9.893559021880522 9.421027238007573
Ni 12.687194094826088 9.46018466399921 8.934726101917958
Ni 7.020115501195017 7.442238286506769 9.257809165358042
Ni 9.117690041798205 7.974311772121717 8.241505384904011
