20
Energy = -81.52236687 eV
Ni 8.790391318465872 9.294262700518786 12.620414233331532
Ni 8.429197065021063 11.069330176553374 11.055816034482264
Ni 11.696637113951299 11.013638705384693 9.6666611496059
Ni 9.741026615890966 8.44488472416136 7.6097942091423265
Ni 9.727353121939379 9.646932845562796 9.574027765103548
Ni 10.592054288110763 10.49710393817507 11.750974356625084
Ni 8.378583024839083 10.35413050279684 7.1847037660603785
Ni 10.652647731336065 10.778293224555803 7.4947131518013315
Ni 9.032867881810997 11.88142030704735 8.874083543717893
Ni 11.073884620592677 12.900323059193742 8.464956247284334
Ni 9.83391312355978 7.838246855320571 11.171717536602861
Ni 7.110373098955469 10.602640758661606 9.124235451547632
Ni 8.725112260383511 7.00623037902733 9.290185694106563
Ni 7.700806541738988 8.801981579532216 10.51721814166822
Ni 11.03713156570966 7.200889343013072 9.247672580554035
Ni 11.122162458398606 8.594302027775692 12.929804781718502
Ni 11.990367538386263 9.079940763636468 8.348645039768389
Ni 11.94955221770772 8.858080285864764 10.702071250943108
Ni 7.383885310459596 8.478620928142755 8.149785432911623
Ni 10.301490209001583 12.576792885243778 10.700035181240159
