23
Energy = -94.08069628 eV
Ni 14.186353954004554 10.037562772248554 10.913696514044263
Ni 7.710519587580433 12.844131631608484 10.778009412480582
Ni 11.991256696157775 9.062782501540347 9.688092365179115
Ni 12.05000648681758 10.884526573853842 11.038899269960009
Ni 7.981331547347411 11.383864329020646 12.740693471734183
Ni 10.065049224610625 13.315868930218501 10.246545544081314
Ni 12.627687700786376 8.806508156627226 12.125955298114219
Ni 13.528059047213755 13.007840462098548 12.195978313403375
Ni 8.687597753478476 11.694014834913993 8.983154714911114
Ni 10.956653990600234 11.281463198262731 8.99338124487845
Ni 10.599328640392423 8.09871924203255 11.367782385921815
Ni 8.70177384809367 9.223990530966232 12.03516241824112
Ni 9.579622143191417 9.451115205375723 9.746691135233409
Ni 15.207385462744101 11.434478435725701 12.499980654320144
Ni 12.991698662418433 10.949054384112406 13.157230215399442
Ni 13.25604530483236 11.019750742669313 8.954547429268318
Ni 11.256770884227624 12.604226258213487 12.44302439879035
Ni 7.4483846716851225 10.486757427702617 10.547218607415273
Ni 9.640506561822551 11.284197361715075 11.169766631785347
Ni 12.380695255386703 12.988919128113704 10.107618745818323
Ni 10.754344318514244 10.08269447388065 12.873622184708037
Ni 14.657538119554259 12.274420047491752 10.335848657568695
Ni 9.13186320076882 13.407873210673577 12.498856884821004
