24
Energy = -99.35013888 eV
Ni 7.2945938402769634 8.290331558292781 10.527924342777316
Ni 13.188530816930793 9.445676332344247 11.464443724041638
Ni 11.125041979841786 10.554255987482176 11.366527083809503
Ni 9.6290539751353 7.545070310848702 10.16284425132719
Ni 10.54045932409472 12.812425950872825 10.803643698716597
Ni 9.522520619271956 9.366927683714481 8.502341886444675
Ni 11.574921114110127 8.83210543999446 9.76080193617886
Ni 12.110784785697176 10.17997579923175 13.429648150120066
Ni 8.68180009584001 11.739938177602728 11.831175984887546
Ni 11.112788874402959 8.32383072045324 12.055219515553384
Ni 13.195517429884577 10.662908317973546 9.445120963885538
Ni 8.772220888884226 11.69603214797828 9.372165694412471
Ni 11.734817097491817 9.641697727440837 7.5608552928222865
Ni 6.962035645311451 10.670424558481695 10.435829432808372
Ni 7.405913769795857 9.758827625856078 12.5343481709459
Ni 9.06505505083778 9.714861294046418 10.752172596812697
Ni 9.689389804795809 9.9688441332047 13.211069652372268
Ni 8.814879476361662 7.901102498593453 12.32188552449544
Ni 12.538655170253268 12.948574980318964 9.551815512728645
Ni 10.763823737120637 12.108229085421865 13.061184334363555
Ni 9.962816750768612 11.241364507283047 7.127742245117536
Ni 12.87026599634803 11.914315924281443 11.651679265814174
Ni 12.417395669449482 11.865002942623406 7.460885298691709
Ni 10.979873248694508 11.203500107382617 9.137486889099593
