28
Energy = -117.73011772 eV
Ni 12.533304927193377 13.794618642223526 9.175941219944747
Ni 8.252354236516185 10.75317748608482 12.343640475763019
Ni 9.245716505645559 8.549575190888838 12.511207194096304
Ni 8.512576768853455 9.906923018175553 14.41691185036498
Ni 11.833472291515038 9.601770019584375 9.613457067932583
Ni 11.552718605094803 15.787343012939182 11.483849745772641
Ni 13.308853443029994 11.5218033090812 9.639383952556463
Ni 10.470659172655639 10.397127564967624 13.333885821225328
Ni 12.692273689193597 7.573987764015161 10.389217996224419
Ni 11.605067954817631 12.461077443391243 13.565073238319112
Ni 10.972524073162498 11.923159707257383 9.518822803392545
Ni 9.83520394849144 10.067431292707449 10.763555763829027
Ni 10.307817614104408 14.26650234677139 12.779785131269152
Ni 14.65570943653895 13.359714811698185 10.164714456198158
Ni 9.214808487992348 12.362483913335105 13.832639862096084
Ni 14.166154329697015 11.804122681373908 11.892824075005729
Ni 13.696142016693694 15.31390599720743 10.936787605867742
Ni 10.342540150796445 14.15763852500074 10.276362817919205
Ni 12.295490956930797 13.401847086801089 11.389508881602362
Ni 9.834130863625594 12.30433328606252 11.577730759774077
Ni 12.961231818914229 10.41187940173986 13.449106854882137
Ni 11.895249465546856 11.066367026362718 11.524663436568114
Ni 11.667967316151906 8.751722560686115 12.144572161556844
Ni 10.353882001445468 7.794782464679915 10.498215715544394
Ni 13.700307355966176 9.591290387633457 11.166781956481977
Ni 12.713989387610482 14.639948365064274 13.250953184978597
Ni 14.876400187573168 13.998785285809454 12.445972917020674
Ni 13.85309424560104 12.639945695800908 14.050255334251581
