25
Energy = -104.37675161 eV
Ni 12.154810260744677 9.978939804835361 7.606384080690189
Ni 12.0284405557604 10.659325970101271 9.959134130709597
Ni 10.651312795610496 11.719907723436497 8.441226808533235
Ni 12.62680589652423 8.483583452293427 9.632088818278376
Ni 10.699580891945795 8.637134603095218 6.188864519288378
Ni 9.769975222321197 11.014727839638912 10.536750569533739
Ni 9.648272371835434 10.63196109588829 6.654802897934921
Ni 10.284977179913344 9.249610423191116 8.649264105479249
Ni 10.622669138673098 7.073177043387904 9.500913441190919
Ni 12.088460789659894 7.54331140894108 7.6390530989055
Ni 10.776282850337692 8.894947293283744 11.009292581900612
Ni 8.399087578518968 11.007118858515197 8.637483639654691
Ni 9.955096789978326 6.664448617438746 7.2558834851466445
Ni 7.2096398276370754 10.382779017741028 6.771765238001354
Ni 8.546299960957892 8.524870534081444 7.175248195110144
Ni 8.960330438282803 7.3073730795979035 11.32014823487514
Ni 8.260334597074264 9.029732753677228 10.015173002751249
Ni 6.109671976433678 10.997885738007705 8.855093642739659
Ni 8.343911681539408 6.915909915596992 8.930241798154235
Ni 9.049839591555884 9.68226875139517 12.316218018993258
Ni 7.408404670371356 10.930939847242504 10.94361385390829
Ni 6.581802087099581 8.738014302775643 8.404129710415413
Ni 6.613711299623946 7.265241036600999 10.374134683315859
Ni 5.615314230859302 9.391322539258942 10.458641000897998
Ni 7.0234035198645435 8.703904553100978 12.152886646714506
