22
Energy = -90.23321284 eV
Ni 9.077458129334438 9.063912214348472 11.85511321481975
Ni 6.7696258693960285 11.620744373947687 10.396054925824783
Ni 10.829473369237709 9.770005181685898 9.88255178105665
Ni 6.781804548711995 9.297974871863257 11.130747204865719
Ni 9.957394325556026 11.38130115652444 8.452656762047804
Ni 7.7738160282515105 7.136660701975899 11.223532242263655
Ni 7.5909456347152675 11.458773768886607 8.1727284835432
Ni 9.510760694606068 5.5370721211141705 10.642475131648279
Ni 5.941586159153896 10.0003624567805 8.962529692672783
Ni 8.50470779709452 10.178421293963387 9.91550308991909
Ni 9.616404547257385 7.765469537222745 10.026832992635144
Ni 9.054349139979548 10.882133870591355 6.397161153391372
Ni 11.511818823802853 7.960855089189758 8.595299938068253
Ni 9.33969718053331 9.011854782561015 7.961811516386581
Ni 7.249596752599894 8.120194730391024 9.109999742017141
Ni 7.788387734288891 5.8914397196919435 9.138149089819011
Ni 10.003878645017716 6.133814598267786 8.396751412620118
Ni 11.209784793866062 9.829112506476623 7.052706551372728
Ni 7.221738226600631 9.387057127006829 7.038174878724766
Ni 10.607585412255354 7.472635142568332 6.533006817482093
Ni 8.239382622774508 7.1230001767885005 7.136498032968125
Ni 8.983910671301054 8.753328666913882 5.536417641774592
