28
Energy = -118.773106 eV
Ni 8.954446865538523 8.928547992930453 5.614723836640998
Ni 10.849902810102272 8.795448083858917 6.934369758633632
Ni 9.771827281492225 10.960307540517647 6.780802840924699
Ni 11.730884266202262 10.748177628566856 8.238368457608589
Ni 12.747204205567309 8.442740048345376 8.265070755986846
Ni 9.018274799391474 7.196159414071243 7.352581843492032
Ni 7.322341773110827 10.496531307802568 6.0849968154309355
Ni 11.155943182404783 6.721339439139558 8.15201686921988
Ni 6.956648605825245 8.206212435191386 6.668735851500143
Ni 12.806182373081043 9.70129862541041 10.195219435774241
Ni 8.57530501869717 9.439485143281779 7.994287676943726
Ni 7.773497427500805 11.82640738146094 7.889298118264647
Ni 9.585011091365653 11.28815224295864 9.237076674436667
Ni 10.624350292846419 9.031474956269316 9.248011199846257
Ni 11.411607774874213 11.519727324450837 10.597229320037068
Ni 11.828371264947906 7.439583188276133 10.350162274673107
Ni 6.3050414672940285 9.918837351725303 8.231849074100754
Ni 7.302311315035888 11.156807274684718 10.072936827392692
Ni 10.917900865895218 9.410752123988264 11.553999303793823
Ni 9.401127082499842 7.0141055807428145 9.713816704768593
Ni 8.579815762304602 9.254991679365048 10.450377822733325
Ni 9.254931466668255 11.171533543226492 11.641498094745979
Ni 7.261886537004277 7.701588586714823 8.98182019349053
Ni 10.05712177699121 7.207662096134168 11.91562989113866
Ni 6.060501060843594 9.078269895937758 10.406069745292852
Ni 9.020450437918592 9.014232138267577 12.856014210435644
Ni 7.127775126290772 10.064160144529481 12.186697679507276
Ni 7.6546884413775 7.449159431941062 11.413190872599477
