22
Energy = -90.78339665 eV
Ni 11.813196834787993 9.847186585055656 11.761617748405232
Ni 11.360006310530629 8.739497125715916 8.012346375489551
Ni 7.057968501333301 7.242864567682683 9.727203902077807
Ni 9.397996281818022 7.332138461810637 8.544242172320669
Ni 9.599202469863533 9.149120666651323 11.958831643538243
Ni 9.239950823640232 9.527721298763147 7.430177486000268
Ni 12.826839200971445 9.548040825111721 9.735563832281207
Ni 10.98297495308486 8.06513337893041 10.275429333890692
Ni 9.953091041377624 11.758068947872383 7.808444734492997
Ni 12.194578663421625 11.034466463479854 8.08484331706948
Ni 11.027575765053406 10.3111949203738 6.229909178982465
Ni 8.028871443055067 10.835532253122397 11.190315568711165
Ni 9.424397596424242 12.405951725853145 10.016515313740587
Ni 8.58508912224303 9.003943299190773 9.813486147622514
Ni 11.92998916361786 11.857935580341241 10.367045807566619
Ni 10.173199886638816 11.460996104407917 11.998548164674817
Ni 7.336558138432492 8.50496842365058 11.81764362789462
Ni 7.1573857190926455 8.747153898417094 7.949209936895656
Ni 6.306125565802974 9.613049280113396 9.9760471164783
Ni 9.019714028426485 7.000200605338807 11.0164988474615
Ni 7.893157961905112 11.004688036867872 8.792645251057166
Ni 10.48811537337357 10.316145093736182 9.611464572765968
