23
Energy = -94.96420591 eV
Ni 11.490204818900665 7.6378773589036415 9.725472488552509
Ni 12.506499399693313 9.342574300585024 8.439226437434854
Ni 13.033304782311003 9.11931126699462 10.759019631413825
Ni 9.157388605739383 8.142582899355755 10.28616344833951
Ni 10.187369244078626 8.9208077426103 8.299300503818555
Ni 12.944597924112715 11.264591108393885 9.745532372859232
Ni 10.956344323596484 8.59577270891325 11.761040127140786
Ni 11.184026071551754 9.883410715522647 6.464621124999349
Ni 11.131378986327471 11.263753770734594 8.306817601565971
Ni 12.66810958573759 9.253102247658669 13.159454325093296
Ni 11.89144002461435 10.924017544586459 11.77599583402436
Ni 10.002919944538759 10.34261124081817 10.301868090932885
Ni 9.068135375126198 10.733610857421175 7.367000634914743
Ni 7.825826993119708 9.053971414067995 8.521555140404573
Ni 10.915772166019963 12.511894486645526 10.311469861387854
Ni 9.330722569563719 12.79516124876884 8.547180916037838
Ni 8.720328477686245 8.672718667640966 12.571407026069533
Ni 10.399471567617805 10.155581508343484 13.389005714965307
Ni 10.223224319297291 12.40542781971153 12.593841166616336
Ni 7.99543595928405 11.151411696081738 9.528487963475406
Ni 8.717595371069164 12.97730077075757 10.837454394648722
Ni 8.538881853954235 10.917865331570832 11.978191224340605
Ni 7.2467206194964175 9.317900565795725 10.816741712587993
