22
Energy = -90.6127464 eV
Ni 12.298507599073204 11.435548572430788 10.31396593380304
Ni 10.873127299538828 10.827632381070892 8.239450393669289
Ni 10.368030505289823 8.046471655613217 10.755616468119031
Ni 8.81459507138215 10.377695080073746 7.079088309552532
Ni 9.195300092437103 9.655842731255989 12.297826605890819
Ni 11.741538390754295 9.578390645890869 11.990012817596162
Ni 10.212846129685692 10.464756454717053 10.443096085102058
Ni 9.045688771756065 6.911585864270904 9.05796474803746
Ni 10.329424255918 12.730220111640266 10.021915839201665
Ni 7.883699588077451 8.181135721299453 7.245888298147944
Ni 12.1192501785546 9.203732182360135 9.675380424117046
Ni 8.102278300144015 7.857217573380429 11.185800544059145
Ni 6.792208169009806 10.108606598810413 8.339756702529126
Ni 8.747698441346778 9.169288591266156 9.230541556029555
Ni 8.550931481209021 11.868685730919175 11.46915271724554
Ni 8.52278232613658 11.545935902055078 9.109149908494446
Ni 12.396080709449357 9.144524231965534 7.428135909626239
Ni 7.256106307153651 10.030354972492978 10.760485636332952
Ni 10.207699749526592 8.54283181160985 7.526098493398633
Ni 6.7196970387719706 7.945355300555494 9.323746640870604
Ni 11.462468181869188 7.15134567251628 8.812695207385731
Ni 10.77998794985571 11.717106794077955 12.274430258527245
