29
Energy = -122.96013622 eV
Ni 9.484450767906793 5.939220251961278 9.323872452347343
Ni 11.15932332675545 6.761655816359703 7.838418535215907
Ni 9.800106431868214 6.889059551463692 11.482089800658432
Ni 10.975877614978286 8.000671669936818 9.74591320004331
Ni 12.0764800802835 9.149442950549135 7.8910619796939585
Ni 10.663856994689631 8.05813736011517 6.013460075298988
Ni 10.589683668019381 9.006486491659695 11.870447681017303
Ni 11.868327015734664 10.204952827521964 10.074117427543653
Ni 7.12580703919473 6.31314219065826 8.671860333418653
Ni 8.866357271838522 7.061059219797411 7.22781584412304
Ni 8.46260495604555 9.187174279589291 6.048094308692989
Ni 8.56375733737822 8.024956698769572 9.45053223289492
Ni 9.830932402469424 9.223284873086582 7.873234692680015
Ni 7.560924881984983 6.509153295767416 10.930746409759308
Ni 10.754143622066577 10.373796265288082 6.057835618162843
Ni 9.519230654176448 10.164748053426697 10.09149928863883
Ni 6.40267993339823 8.509980360497813 9.828076230085175
Ni 11.43791796528991 11.128508597541341 12.248367159365536
Ni 8.806023166684975 11.413314275368723 6.817696992343425
Ni 7.578608878136133 10.027905003659976 8.30766186556268
Ni 6.746849420311533 8.143065085745476 7.326479557900978
Ni 10.80124945624266 11.340378847986209 8.25651978476989
Ni 8.176829563172564 8.7047345721048 11.678972164549794
Ni 8.585151850869389 12.064038538576673 9.003697740940256
Ni 9.07879989002771 10.831802565287534 12.304701042669926
Ni 7.276424028069823 10.64806676350028 10.5971676529017
Ni 10.500469226303679 12.269122361054741 10.451143277859128
Ni 8.30117752237551 12.730897550606858 11.205528812529986
Ni 10.067927040552291 12.962243887317022 12.69650163793366
