25
Energy = -104.74072655 eV
Ni 10.560355138138148 9.34921443173115 6.833310062207902
Ni 8.744873145725265 10.733683297741512 7.1759502797041055
Ni 8.633011072757627 8.494521210120222 7.716144124999576
Ni 12.410400125100919 9.548659777018822 8.120925361693462
Ni 10.989933242848933 11.528233840224987 7.886153871226175
Ni 8.807895089949998 12.298134772616582 8.82589925277559
Ni 10.773339862349971 7.876350807014961 8.821577151892104
Ni 12.551185448020126 11.157836257358547 9.77470958971426
Ni 7.765256428017616 10.10352968688213 9.367309490280057
Ni 10.734034429418973 12.508373940637885 10.08293082951946
Ni 12.400389719916994 8.88171626516691 10.336838994177944
Ni 8.568663595752136 7.85016350041653 9.882361725341944
Ni 8.950177874590727 13.8773166852505 10.6414875842887
Ni 10.064405624089794 9.994319901881207 9.328803188305617
Ni 8.669111208662478 11.60841044614258 11.031283998662179
Ni 10.43152139364256 8.00482690425829 11.238903454612094
Ni 8.570116860724383 9.39715920023584 11.598447770235438
Ni 10.874125675378831 10.432972810928664 11.538402195782178
Ni 12.38951543102784 12.512475914071924 11.76241471547787
Ni 13.372396465596227 10.467503020677354 11.909740372746398
Ni 10.187368614783196 12.851366542329705 12.388147835547176
Ni 12.176508955736143 8.703357590639415 12.703195918744727
Ni 10.039611765747335 8.984211161576445 13.43214129890037
Ni 9.066638770460093 11.038769530631868 13.28997803923136
Ni 11.528608393802955 11.056336836685249 13.572387226171978
