22
Energy = -91.13442966 eV
Ni 10.291189305516115 12.39131934535213 10.606948682203987
Ni 11.623579357050282 10.445359561159933 7.226186901739291
Ni 12.369182643310255 11.42503230021465 9.472680519575306
Ni 10.250473616219207 10.86756189132956 8.955550880123095
Ni 9.098346742500095 10.60654013071112 6.915796616780446
Ni 8.173085046494906 11.93701973620441 9.21613990454598
Ni 6.714039530978813 10.637179496551388 7.657023024176056
Ni 7.829368303368078 8.526603889183734 6.931521003517577
Ni 6.546823363913572 10.391658824365924 10.13717979777765
Ni 6.350051979058212 8.344887489653681 8.846911588794548
Ni 8.833689890735936 10.569181049522244 11.078902379792476
Ni 10.181806131615215 8.61377512632991 7.70640620956253
Ni 8.254552767198332 9.574842155047575 8.893315536855754
Ni 11.26792576756281 10.268679426521885 11.228716333790489
Ni 12.078338882643175 9.091378457756038 9.189922784819688
Ni 9.950756444355878 8.6459014681509 10.11964549957881
Ni 10.975612116490037 6.844877855148818 9.185217341427933
Ni 11.725301252818134 7.85886297883084 11.296712020352192
Ni 9.687033159101027 8.702093408663645 12.381566543344208
Ni 8.531688230487283 7.1703047167998015 8.865949308592084
Ni 7.706338076113195 8.36615853738306 10.920019159304712
Ni 9.488647392469716 6.648612155118989 11.095517963345433
