20
Energy = -81.40625369 eV
Ni 11.205194593912685 11.081542538831236 7.839049555619523
Ni 8.68046662214904 11.574458718109772 10.833328698921944
Ni 11.54295256889248 9.50011604125029 12.10959378432445
Ni 7.7748999469250615 7.94374311748083 7.888521968176856
Ni 10.182317445638393 10.055876809343085 10.002719024901221
Ni 12.400340005008921 10.393329470413894 9.927197104030702
Ni 9.495426287613201 8.367010565735518 11.53606882279807
Ni 9.640513408030905 7.732491796755288 9.284663028825635
Ni 7.533317620111647 9.619686784410945 11.73723746865168
Ni 7.55076135667228 7.6441920081548504 10.34036377829048
Ni 9.458994534001679 9.549833617722362 7.525753079917873
Ni 11.037563514813767 11.674330600436363 11.663378565335528
Ni 11.572907334017502 8.789361351275849 8.215450415812501
Ni 9.449707334072018 10.391097930746461 12.78354290142088
Ni 7.27696556587131 10.244711950147728 7.244846666749917
Ni 9.996442890621985 7.370354391223694 7.041924499916714
Ni 7.798460069938264 9.764368389418603 9.447170417641846
Ni 10.652296544351586 12.4369416082164 9.583352471331631
Ni 8.838947479734927 11.61612868514555 8.37881700377318
Ni 11.68218010007968 8.021078847637394 10.387675966016413
