28
Energy = -118.73337864 eV
Ni 7.763065617862185 9.319237097563152 4.328757309160001
Ni 9.653797925699086 9.504854180289284 5.74839172348766
Ni 9.157196370052558 7.510633827393458 4.4576448575861685
Ni 7.516395321057237 10.137979369108333 6.572124925571507
Ni 6.688783465445329 6.313417003554145 5.207500659782887
Ni 5.903144329074004 8.675799915450627 5.571749943403776
Ni 8.941093582703541 5.679982043789869 5.89573249825275
Ni 7.888893934780058 7.783057051148892 6.418174610117584
Ni 5.431447003680573 7.020344804828269 7.152565341547079
Ni 10.528707361376904 7.416087131294311 6.448597750610992
Ni 11.34226980563504 9.514018407837352 7.428571678484945
Ni 9.495821056113412 10.93756741699455 7.6911164424163205
Ni 9.340396648439999 6.269219468417334 8.156170066901185
Ni 7.218750106378075 5.537779854069797 7.503826729776324
Ni 4.541484183405706 7.7681142571349815 9.232462777778357
Ni 7.095394365748236 7.702473789303851 8.80221971011544
Ni 11.292756984740496 7.608465617551375 8.73932056821209
Ni 5.5461941172703515 5.687471117634117 9.152151092932716
Ni 5.700043115462545 9.34577885841741 7.855679964609036
Ni 9.994597806930308 9.767652839273577 9.885110883083373
Ni 9.265762052667437 8.627658028797148 8.130410357112819
Ni 7.675236634193983 10.229183239648794 8.980704677185587
Ni 7.79937890892163 5.756688983529062 9.893561939452365
Ni 9.64315295041796 7.259419829477577 10.29633271655578
Ni 5.813867329800023 9.465116589365762 10.207879434457254
Ni 6.139442642170053 7.205336046552149 10.950623984989349
Ni 8.003013670507137 8.7560713056815 10.791133279934419
Ni 8.136964766573241 6.717643982999022 12.018536133588462
