25
Energy = -104.56274378 eV
Ni 11.324192584777338 9.911861451636854 11.873616164949041
Ni 9.41754184135396 9.519138565342754 13.393812870460952
Ni 12.638875077322588 10.413040079613493 9.921533666616856
Ni 11.008885763960018 11.969668785252034 10.632171725825915
Ni 9.137102065593533 10.792497090680179 11.50992065048004
Ni 11.721846785925342 8.124504232944352 10.219555065377739
Ni 9.589598127062422 8.384768802534843 11.415745518554369
Ni 11.115645575626804 11.563759920589357 8.233089016372839
Ni 10.381453217157166 9.884347414452746 9.562063252665164
Ni 7.427598243146114 9.218547499722021 11.98622550352693
Ni 11.995803392782076 9.188975833569907 8.00008738261248
Ni 8.907493615546207 11.895024014440088 9.492440550777378
Ni 6.950360191565433 11.115065436121215 10.73428715878608
Ni 11.385176273262134 6.94808422806682 8.146515968671883
Ni 10.739079350463415 10.153853454477293 6.298657030038873
Ni 9.567434580739715 7.117944659340162 9.531095423629274
Ni 11.384283606783596 7.948032309096894 6.068739668598194
Ni 8.908609345579451 10.712752891286096 7.515975287207548
Ni 6.791822995157732 11.097130385874804 8.47209625588574
Ni 8.17318355432111 9.314624703594047 9.463747571234602
Ni 9.57599841999869 8.41280159258613 7.5265774547313615
Ni 6.032867071816409 9.004640303863773 9.8483416513192
Ni 7.542757933214297 7.264910915377659 10.77025307976708
Ni 7.480932613521252 7.25519656474461 8.467140648375448
Ni 7.165326457269872 9.152697548739134 7.280180117482433
