26
Energy = -108.75540928 eV
Ni 12.09952690792614 8.745211871454156 10.371378556048203
Ni 10.835989797005244 7.415102258670103 11.821488306573231
Ni 10.336093236877389 8.410002940615552 8.958151857328016
Ni 11.173683219931897 6.413452007199548 9.757761624422347
Ni 11.747671052555038 7.022890516349958 7.595480880221012
Ni 10.900023381283757 10.654338049711674 9.568258132146823
Ni 12.257686731263881 9.299668593386402 8.005999937037215
Ni 8.940709787607057 7.0400594882459755 10.4200296150771
Ni 8.759947142355909 8.076458486706477 12.521617606023149
Ni 10.90819581997277 10.993314790720817 7.114275219818341
Ni 10.294348249048467 8.631508954309625 6.638114491489416
Ni 10.365204263425847 9.777538324496625 11.738488148787233
Ni 9.350143839050277 6.550898729005714 8.036340241981616
Ni 8.97517876201431 10.175641591104874 7.990929584680825
Ni 8.653223079902128 9.423988319924472 10.253519597352222
Ni 9.764492759030334 12.472500498597924 8.596900651375963
Ni 7.988245243446117 8.24637362297695 7.133935937022481
Ni 8.077532201672666 10.259681697566485 12.429782736446688
Ni 7.15127118733197 7.091730363919318 8.9714889497985
Ni 8.982457032095246 11.665100732065403 10.69303906652692
Ni 7.027287362877762 10.388016470389296 6.690610769587647
Ni 6.740233565356021 9.392514444496216 8.814587717041489
Ni 8.736677263136018 12.006201580688904 6.556600688050441
Ni 6.853591707785699 8.344886482636419 11.042214325344787
Ni 6.675437982345695 10.823104606648453 10.67453026764964
Ni 7.492988626293038 11.76765477970276 8.692315293758364
