22
Energy = -89.43237552 eV
Ni 7.859647062179288 8.440629641181873 8.734260240416452
Ni 7.130449632185781 6.402138648003473 9.33779995716478
Ni 11.891268876293564 10.115116242333587 8.377310390640364
Ni 8.135302390275282 7.768367617689841 11.143885141248601
Ni 5.907571551423744 7.364365361368748 11.194180331200716
Ni 9.411395294806024 9.51618849259139 10.181876588238964
Ni 6.7712298027938145 9.626472989401726 10.288313979811754
Ni 8.184468563574619 10.768904422911886 8.58699001161061
Ni 11.761309298292733 12.309471562133432 7.604956931286239
Ni 11.600367015139208 9.987467386399569 10.788286732726077
Ni 10.115579407751088 8.654182896091054 7.872984166602125
Ni 12.537491985755272 11.89231731849835 9.783025172687914
Ni 11.697841286884827 8.041131764397843 9.501307311538978
Ni 10.307862460002783 11.528744267421404 9.28090272439896
Ni 6.179200003333249 9.837459597081974 7.767028581957129
Ni 6.449074000403261 7.58062216503032 7.03208100141446
Ni 9.992477571869692 10.835138361017238 7.013854266166613
Ni 8.630767700958794 6.794445337895573 7.336514338640546
Ni 10.49021063382746 7.939385947004554 11.503216318748661
Ni 8.208013548525622 9.311802518571385 6.577875377153367
Ni 5.419679183839615 8.091255036320637 9.098200284154387
Ni 9.609817865628928 6.95467092034435 9.48905354439416
