23
Energy = -95.52612599 eV
Ni 10.249835774455114 12.308158609874921 11.66345022301644
Ni 10.315770582513947 6.997355047319879 9.092969296878623
Ni 12.26985713604825 11.352491366375645 8.412909444107553
Ni 10.420923506370238 11.112878285640381 9.663405208098627
Ni 8.420147810368594 11.064772558615072 8.407320951084678
Ni 13.045329564270673 9.781098351155832 10.135828338985688
Ni 10.368411133859498 10.433046334484693 7.14892392501781
Ni 10.140704725537944 12.633263945239769 7.771436214709369
Ni 9.300676047248658 10.501080253823794 12.912327043807542
Ni 8.030933302003085 7.27464135055815 9.750355546715179
Ni 7.9726442693737924 8.746974627647992 11.85179041403463
Ni 9.661044125882137 8.971234492276068 10.38098659022537
Ni 11.199336039238606 13.383724444643384 9.682427663070772
Ni 8.316209897286024 11.013748149354223 10.895541346185553
Ni 9.622403738196141 6.766403341545779 11.345498958996242
Ni 10.242532760656651 8.402611810019275 12.816458763472118
Ni 11.351028544828527 10.159095026713324 11.762954840836203
Ni 7.21991765392225 9.424000410573385 9.608274290428774
Ni 8.86889527334263 13.007801984866232 9.763342925996307
Ni 9.00010867357133 8.775176305583583 8.121316084015378
Ni 11.41471185248657 9.04189726944717 8.687257433468215
Ni 12.545170535986246 11.923127160610097 10.822753534275526
Ni 11.705070638687621 7.946822850581223 10.870026917473822
