26
Energy = -107.95211552 eV
Ni 11.524233707939635 10.318214595294945 9.120555703617217
Ni 12.673372463287217 8.244627649245768 9.25517606752433
Ni 11.37400989389069 8.90825732069537 11.076857584103939
Ni 8.747182721560655 10.70670866981516 9.77221868445958
Ni 12.00044506587402 8.934671669947312 7.166867079264216
Ni 10.666042085706763 11.342661692734787 10.999876216808508
Ni 10.068586870615485 10.157522043665454 7.295522967602914
Ni 10.047468069879663 12.163001995777739 8.57092393614503
Ni 10.059870696449842 8.396201371562872 9.120019524466159
Ni 9.052435620232007 13.024601420136012 10.595905149402043
Ni 11.12341717018953 6.585780903732875 10.016530713080215
Ni 11.910829223667951 6.674389488165418 7.719605999731791
Ni 8.473550059074356 11.646711056396247 12.346910630166379
Ni 9.89658751759512 5.67614493589922 8.138692297075366
Ni 7.6590345204906365 12.859506068589535 8.782868580024243
Ni 6.7890218477801145 12.31227466128541 10.823934886504171
Ni 9.274623896738087 9.592042175784636 11.803345373527435
Ni 9.872943368727297 7.765973007595366 6.91582880924024
Ni 8.105778281646618 11.348689691199212 7.178271544814058
Ni 8.724007806984348 6.054831211513942 10.102368861600665
Ni 6.974631175213936 10.072665419782142 11.39586812480278
Ni 9.63466747785291 7.38522756517753 11.682062468443696
Ni 7.865041138578531 8.30547005946447 10.181162835626969
Ni 6.590367492750567 10.608945653375267 9.061520725234104
Ni 8.050333264653123 9.16476637952399 7.896872523389001
Ni 7.948814752620953 6.926009495251643 8.138765768056249
