23
Energy = -94.71034387 eV
Ni 8.170893329808592 11.777208113901855 10.504407894704748
Ni 9.934871375440403 10.524819797886062 11.511880893985838
Ni 9.766641788255885 10.037810193236373 9.277660699091209
Ni 11.701247322061796 9.07486667741202 10.816619747042573
Ni 5.935009792553192 10.961306652842664 10.775570933520335
Ni 9.021563237643598 11.963898147989902 8.283902747390137
Ni 10.58398990620757 10.832526168035987 6.871863106423127
Ni 11.916820087076013 9.75053238350383 8.536134105436652
Ni 7.205045470340079 10.485102808962209 8.845412374106385
Ni 9.598618052625916 8.166395166288817 11.129062851670241
Ni 7.807972773450219 9.536373542117452 10.96984426304502
Ni 11.470589126322057 6.740947962774293 11.267259632124633
Ni 8.42448356843358 10.008530302051872 7.002881123964234
Ni 10.897495855655915 7.65759586369186 9.167331792939805
Ni 10.335317569938322 8.54815250686518 7.165408973641371
Ni 9.691639199615206 9.490017447088636 5.091959245293769
Ni 8.316281396581749 8.086030863239234 8.807168643007369
Ni 5.957050071546793 8.78271188555289 9.798095114626738
Ni 7.44750281163028 7.166033553152956 10.721974304026565
Ni 9.48355511117125 6.087853900185334 10.110725054048714
Ni 6.513898956100457 8.623359242477694 7.483315623399047
Ni 8.359074007397336 7.842999592889594 6.186491647271759
Ni 9.427094801931315 6.384524530101806 7.740409836798294
