20
Energy = -81.57670337 eV
Ni 9.88881737354637 7.757685556245974 7.8720416731615925
Ni 11.691549480703111 9.220644416108213 7.619509943245494
Ni 9.580150973110802 10.01561016302949 6.948425049038195
Ni 8.568289366071795 9.410641375034357 9.008760222911166
Ni 12.55139222048849 9.45921458102852 9.784614863571885
Ni 7.801832209989287 8.310946534743385 6.994439051854924
Ni 11.952790250071832 7.264042858674427 8.906472044995162
Ni 7.2621343036663015 10.596932770550819 7.338412188646435
Ni 10.645537947662703 10.679028074687292 9.110391685593349
Ni 6.202743877869403 8.966398872374773 8.618614687860104
Ni 8.863851799706001 11.919416751901002 8.31434083433987
Ni 6.812364115984763 8.740024981556274 10.826014589539254
Ni 8.794733072804336 9.791739488112265 11.339284159400304
Ni 11.065039538105392 10.463250959632616 11.391096777449853
Ni 10.510498694335539 8.436886289268312 10.298771625870366
Ni 7.782372275588408 7.226673139329893 9.195057837957814
Ni 9.900567046538162 6.272883043902856 9.682617916104975
Ni 9.31225291070028 11.920611539768043 10.606470647361673
Ni 7.185499589758843 10.984980294541606 9.844217405383345
Ni 8.66758549879323 7.396529233446588 11.365582040164048
