22
Energy = -90.62653773 eV
Ni 11.275146574177766 11.01549285077455 13.645241729392493
Ni 11.943223823863516 14.554247706629129 11.955247500058226
Ni 10.93234776760559 9.19117051845562 10.08764904244462
Ni 10.035544178732108 9.32449284720219 12.443972463006455
Ni 8.037371591552882 10.315303347227465 11.434689035901721
Ni 12.976766913894648 13.50507932274955 10.015937604620875
Ni 10.267472655163582 13.086452463161644 12.961986883289477
Ni 15.74719744647529 11.643022868473011 12.267035788269347
Ni 10.617812671532196 13.340695158490187 10.336899677953623
Ni 12.436746495939067 13.175266732430053 13.916281591376183
Ni 10.113425225275188 11.126461019797144 11.050445787716935
Ni 12.291543684039983 9.787635283783388 11.863168823847763
Ni 13.677158434741413 11.247296717216381 13.27726983000236
Ni 12.126222113895903 12.19941936210223 11.78262642744506
Ni 13.310783403241887 9.370257867930679 9.811067281968988
Ni 11.955545250356469 11.332175335945385 9.583157089665466
Ni 8.900382069359766 11.22610631470643 13.343597462987793
Ni 14.078243604111512 11.480688309302902 10.626360243028108
Ni 14.131080218287092 13.390347148761085 12.1788871290257
Ni 9.547112703844427 14.883360915769394 11.695160620028755
Ni 8.499129543609323 12.74628804453814 11.45228766361669
Ni 14.65090563030035 9.60990201458273 11.822192624410993
