25
Energy = -104.27544784 eV
Ni 11.22099736132897 10.258755458412594 12.049962429063726
Ni 9.230513343772138 9.128679103282803 11.660087016076675
Ni 11.873031672957605 11.460702602890207 10.19775171416341
Ni 9.587540833744 11.333490160048873 10.72798161369788
Ni 7.419780501694647 10.605199140518927 11.115187812505551
Ni 7.162112889768569 8.23218020573245 10.709559149219642
Ni 9.429269164945106 7.368425484846629 10.108466120288528
Ni 10.993082465584722 9.321186843968558 9.893257523678821
Ni 7.525557538026127 6.119299633172343 9.69771455135932
Ni 8.607828378628309 9.504393879701551 9.347654661914426
Ni 10.279805942564723 11.305452912973772 8.507943143277231
Ni 6.046640470615628 9.9503625514021 9.404566226154323
Ni 11.229605662295963 7.323253222935977 8.661093785894723
Ni 7.858131600457795 11.56657241935412 8.8336938227935
Ni 10.267871331850715 9.197221165574105 7.576698909321663
Ni 9.457145943489026 5.702197173880531 8.236728456399002
Ni 8.914045450347308 10.93093352748144 6.675644134041995
Ni 8.356706439477916 7.640572606399785 7.863633849492951
Ni 6.12675644103005 7.738561396023754 8.600054672547902
Ni 10.446563616423306 7.131655966927579 6.503486464119232
Ni 6.909392222383739 5.694193527423101 7.5324452021832595
Ni 7.119463046468124 9.66132731589743 7.377731388848561
Ni 8.691528248362564 8.697348651916526 5.79731066088492
Ni 8.419963972054937 6.269233931147445 5.874160154071817
Ni 6.5342759711676335 7.65032869994383 6.226561733644255
