28
Energy = -118.55642279 eV
Ni 10.311692669759998 12.980202297742096 13.467665908380944
Ni 8.889459587372672 9.449486812325853 12.72128881567221
Ni 13.070268151438336 12.07651562693581 9.327528749779573
Ni 12.434822491511703 12.192675674093259 14.3232347085355
Ni 14.294939228916608 10.796098108895126 11.03266813478156
Ni 12.891369010947189 10.296302907600223 12.94111099882557
Ni 12.785918381230992 14.259451089504212 10.33431969921238
Ni 8.980615239498622 11.687665178792168 9.48686510349313
Ni 10.105022433201404 11.3311019771323 11.786593730757387
Ni 9.535653119508085 9.575913021823048 10.347371771300873
Ni 13.320809473239576 8.628719274797463 11.218742449337554
Ni 11.086815647013195 8.880218053844386 12.159456024377112
Ni 11.049850004315587 10.69185351511087 8.691306860344147
Ni 12.15551282863946 14.41739015032536 13.533763314816099
Ni 14.46992798088512 12.187849863753877 12.963927955081083
Ni 13.35134846564466 9.719095872801812 9.021343841865093
Ni 10.922057650718559 12.791910158336535 9.978841079442384
Ni 7.736043660925091 10.94008386560264 11.307002703557231
Ni 12.403101293381214 12.614086436888082 11.957250325750415
Ni 8.424186746477634 11.648306358439376 13.457520681125228
Ni 11.980954327253093 10.533902551380482 10.760070298651735
Ni 10.706944962754765 10.589940381477652 13.886826169549261
Ni 11.472757078007456 8.455689946643966 9.737874803696995
Ni 8.812238004619454 13.153978670766802 11.45286276105346
Ni 14.109197458851757 13.809793499885407 14.66941188272238
Ni 14.149711992710195 14.456677477061122 12.400098203906923
Ni 10.770349529142976 14.460283264716844 11.646061149506556
Ni 14.75122916931018 13.025452872570456 10.696141553752131
