23
Energy = -95.49656722 eV
Ni 10.1696513876365 10.460230782392014 13.917417112781633
Ni 8.089543257246852 9.820634312403463 13.168950331819929
Ni 10.796058276147075 11.846592427384845 7.616020030878532
Ni 9.245175292750552 12.92064125050385 11.005298317197521
Ni 9.097242575873103 11.458248101306019 9.204164509571438
Ni 11.254524276486197 12.520474344126386 9.949781448759907
Ni 7.720084091237132 8.597660216391894 11.266994048010092
Ni 11.156760641598643 10.26749736373397 9.340256810144055
Ni 9.657558986697678 9.636752477453767 7.69523530189654
Ni 9.938631331380307 8.455634356059624 12.351725569587941
Ni 9.948013566757519 10.544649019781842 11.437704267329547
Ni 11.98692845842814 9.831711166948503 12.762860366773069
Ni 8.76816037699442 12.048281589523544 13.03309677350406
Ni 12.050222614664975 9.915194231467526 7.13784266240859
Ni 7.690957939550856 10.977044347461762 11.074156568277324
Ni 11.398029009834623 8.061300299614308 8.48372766977016
Ni 12.784090012737945 10.939198103496524 10.883104297811647
Ni 7.689823040691939 9.58908694212339 9.112401337160023
Ni 11.822259055010752 8.605778993094406 10.830531458298836
Ni 13.001139784875681 11.656255957767266 8.572136883041491
Ni 9.583546903274199 8.522866588998431 9.9280037126881
Ni 11.23245277379695 12.181935266033003 12.364845996996086
Ni 13.320220069887304 9.357472791534402 9.105360842105938
