25
Energy = -104.214549 eV
Ni 10.426730995031294 8.719815231099451 10.335698549737154
Ni 12.072175626987894 8.400536577241692 8.78541108516043
Ni 8.993370444860725 8.630810097830329 12.25085294065762
Ni 8.925430004379075 11.11174885347025 6.522541934409808
Ni 9.61769288219055 7.631633526077681 8.46999160784348
Ni 6.2560142011580115 10.058361931880363 9.530426442614447
Ni 10.735552119937246 7.069509505589933 12.2004564540803
Ni 9.156465314305095 10.635968607062216 8.916463955676653
Ni 8.958936422762754 6.7525360717879375 10.676072619749284
Ni 7.987369283782021 9.151134662440933 7.618048498195079
Ni 9.497306504605978 10.783732725807345 11.371121547479088
Ni 10.511840966262417 9.54766165690959 7.394391911693613
Ni 10.78162800798272 11.996071894974182 7.635678336659136
Ni 13.162359173352934 9.946988023135818 10.742159729529765
Ni 10.090467588794835 12.577496236798991 9.925685474705983
Ni 12.629309635094138 7.760679763596618 11.046219232488822
Ni 8.046786831665475 8.776145776387661 10.018027848616283
Ni 11.514516242927746 10.677498609759832 9.379623930821456
Ni 7.700171203034114 11.912124271832319 10.11411711124578
Ni 7.024258662064699 11.348461210282922 7.822798122018302
Ni 11.13901025653065 6.429518997091519 9.876325274181177
Ni 11.689053644183737 11.675113561012925 11.46773941932048
Ni 11.349504599467373 9.453139891000431 12.282434826331022
Ni 8.67464523604238 12.957281139119294 8.105005346407422
Ni 7.238438901850321 10.17506592706352 11.691742549631748
