29
Energy = -123.0615213 eV
Ni 13.329840997641918 9.713936003627769 11.565068027447245
Ni 11.96651241473274 9.672096282125048 13.479970697880432
Ni 12.25432651813623 8.729141228955388 9.649790255579834
Ni 12.0888264934073 7.736528579129053 11.86802510834891
Ni 10.593149206662089 8.18035741191221 7.925309650145818
Ni 12.074654985248834 11.691387913950125 12.128048189386217
Ni 11.046194405708226 7.572200979484214 13.954832615975144
Ni 12.249122893517828 10.108209858929953 7.640737476828137
Ni 12.526649810314353 11.076241295514269 9.878530212414764
Ni 10.871395292392366 6.90921794032209 9.975673776522672
Ni 10.577248508182063 11.586106483041904 13.884087222149223
Ni 10.656983646131424 9.621174256133182 11.46895527924112
Ni 9.743858859684275 7.468539354494645 12.012491132147126
Ni 10.439353427682134 10.170499097951748 9.011513283096361
Ni 9.625053391551297 9.39937621592743 13.628691889615311
Ni 10.326451324802447 11.922544536763821 10.495993743475028
Ni 11.420308661787612 12.34734868242197 8.292883878880184
Ni 12.037971058410708 13.427625907698575 10.419232686639653
Ni 9.087204738692945 8.368835996489343 9.846571683292577
Ni 10.274660945947547 13.359110948520868 12.24816837447097
Ni 10.206343290426023 11.01454614698789 6.707862869089968
Ni 8.896927582534287 11.320731824193153 12.322944836337427
Ni 8.06170882348233 9.110172299819727 11.89222752995056
Ni 8.537398842523723 9.687921412282636 7.862930425249959
Ni 8.318360342309914 10.592790105125445 10.134497471598916
Ni 10.006749938377821 14.035876775461254 9.262797482773788
Ni 9.943847015104271 13.427891997394974 6.915907278666058
Ni 8.320403081953375 12.990326463738185 10.644770250930524
Ni 8.909968555459692 12.056984965142451 8.439168934349073
