21
Energy = -85.75478688 eV
Ni 10.521497801060491 10.619567833371326 6.369877110598441
Ni 11.542897413629971 8.855574113804858 7.662955358940643
Ni 11.234939261893153 11.015938794194394 8.703722551546774
Ni 8.128501460567797 10.295918401638907 6.4523131373631175
Ni 9.13486413701369 11.910379024355912 7.952664278767913
Ni 9.33499549502279 7.958945860429225 6.525178355259031
Ni 9.461927141398307 9.62855991310828 8.16684194941925
Ni 9.351009770963028 5.673080252721617 7.3973686648222925
Ni 7.396847145416353 6.508986766791433 6.6792068002866065
Ni 10.13057643409582 7.318499502195698 8.731451391948786
Ni 10.844477420223939 9.092676364023921 10.125456285257307
Ni 7.297858611921452 8.510010838876877 7.72557963013298
Ni 8.43488615539829 8.67907127135966 9.915219557025512
Ni 7.848739966649791 6.569619802378075 9.077755976829538
Ni 7.317030277873375 10.590389202196338 8.863470643237301
Ni 9.297965209532421 10.97212555765395 10.237768935812445
Ni 9.578166581856593 7.038842105627933 10.996769506267137
Ni 6.1705365561959 8.487897394972471 9.783491803768491
Ni 9.299405812610754 9.224728395203426 11.987056903197503
Ni 7.375707480297022 7.698689467288507 11.717073560866424
Ni 7.1974498506690505 10.118438626144492 11.238958708348397
