27
Energy = -113.9805169 eV
Ni 11.71459624303189 12.440842181277324 10.072195650096836
Ni 10.700982437054998 12.751855904049735 7.66423945705376
Ni 9.527151665234493 13.528145808206082 9.65574652875011
Ni 8.30377738809434 12.30267080259816 7.8390957846466
Ni 7.747512397613273 11.947651533214373 10.20675011861272
Ni 9.85132766132835 12.004601269144734 11.553121687914896
Ni 9.824340782064452 11.328209357815847 9.201052644757901
Ni 11.958832483772303 11.211015177093767 12.424255844922238
Ni 11.843909294992837 10.803075403070107 8.184885289565932
Ni 13.577298885717 9.423961505920307 10.93952372978698
Ni 12.92727272807435 8.928737348595392 8.725511381136663
Ni 11.461957932986298 10.09070640286723 10.548742987048572
Ni 9.660394552361879 10.370293680431693 7.052732379411275
Ni 9.922075869535412 9.982663971467597 12.881412638449044
Ni 8.968685223780053 9.911175538379714 10.759423241014302
Ni 7.8490106888288365 10.016850141879518 8.624869682773134
Ni 7.790474749207567 11.072685072590644 12.455994954911262
Ni 6.5935523948307875 9.895608294255434 10.717330320177473
Ni 7.810848668311338 8.673939712266572 12.40278212549016
Ni 7.9245521551478255 8.001201263720558 9.962276425690629
Ni 9.860452238941036 7.928331442940557 11.506918014241089
Ni 8.71301698942334 7.972082860053859 7.672494062907906
Ni 10.329444223356079 8.947270982711961 8.873734645820162
Ni 11.901896896688955 8.774425942387413 12.448134751551875
Ni 11.895322185701094 7.645510322327192 10.311199231286547
Ni 11.47060080345221 7.292988282947253 7.846069743833145
Ni 9.83682746046885 6.71961479778668 9.435621678149067
