24
Energy = -100.05418746 eV
Ni 8.979814833562468 10.482265717811234 10.34024631789071
Ni 10.18065103588246 8.864828087460582 11.588093103323295
Ni 8.068630016737565 8.229587677661387 10.802443468248915
Ni 9.944461170045809 11.913821339398535 8.772439473803045
Ni 6.674282128194564 10.12582947608441 10.542448291180309
Ni 11.266218790546818 10.168614083842701 9.801714728014987
Ni 9.860951048016851 6.55400380615685 10.723346779400252
Ni 7.504413067043584 11.684477626632699 8.794972150127512
Ni 7.841930364553637 9.454470388101884 8.52060906127346
Ni 11.965820193759392 7.937779687650071 10.489403249783694
Ni 6.15026290302956 7.992519465676394 9.431585711209344
Ni 8.79503858917541 11.503736384195529 6.7798770915824145
Ni 9.86608203160735 8.28174722057013 9.254829629711873
Ni 6.677527037966653 10.666229547913796 6.669929776530078
Ni 12.07083998948738 8.57849396877277 8.17922022654632
Ni 7.567447084368922 6.109189037439293 9.969091221669128
Ni 10.251293490852749 9.917847560975893 7.589555814199947
Ni 11.468240966287317 6.424276635342499 8.817844017098158
Ni 5.4846774415125985 10.17502519235614 8.585675632660951
Ni 8.400310556762827 8.998121989269572 6.337541306825255
Ni 7.886125358739368 7.170944933730667 7.907604199913392
Ni 9.37364125550968 5.553526207910208 8.596531064275444
Ni 6.117979508245515 8.44459097136838 7.061861456598652
Ni 10.137270040404323 7.507224685120912 7.106172070044487
