24
Energy = -99.54247073 eV
Ni 7.293786013197865 10.767359264789192 9.265248075125102
Ni 9.647714697811532 12.004826895980003 12.181388150672577
Ni 9.007026827803505 9.039123296504215 12.218879924476528
Ni 9.3810426010232 7.712728728710279 10.328473495570067
Ni 9.52752375297945 10.306089688532845 10.320253398204729
Ni 11.660318423690109 10.998357671859665 8.782419170914428
Ni 12.84088722936105 9.297471237906079 7.7719419641299705
Ni 8.322842869891883 12.604020941894596 10.218957899098628
Ni 11.62174710537856 11.029099229919996 11.329169321130502
Ni 10.543826602895196 9.835796229825446 7.109419315119433
Ni 13.49238900388525 11.91799399248817 12.39459204051443
Ni 11.268977260419446 8.612820365091306 11.429019161417239
Ni 10.786066746325393 10.037271063681874 13.282707328333016
Ni 13.063810618191384 9.600180228380934 10.133681216627012
Ni 10.589050329759287 12.709540900362834 9.963619816891851
Ni 7.610594786542881 10.85744139104289 11.627214416071947
Ni 13.002710618343206 12.402482471082516 10.070664299652933
Ni 7.342000870092896 8.787355589840821 10.476370059199951
Ni 11.071132732311323 8.675784951304115 9.08291629817271
Ni 8.742445670331563 9.081942446227055 8.45267517280881
Ni 11.730610356834347 13.424280382846243 11.84651110985499
Ni 11.53121931817679 12.130868379253657 13.71929639298063
Ni 13.068503169071198 9.646430717481582 12.557533317214412
Ni 9.349481628638221 11.511958494911001 8.293852639790066
