28
Energy = -117.8883643 eV
Ni 7.617122585865311 10.126661448225102 14.570987546517644
Ni 9.844200793354817 9.933924820255815 13.886299903200397
Ni 11.126612015972116 11.982246431717925 13.794728572226623
Ni 10.63878320075456 10.955608442624182 11.623407228724897
Ni 11.865922593507806 12.080221745307837 7.614276530430748
Ni 9.374777135156332 13.409842075413858 13.111995133026952
Ni 13.489345744997383 13.427682616839448 8.803829157839195
Ni 8.696277640694483 10.146746808023854 10.613061749366242
Ni 12.404901074467752 11.590233168282527 9.967808509975674
Ni 11.110994570922534 13.442108138512399 9.416136139123989
Ni 12.092303806584976 9.805526955563488 13.115467134886362
Ni 14.218998045564362 9.953640675673212 11.886113898318262
Ni 12.591403697544973 13.85929176241445 13.414381083965058
Ni 10.226922863600489 11.154940329025338 9.10498286968935
Ni 10.344481644775176 8.829382823062241 9.526836984932759
Ni 12.163031085522057 9.813432829425114 8.388364156033235
Ni 11.16527097129133 13.329350695851147 11.716522340592613
Ni 14.022175328502628 11.304051554478903 8.026670306865906
Ni 8.047815376082779 9.00714433253302 12.592036297769551
Ni 14.245367596222996 9.634286669370399 9.59145860422122
Ni 12.261798748683061 9.281546000507186 10.785029156230273
Ni 13.014961795971537 11.849364767663888 12.333357681931089
Ni 9.02279566211258 11.94064570538316 14.910693084753857
Ni 9.170460962229564 12.565113003707024 10.732434938676821
Ni 10.28051535875253 8.643160572201582 11.903122738509747
Ni 14.608847809739991 11.8787252905081 10.400370861604
Ni 8.390223367200962 11.347253845661339 12.666556353950025
Ni 13.308415637221696 13.82773029081866 11.073385666200398
