22
Energy = -90.66041058 eV
Ni 11.55906761242013 9.992548264280044 8.712073072920118
Ni 10.56480872437104 11.391083469241126 7.136297889929547
Ni 11.10978801955739 12.35802000636207 9.223226248455067
Ni 11.113191655008308 10.911879532850682 10.996359473263615
Ni 12.540219887100811 8.993794813243683 10.525598504208288
Ni 9.054288749463717 12.895938987717608 8.260227983896332
Ni 11.381881345765894 9.205507951775513 12.585070369296279
Ni 9.091287261470805 12.253613109593445 10.75736638416849
Ni 8.259902790461839 10.951408204678422 6.98064844343477
Ni 9.28864096332402 10.682534682517389 9.160276784276629
Ni 7.1330337923589155 11.800804626307725 8.87526009701841
Ni 9.732268890292415 9.105342313981772 7.459527120541648
Ni 10.112629025953726 8.818432203609563 10.419781700464496
Ni 11.533827413707993 7.092854002148123 11.362036049266749
Ni 7.379884453449309 10.518120185690385 10.735116523982107
Ni 9.503832136794745 7.785609886951982 12.471030491307944
Ni 7.46103174806185 9.353441487681154 8.605160931206049
Ni 9.169950445202298 10.151840535141195 12.12929857154826
Ni 8.754533690418276 7.4140860660079495 8.667923231318087
Ni 11.155888655370697 7.570512775709701 8.866751689002005
Ni 7.887849639316375 8.253381116586585 10.739634780582152
Ni 9.481088288017727 6.393313640832394 10.562173846385013
