34
Energy = -146.21588037 eV
Ni 8.461814164273612 13.28386584288155 11.991043857013393
Ni 10.369025386810302 11.933936064398772 11.934962723021101
Ni 7.7864568030305 12.83325514843191 9.75872588310892
Ni 13.199010097831197 10.412074947036315 14.61534159503201
Ni 12.210567091373687 12.136164432940086 10.406777144761397
Ni 9.206644963755764 12.98826295796471 7.9613095287013556
Ni 10.655193973844014 7.642939979163651 11.481881524024462
Ni 9.298476300222015 9.063280351551425 10.06463710856431
Ni 8.548015057318704 11.36227431769607 13.41497882497608
Ni 14.118016812133398 12.894940049817503 11.459058723608443
Ni 12.22020495039396 14.430974789769511 10.513805091345416
Ni 10.025409654193146 13.187000110192812 13.872052062666492
Ni 8.298338400025008 10.9753482262536 11.049889900503576
Ni 11.880328918599 8.919990439861289 13.142965765982774
Ni 10.123579667712207 11.335597542477567 9.464980256677858
Ni 12.168802783568342 10.441622634502133 8.693099653193407
Ni 8.149784842357414 10.722242868474673 8.608346114005032
Ni 10.36204360505178 14.747759057303089 12.065417119353416
Ni 13.823600140058897 10.359474046191396 10.708156188906669
Ni 10.01591497087828 13.63927101048585 10.09637943768742
Ni 12.688210314664142 11.216913062415893 12.595128062715617
Ni 15.138596532126796 11.108130215261886 12.659541435233498
Ni 12.06765311521853 12.558708216765641 14.912747551101717
Ni 12.964264055397413 8.134656974865177 11.105786001111657
Ni 12.180043112579762 13.54251287666985 12.724584488622302
Ni 10.540204274836697 11.374804798071196 7.056389004999727
Ni 11.463238865097178 8.219951174516655 9.313531229938828
Ni 10.053692926008607 9.336278501647882 7.878608770062854
Ni 9.569378723076587 9.468652915845908 12.474577209152491
Ni 14.188013478673627 9.073195903952124 12.81692945557764
Ni 11.400032860630763 9.908171567346582 10.980039766888924
Ni 10.801003291298532 10.809558637487973 14.082855312220067
Ni 11.587928689165956 13.037821748836697 8.377142025606531
Ni 14.097658877568184 12.7319986720094 13.863519042086477
