38
Energy = -164.83921307 eV
Ni 9.226292656846425 11.44231293767002 12.592915421635961
Ni 11.636552316598822 10.772649879051933 13.179625117164267
Ni 9.087715435496921 12.815173352311964 10.50193381235223
Ni 9.807878119551127 9.487838486339129 13.925172600477763
Ni 11.008369975392439 11.680336110657295 11.18294382607292
Ni 7.0812461310961705 13.29212049919792 9.479921300916589
Ni 9.087975225958507 13.742121442175664 8.202312118313628
Ni 7.114419068412714 11.669271996433475 11.38588620356446
Ni 7.825650051489953 9.574404546172756 12.640077802195272
Ni 13.027620610870654 11.91697224230757 10.151461549924687
Ni 12.611216887510784 9.70444627168717 11.118304147792466
Ni 11.051780067442717 12.849199446948226 9.124261500860388
Ni 11.876529884161613 8.44249089236577 13.193080176686289
Ni 8.677811651246515 10.285352308108802 10.438916100696112
Ni 10.341461495987776 9.325911216635088 11.643240525918959
Ni 9.686745491272251 7.385772770162337 12.72241024251621
Ni 8.827015253716507 11.508421901348905 8.486511820146692
Ni 7.164782279174642 12.532086832551872 7.246093178863787
Ni 11.086644505557175 10.39835948391243 9.199632200371386
Ni 12.788514413524378 11.906167759449849 7.818457871199284
Ni 11.58215049286547 7.333254127021802 11.180529777140235
Ni 6.57345193136025 11.061136487898752 9.052197647054854
Ni 8.09670780857767 7.921768600938103 11.057348672531296
Ni 13.665904010112133 10.064366662552754 8.937971597982639
Ni 6.307753901449123 9.471911450836092 10.821347244091822
Ni 10.598354717598797 11.814650955283405 7.018878075556312
Ni 7.486564881845254 10.171730495904017 6.928700852691519
Ni 12.048564962740446 9.750063404312327 7.162600200535729
Ni 9.837777023804682 8.119105665633105 9.37875563826861
Ni 12.305891439230349 8.266229807188559 9.143064556774222
Ni 7.518671507656842 8.905914913357302 8.872556139699475
Ni 9.573928056464391 6.117495024278485 10.634964660690091
Ni 9.704826859097611 9.605654092912728 7.347107064587956
Ni 7.636546384958876 6.609512812725623 9.193334098542316
Ni 11.593395438212958 6.071162386500917 9.222142353023617
Ni 10.922980430911531 7.582492333868976 7.342958595716154
Ni 8.426822876985772 7.7182754138237115 7.1111927243212545
Ni 9.542084610699213 5.888036265019809 8.202697892270617
