32
Energy = -136.59774449 eV
Ni 11.938080982839486 13.502190820434446 13.410626373690883
Ni 11.350062595629131 11.280048821189192 13.188717571733994
Ni 9.550258157798584 12.80528717245308 13.640696925430724
Ni 13.598428289091629 11.786435585220561 13.077975947298665
Ni 9.494873179874688 10.588546775599662 14.434333202926
Ni 12.778446417884824 9.703914616146463 12.239725767560948
Ni 10.564595466707907 13.227917191875727 11.528003579958694
Ni 10.996062061164649 8.92313531783585 13.651844250516694
Ni 9.353546593366318 11.063375863979632 11.821225443133358
Ni 14.166943147375 10.96897112282466 10.931171002253903
Ni 12.258012808456051 7.532032300618075 11.935818085961646
Ni 8.187215169201243 13.217817532339815 11.791491923912416
Ni 14.325947834628073 8.542595026027373 10.926598937008647
Ni 7.557001241755116 11.350915225395225 13.233563359979582
Ni 12.880260186116494 13.010664918524116 11.215512040839846
Ni 8.643733793385522 9.034140357560878 12.949600519300084
Ni 6.506156860983735 9.555884304497482 12.184250097596491
Ni 7.163519287610992 11.369775330373326 10.780920078767062
Ni 9.18639932427923 12.313083276440164 9.823246599828265
Ni 11.525789725901902 11.189630654660595 10.54995444588287
Ni 11.338413791829876 13.202465857193854 9.268267935683719
Ni 14.252906804087878 9.790259096843794 8.918125378728572
Ni 13.408033310928818 12.120137620714331 9.02861371023394
Ni 12.277261978139876 8.926256054473594 9.922166830874556
Ni 10.495908843719501 9.024440612923701 11.425851954702667
Ni 8.229331573484783 9.312587999439408 10.58755186156357
Ni 8.01197106977539 10.707722943077686 8.621291173832624
Ni 14.050242897315442 11.123830784477487 7.014526044101843
Ni 10.090032591596371 9.829353040339436 9.228452364461226
Ni 10.09317405454457 11.70172079064951 7.79189090829198
Ni 12.16371727938977 12.558345361542262 7.06946816482526
Ni 12.094934299670403 10.430919028472292 8.10160183747212
