37
Energy = -159.6308309 eV
Ni 10.68048524407707 10.626440501865801 5.8403514606582965
Ni 8.03661308746577 10.424114590626349 5.504736895721351
Ni 9.151158638096991 12.544858965837097 6.119204575838957
Ni 7.2862863080415305 8.049095441289118 5.607835856525553
Ni 9.454918792494157 8.706275054574691 6.4670548529474745
Ni 9.341253551449208 6.288344140808793 6.232059137937031
Ni 11.06147529130468 12.034870078011048 7.771704845557478
Ni 4.875764597510721 5.636319037718951 8.275386848883056
Ni 5.693889591051684 9.922614926367464 6.060672044748169
Ni 11.213404579949826 9.507198531011847 8.059852074941343
Ni 6.844374136664228 5.621366082982262 6.820004369474936
Ni 9.183150822443451 10.813685476330576 7.553068323343654
Ni 11.503838651627273 7.559154010705241 6.613491255766686
Ni 7.016478795172874 11.86310583591203 7.2006663195797
Ni 7.177053944545595 9.548828219793144 7.659677556236425
Ni 11.135582416914994 5.417217196681338 7.6966436046198305
Ni 7.957209891219803 7.384708975548243 7.681586437072545
Ni 5.575053454559713 7.745277302488409 7.373587158058839
Ni 8.89745408246624 12.87905350644122 8.528692594013263
Ni 6.649479877040141 4.172655456986301 8.800020113472707
Ni 8.766986719075447 5.179547523165438 8.351433710399194
Ni 10.107332058816647 7.235517808567863 8.5122910317428
Ni 6.809431785290374 6.458979056547966 9.331290780446492
Ni 8.942435761111197 9.094221620063825 9.086130731222923
Ni 4.831196181220169 7.597104779988653 9.725367158686286
Ni 7.634823903903332 11.072098986093376 9.485242630216502
Ni 6.807733817371331 8.859930847103884 10.073884559142797
Ni 12.296218308087317 7.396264681911705 8.883992649033894
Ni 10.108962781576414 11.036374964370003 9.779511322896594
Ni 5.381956291547427 5.194063374611915 10.60216484827512
Ni 8.781707298739331 7.296386192265856 10.651104546551416
Ni 10.346425548922753 5.560875044939517 10.074841378423406
Ni 5.116819616198078 9.76259296299531 8.56829639124478
Ni 10.838833271593263 8.672029456622855 10.361559340083472
Ni 8.018030455434124 5.025919899404244 10.681055527422167
Ni 8.741624113720963 9.666467994969313 11.27435063373331
Ni 6.587935122849074 6.999820263950631 11.544565224633835
