38
Energy = -164.5629793 eV
Ni 13.596408576371793 13.137827899766634 13.170644813714478
Ni 7.418204763833114 12.054986011138261 10.693164729424113
Ni 11.593073594397934 9.971766264387453 10.215483256790938
Ni 13.395284647247701 8.701649684139964 9.404485512724452
Ni 10.849793448755912 9.955282454499285 15.354501982129918
Ni 9.162507734126535 12.763783953982644 9.294443760557881
Ni 11.616823970571732 7.524244587374583 10.553543887661423
Ni 9.777233422655286 11.523820988197246 13.930199153158808
Ni 15.354348426607249 12.264260447484736 11.853747456265006
Ni 8.67123654974384 13.003693906119732 12.459943838426126
Ni 9.742029238489677 8.788512403670795 11.330029918046616
Ni 11.270959864244444 7.7350002343630155 12.865512872305967
Ni 8.390413989338729 10.548569488238146 12.21444864149554
Ni 13.103840875360518 8.894820650787205 11.825483364864432
Ni 12.598577358641215 11.746425303539072 11.517585161258083
Ni 13.04547852341992 11.112000013275626 8.759053692102773
Ni 14.075347707294611 10.701254591982048 13.046847398232778
Ni 11.218610497842793 10.187732064720468 12.672203327674382
Ni 14.833052930099376 14.531655729907472 11.63644362302869
Ni 11.108587946483851 13.286117109106076 12.937579391638529
Ni 10.171614875465078 11.696005624551127 11.158425106448439
Ni 12.68293577006812 9.159536550330436 14.186162090442537
Ni 14.390800787377593 10.490584660396092 10.620616200567502
Ni 8.787220288671138 10.343825003280681 9.79974202003115
Ni 11.997006762028217 9.331888747064976 7.621371127930688
Ni 9.469517878407737 9.059598001931372 13.72333518842212
Ni 14.036296653096045 12.879749880055044 10.006239985721612
Ni 12.18865761048886 11.58984106467683 14.265052174527769
Ni 10.18598807638319 8.61071151772395 8.929140744543608
Ni 10.568801640880043 11.048280796903722 8.392197547709644
Ni 11.612951988440358 12.836040401841618 9.575572987712713
Ni 7.859526403215849 14.353480383207334 10.649784581164662
Ni 10.177192591756542 14.23016389637175 10.89494870598433
Ni 12.550182586824397 14.27807413111713 11.239755863625131
Ni 11.962332905243912 7.115561237157716 8.311762055086431
Ni 8.848310619319705 15.280941788422105 12.585832127301401
Ni 11.12185231015463 15.62229599028922 12.542341286529979
Ni 13.305918450994387 15.404977083327294 13.21566224862886
