39
Energy = -168.50418981 eV
Ni 7.912259077272129 8.51014067315086 3.7390397794756662
Ni 8.2104387703812 5.944654285123247 3.8134039154144035
Ni 5.943346652087145 7.0537989554307945 4.618019946832555
Ni 10.214629969368511 7.472991376268801 4.623558724833462
Ni 6.557346631715754 9.35356029273128 5.712058746447519
Ni 9.149933245167375 9.54823129210056 5.6790324014395095
Ni 8.079708800387866 7.289568795552086 5.5479536315075375
Ni 4.27170624207876 8.459031623515573 6.645435570915294
Ni 6.995345292718134 5.107968716662893 5.8714933813163706
Ni 9.60510690745901 5.35839508544766 5.859882233108811
Ni 11.537229995492128 9.003347385688201 6.362801942725714
Ni 4.496030886473776 5.872813372171939 6.451855082004087
Ni 7.594455139469763 10.857021506155693 7.55794383001258
Ni 6.184337738754145 7.162351254866331 6.928326643100229
Ni 9.989759113612038 7.569102817594556 6.94521993083683
Ni 11.81328525541557 6.438231353082289 6.445132550120764
Ni 7.999861198229113 8.583322653040927 7.444848789788317
Ni 5.114736124999193 10.878398006334196 7.138731121322963
Ni 8.216438493710362 6.124842429312055 7.623220354224792
Ni 5.902105011409891 9.123199179096614 8.186149061596584
Ni 9.90581282967922 9.82413795551519 8.149209831081514
Ni 8.502971513381388 3.958226981936873 7.632979457736516
Ni 6.1317630268858405 5.144626854620091 8.291087576748197
Ni 3.9153185254321237 9.561199833274774 9.022957492255202
Ni 10.39826575447898 5.5819844392891635 8.350432186841983
Ni 4.583026380452031 7.135412425328595 8.796035832074478
Ni 11.525076119247366 7.845749649902511 8.692105203784102
Ni 9.264610152622419 7.588614698734045 9.174685714579628
Ni 6.910975893747331 7.215494305226133 9.197771384658738
Ni 6.088801243267293 10.953697099694834 9.620837968685853
Ni 8.692393397683732 11.393103650986607 9.736061823697925
Ni 7.82123122021647 9.386673267133887 9.58528444565824
Ni 8.371626564897769 5.457907368359221 9.923305892277003
Ni 5.670416514869896 8.66589347653041 10.61786252595368
Ni 9.861464234881552 9.229544486312081 10.703877318930182
Ni 10.440325152041726 6.707862719917341 10.786447933700714
Ni 5.891676301113455 6.171881637799238 10.827310525010356
Ni 7.9743437531475925 7.615653059192465 11.275202397855356
Ni 7.4870235807859595 10.076547741953489 11.647619556480711
