35
Energy = -150.63358829 eV
Ni 8.969330703068229 11.047165759554233 8.949631209415589
Ni 9.2362132398906 10.852101128852754 13.625782684119036
Ni 11.100414036337117 7.406349740925785 13.43283470348044
Ni 9.806136088498947 9.84683460835246 7.059653398029283
Ni 12.479381370521148 6.723968353153606 11.604504455168211
Ni 8.796248421829862 9.506959334722032 10.892268667125547
Ni 9.304895936862067 13.676581133559422 8.104563322944959
Ni 8.506951419028317 13.412836802236239 10.342535282759677
Ni 8.034557640853235 12.617674655249383 12.600124743463791
Ni 14.074702259991685 9.56001053487746 9.003787942360887
Ni 7.318262582537224 11.401184464453912 10.614426954776228
Ni 13.008920689408965 8.587605871885117 12.891700844411936
Ni 12.056146520327736 12.173441773934234 11.49105679105053
Ni 11.071921376232705 9.710742274088863 12.077257061508508
Ni 9.961267972431324 15.139008700291829 9.850620344213064
Ni 9.155736990436486 8.624281296203025 13.097497087887595
Ni 10.319827936744138 7.650222795834748 11.200014664011457
Ni 10.881864747676676 13.021931737874443 9.68927094483626
Ni 10.908878127706718 11.827345253545293 7.669160311038624
Ni 7.302534819479741 10.211998179553351 12.60833752679824
Ni 11.136777548304428 10.55546681909963 9.855560544652096
Ni 12.262769221186264 8.37078542223494 9.972495721371317
Ni 9.693130255631376 11.61264564876358 11.4247728012549
Ni 13.013138203557514 10.927425698669914 13.32444964808371
Ni 13.357422746215152 10.316525624305532 11.037455262809146
Ni 11.039297229287728 12.210244896456201 13.551244996766197
Ni 14.9777854496522 9.817989178566428 12.59404669721641
Ni 7.231824551119926 12.576086659310326 8.540928915072657
Ni 10.271301754571983 13.847965402237213 11.903845970076759
Ni 12.016406902041552 9.673903033231925 7.890719537244803
Ni 11.210583726951455 9.694672974426506 14.338179255729422
Ni 14.389765511365919 8.16531901555781 10.984871765524968
Ni 10.063771445935176 8.658549682171788 9.053337508423374
Ni 12.921898988743003 11.74206101713539 9.108408481921229
Ni 8.661159021140977 11.882136418903967 6.772750578401437
