35
Energy = -148.32465858 eV
Ni 10.044181908697588 14.071525432847505 10.235621519868435
Ni 12.149265319971304 8.97016917161437 8.339817333059838
Ni 8.426661873183846 6.483112231583455 8.440217212789719
Ni 8.510062438908863 12.66506693505364 11.394584574414724
Ni 10.567794680813602 9.284494756533697 10.170096188838052
Ni 10.478895272791336 7.415380541304392 8.439485139842994
Ni 7.162181903091771 13.250219561226494 7.748569801411197
Ni 10.703034827497524 6.5939812332244045 10.583004932620396
Ni 8.607539442227916 8.804518109287269 8.207818795060227
Ni 14.219067518147638 9.541515526375429 7.4973848067874265
Ni 6.945141183835181 11.007718480671446 11.925148778595679
Ni 13.902069791940526 9.762882333630813 11.853414230640906
Ni 9.282374877217206 14.445325181200973 8.057757193756158
Ni 14.111338023439375 8.87363264571498 9.682227810832483
Ni 10.237349662659419 8.4516379591208 12.454915422803214
Ni 7.671251836394734 10.886152233565186 7.854282868947197
Ni 10.282484556815213 10.576473671507728 8.220738660349754
Ni 6.327368278040995 13.351019637426969 11.573462530686516
Ni 8.68661688529565 7.771589971807785 10.300579616942565
Ni 6.694923030424173 12.004601536502802 9.736305759674458
Ni 9.00085924688363 6.512731582818505 12.240911323164896
Ni 7.87797501125806 8.783224173946865 12.174550140017939
Ni 12.588337153667606 11.170147001763816 7.696470591675478
Ni 7.658679167492304 14.281755345114622 9.843328493153754
Ni 12.655341346116996 6.880580648922858 9.19429165719912
Ni 12.629894893464426 10.674583151181311 9.97343405837199
Ni 12.438113170932354 8.55447123527474 13.427520405503861
Ni 9.31128784453144 10.622084831229547 12.255597210549071
Ni 8.343742811201235 10.258429526418459 10.128473678578857
Ni 12.461273370192172 8.071170761064188 11.175836484953841
Ni 8.940365185595216 12.38398800641493 8.974121963135907
Ni 10.5927999326055 11.763706186745546 10.567990785604362
Ni 11.425528083048029 6.492691885428802 12.774588226939994
Ni 11.211320574544224 12.812837279534167 8.536100401118077
Ni 11.654174953658734 10.325877290526359 12.120647458696565
