32
Energy = -136.75680187 eV
Ni 13.762953652519952 13.570498640253536 9.102243070048155
Ni 11.419689711869315 13.809060241563303 9.419820103006902
Ni 10.057083963363592 13.015000294844286 13.712639652016142
Ni 10.037531888282302 10.486062884887312 10.68163778557735
Ni 12.392768804144245 13.90965487581703 7.259991627313151
Ni 10.831822577611172 10.924678029643339 15.05081097880894
Ni 10.686721949275336 12.298823467166233 7.466232218197965
Ni 9.590408403958582 10.29795064173218 8.41495625151569
Ni 11.67209545069803 10.090248458808064 7.301700794051479
Ni 8.46859321127502 12.156513322249657 11.820797824994973
Ni 9.450878361840855 8.397274239349285 9.948399183597314
Ni 9.327871256211923 12.411619989836293 9.514990872754117
Ni 10.699629647814424 12.806325088655443 11.452665656394672
Ni 8.874683330109743 8.85964450992622 12.179051639008547
Ni 11.659312524696379 9.145194306849252 9.464697388379014
Ni 12.153318125748893 10.916290402328585 11.531782658907915
Ni 14.222082651952197 11.263296169118266 12.423981731059518
Ni 14.05059139825636 11.376134376448857 10.009555410028579
Ni 11.756629147867061 11.562113362520995 9.326861309124025
Ni 8.520184493968527 9.564259078892034 14.474473156614572
Ni 12.539184547997937 9.817034361707465 13.523205640544807
Ni 13.570736066561194 9.21462524440521 11.050605025353443
Ni 13.02413598057273 13.127506599163627 11.296933747813938
Ni 8.19948108964539 11.796293249676323 14.24973604714524
Ni 11.259372178156982 8.684935686802135 11.770926436401279
Ni 13.280788885535763 11.78269974169066 7.648820267378421
Ni 10.015136107792 10.77033867801821 12.996062063361714
Ni 12.206107235954287 12.209943236054968 13.43671827820912
Ni 13.708701697811282 9.62958995429269 8.53910197371377
Ni 7.185497757514716 10.390692076383731 12.662336884163755
Ni 10.573018318879564 8.666699403768003 14.040372178175456
Ni 7.835306531984601 10.335795990609467 10.29829800228138
