37
Energy = -160.74075408 eV
Ni 11.848609212967261 10.831202269323201 6.744787105522467
Ni 9.955305745231287 12.141419961739789 6.593136910945186
Ni 11.588510156460986 12.495768197769063 8.453381027395091
Ni 12.900689556353466 12.226378818686088 10.506144888894035
Ni 12.579801777534902 10.42717437745509 8.932351035954378
Ni 8.15938358000085 12.40107114823207 7.9996786458386495
Ni 9.706898844395173 9.686809341384333 6.43992389623042
Ni 10.805589593916634 11.26787290312534 10.668892034370169
Ni 7.847551849269982 11.047167373657945 6.047533668329664
Ni 11.432043839407974 8.706797467642991 7.7123896786866855
Ni 9.944420035683137 10.751393292478438 8.508776239803655
Ni 13.033733697992146 8.043217449139943 9.427290296231014
Ni 12.959091436366078 9.76520214026413 11.187476667020327
Ni 9.685903776570926 13.129833490030205 9.620319654417326
Ni 12.14244448873675 11.524422147509522 12.62835059192382
Ni 7.620057053118402 8.574921065431047 6.439112767945707
Ni 10.895832132225454 13.338431170680032 11.665506780100559
Ni 11.036990361050641 9.000641391341032 10.043214141476573
Ni 10.917978795744517 6.829593605477136 9.061604140518979
Ni 11.70011867307271 7.324613378782413 11.415659229119015
Ni 8.475727154490551 13.093660946559506 11.684400161403515
Ni 11.052534683236733 9.413817206441317 12.54759910291632
Ni 9.054552340024733 8.508260594001268 8.908370405738237
Ni 9.592544203044337 7.341652558641359 7.016010643048699
Ni 8.183975610447565 11.37770423437304 10.159247784966961
Ni 7.515248752754661 10.140155914339202 8.17031918900791
Ni 9.737920263944345 11.484843875620522 12.748009116746141
Ni 9.070713806337977 9.464591248460291 11.24094625296871
Ni 8.678278710046477 6.084015691427321 8.805642162012147
Ni 9.859981137777238 5.825373647461255 10.885513703535908
Ni 9.563191049399073 7.535271274837607 12.496426695557837
Ni 7.4236924438350345 10.863510190971871 12.310241970030285
Ni 6.917539335186404 7.767967360302265 8.548170837280633
Ni 8.957544422025105 9.492782493910793 13.721635546204354
Ni 6.901147388487341 9.368411129380744 10.363842882577595
Ni 7.989164498146946 7.255744497789349 10.696221694707198
Ni 7.2425231986831715 8.44553974929918 12.579106054540695
