38
Energy = -165.34263089 eV
Ni 4.810707902000479 7.944409381493416 9.486085963396595
Ni 9.98753505640051 10.25812373825989 5.258308807407094
Ni 9.52802602103183 4.7299397244336765 7.5801755587201205
Ni 4.4085369990414405 9.231864674565433 7.567315073334484
Ni 7.429197146397441 6.323645081460315 10.871551644725216
Ni 9.327137414192785 7.907643694092953 4.920267430147189
Ni 11.082521213874394 7.720223020162606 10.48640670904309
Ni 7.849900922620045 4.5234072488157375 9.300261788468658
Ni 7.1445019816542965 7.675150249636332 6.262983570884703
Ni 8.298565596930928 11.476365293040791 6.547964983246701
Ni 5.188593529776422 7.054367805303717 7.328444227225782
Ni 7.828392260629941 10.375939154640308 10.98692914694941
Ni 8.370501822525043 5.7363467292101555 5.2610094827262435
Ni 9.70909497210905 8.51125353802081 8.80378864486396
Ni 6.190860059609448 4.372525946488386 11.013254747804458
Ni 8.743598034067944 9.20951076716281 6.845838823446084
Ni 10.738469917821316 6.124811698977804 5.852720122667871
Ni 6.4747386053466744 9.93853418474454 6.995426176083652
Ni 10.264677584950832 10.14880276655005 10.23673533842303
Ni 7.279436616526645 7.930669795781239 8.742044015653013
Ni 7.150231721801704 7.482571645719209 3.935953461654089
Ni 10.449642775578788 10.58955986737371 7.696490169108442
Ni 7.59163649079921 9.666280495455787 4.843869362138522
Ni 6.443878319212334 8.48471038406881 11.103238199496543
Ni 11.002667899782288 8.445230208524936 6.588065685714103
Ni 7.129522020524958 5.503240509445077 7.313130696391787
Ni 8.262837555120354 10.519554032133492 8.77604747368744
Ni 8.78846171807767 8.260274684689282 10.909915776794744
Ni 9.37583398744966 6.252510241313881 9.568592164275215
Ni 5.805335242171071 5.795168425246135 9.22826812877357
Ni 5.146362258565187 6.534697649836782 11.348569342255063
Ni 11.978172195322784 9.034704773273141 8.730551298596492
Ni 5.2988465719028826 8.52040187783362 5.305507235425402
Ni 6.563278439587813 11.971047364573883 8.129428972154336
Ni 5.974108693853368 10.04003774252143 9.33950394999791
Ni 9.100428689920202 6.89827912180204 7.241510471794898
Ni 11.303261326632997 6.679977094501896 8.19581606921242
Ni 5.867849300108214 6.015568252763823 5.285378151229925
