31
Energy = -131.45964344 eV
Ni 12.465785312448944 8.023781164919802 8.147152206821568
Ni 11.905224668178445 14.989289338585245 13.71239300541105
Ni 15.098384179476211 13.234825839664346 10.766824208665323
Ni 10.920037876209282 9.69846885668122 7.90951932549018
Ni 11.646077716329515 9.44669017974715 13.974960940155274
Ni 11.109402381208062 11.589921763704554 13.265102619063782
Ni 8.955825095099362 12.241350437849494 14.30415297476668
Ni 11.06285989342307 13.15625486612685 15.053156216025846
Ni 11.569417414453861 14.14210483077912 9.020171280590032
Ni 12.805855934938778 12.8855476381027 11.765573463444793
Ni 11.2133121142295 11.849620498096476 8.60351916726037
Ni 12.789492144126 9.044986688324641 11.691374350511117
Ni 9.24305457520836 9.964409576927116 13.867735626429173
Ni 13.248231872783666 12.480748072108806 9.458709295584198
Ni 10.442114582116844 12.883547981658008 10.629408060683737
Ni 15.065005641860449 12.409917498770948 12.878854529743311
Ni 14.244158434976672 10.969666684624896 10.986843222660026
Ni 11.605974721703737 14.839718370293012 11.374018127158154
Ni 13.369131778961611 10.835749773920858 13.14047962203325
Ni 13.5437072515435 14.77307419789062 10.07000590150515
Ni 10.397218214379992 10.89552055108574 15.628816334112988
Ni 12.998725744440678 10.016163415223076 9.16918310882426
Ni 9.689556704225648 10.582679628105877 9.895351611058768
Ni 11.168824623439845 8.667835311068597 9.941652244671024
Ni 12.6254942515037 11.25255915116967 15.314918544894201
Ni 11.770055244881243 10.964311370904875 10.8995797256854
Ni 13.97624748684336 14.700575725203954 12.449707930281079
Ni 13.204016191339488 13.114009321723557 14.074718255711437
Ni 10.141298011682212 13.672193328700303 12.842935433618889
Ni 10.380806858666919 9.383307047421384 11.96536032563769
Ni 9.130178537403637 11.521402839696115 12.003777696493241
