35
Energy = -150.31302713 eV
Ni 14.44327452936272 13.866035031006659 8.193324120996904
Ni 14.457469608016904 10.709512067245203 11.511511056259346
Ni 8.570386055675279 12.554074135556228 8.704336800634934
Ni 12.43552537492404 13.798591164423314 9.678006973930133
Ni 11.176054151422813 12.352513869425986 13.614817895424762
Ni 11.620858962015003 9.169616929243452 10.08818483188218
Ni 10.874967132655675 12.55131424244507 8.318706153984941
Ni 11.461391416093717 14.338217991519505 11.89429859031283
Ni 10.563098788059891 14.731299279844322 13.987104759976999
Ni 12.847715437013099 13.784606604129003 14.070534665676622
Ni 11.007022851988076 13.395955614011369 15.828208960342554
Ni 10.626845332340917 12.095862382251436 11.284147375677254
Ni 9.9144429489828 10.721948294030131 9.404254861704445
Ni 8.403349061374911 11.774761347563334 10.917658963511274
Ni 13.097642114211283 12.074806363764946 7.772685702459427
Ni 13.634131300385713 8.56420270488537 11.02652188997404
Ni 13.654958091771052 11.484076602358941 13.699177709703607
Ni 13.848340145699272 9.143778121934128 13.27771816346241
Ni 12.353775314126285 11.42055674195333 9.887438616856848
Ni 9.762407527113872 9.198402628710436 13.890859774020166
Ni 14.51314396356039 12.406269099971615 9.948365229084658
Ni 9.083004935386747 11.32983746311972 13.179197340082592
Ni 13.108376617451416 12.744404406175152 11.822933472181044
Ni 11.727509456502675 10.208647510929666 7.9400142989962434
Ni 9.832443000637387 9.768656624924237 11.59221205643777
Ni 13.988907411991702 10.018391132384314 9.134284340207893
Ni 9.98506466783384 13.907494539522235 10.055751370855504
Ni 9.186786861417893 13.617035236177603 12.358207939466268
Ni 15.354738011377673 11.659846244448573 7.964908185440256
Ni 11.910026604358668 9.901838745105291 14.35900420665255
Ni 8.978704700401964 13.140863059842431 14.689246220551011
Ni 12.188575761261317 10.483547091859993 12.084160000017068
Ni 11.583202461559873 8.341019943650918 12.451666099855242
Ni 10.156372632011522 11.132525422413547 15.35840001329265
Ni 12.541875314293234 11.746205103502355 15.685545828566468
