32
Energy = -136.05989147 eV
Ni 12.649363557828112 8.911534072485756 15.426069879970159
Ni 14.475168911333542 11.940912778912024 9.197938572407717
Ni 12.702738622823246 10.398811317034685 9.486275849237229
Ni 9.771711814317108 14.848970567434845 12.135450771921958
Ni 9.428289086492166 10.658544631453143 13.83717003699891
Ni 10.26237345344782 11.438201428790554 9.207918475804274
Ni 13.896076740667304 9.67021364633439 13.416698841886367
Ni 12.321366313726319 12.742516516873263 8.861542212980375
Ni 14.192005990318492 10.83795442113702 11.282535264487155
Ni 12.44782161621445 9.253636649483083 11.506141271162583
Ni 13.406258290636453 13.117789759123044 10.991636760863548
Ni 10.301611717581764 8.540339261782634 14.68622938471525
Ni 11.603867254140532 11.612620874298862 11.319725877312909
Ni 10.924594338423208 10.46999100746685 15.833916858884221
Ni 9.894090956558088 12.632852478607818 12.680147630538768
Ni 10.99331109428765 12.051271850963719 7.002195081146333
Ni 13.155995825270434 11.202059794017044 15.271705324860001
Ni 9.35994611192367 10.817364632160231 11.353229267056804
Ni 10.206427225977587 13.702853952854634 8.422960499883338
Ni 11.19392733248843 12.402094074821084 14.551771636999103
Ni 13.1566894291072 11.15275965303627 7.313470852404959
Ni 11.214045855237902 9.84087940922012 7.741051965381458
Ni 9.432387023552806 15.356791478240178 9.884889634860528
Ni 9.13339024833785 13.100192483592426 10.487463682086235
Ni 10.643362002942201 9.280741899837833 10.009067519839393
Ni 10.200693453473537 8.84315962375569 12.330624652884355
Ni 12.167674051261914 7.900299856205435 13.388652550514085
Ni 11.66166176383486 10.259154905625895 13.543366995384428
Ni 13.199243501153797 13.544117736173078 14.823393103813515
Ni 11.949230610204372 13.928768064133484 12.814816635848155
Ni 11.274256156561528 14.046272454590092 10.545964152738266
Ni 13.346924154097298 12.01349340035625 13.084766025985287
