32
Energy = -135.04484919 eV
Ni 9.780753969856127 9.215884291387066 10.285041708741211
Ni 10.634385013988291 9.597154708089759 6.853207586638951
Ni 10.142423680634142 11.506764640315067 5.581391219419842
Ni 7.415871401607292 9.388257199994971 10.372838497216634
Ni 12.120246505918738 9.02917028108488 10.573586492119802
Ni 11.910508759562713 7.5249862852553004 6.816848762975402
Ni 10.297139612470447 10.43211991843014 14.026175767960623
Ni 6.47366063073396 7.318314810993463 10.923910575973284
Ni 8.465704524380861 9.076311692952983 8.20589012322521
Ni 11.679305528589014 11.653253604304558 7.335398173673649
Ni 12.571469206127514 7.095698340294239 11.721770993778247
Ni 8.571688088569003 7.703987843412645 11.881924329533215
Ni 12.568142729434689 7.127724355689291 9.253550874762436
Ni 10.469807559511807 7.783083994778121 8.521550400021802
Ni 9.104665136513933 13.764313685727327 10.847969429250227
Ni 10.456278586118783 13.121969324236938 8.892569227936358
Ni 8.745604883835506 10.050751491027611 12.366698528819631
Ni 8.415359725123826 7.208245048503027 9.586930764749823
Ni 12.453037025258856 9.326885685131005 8.279093015401738
Ni 11.244454889760606 10.963438502463147 9.504963798702365
Ni 8.462000651610877 9.949024818010088 6.074454341264647
Ni 9.324211461135484 11.395045410122922 7.783886591719264
Ni 11.18789694430737 12.817251383837275 11.06359021866828
Ni 7.215679839421549 11.002581242745942 8.694370504495122
Ni 6.6956216358100304 8.962186439438776 12.550045260362099
Ni 11.039285228734188 10.67064177859506 11.853146266112015
Ni 8.920645006207433 11.482944625594163 10.31272058699158
Ni 9.366142825592542 7.723742191881912 6.463300348234641
Ni 9.516890208611429 12.263390625239168 12.659850879456128
Ni 8.096804593516698 13.167715879014821 8.81824700716608
Ni 10.522043378379045 6.949331252574341 10.72487604933848
Ni 10.732622905502325 8.475887142922438 12.565127572501341
