38
Energy = -165.04047892 eV
Ni 8.123297673218682 7.177121532129686 3.803848746613422
Ni 9.040123720905884 5.5207567049060895 5.29759045718624
Ni 10.087836300832278 7.84496275341778 5.1946478599373735
Ni 6.604706917704687 5.712399730091782 5.095353189606654
Ni 8.221696357056564 9.396040535016796 4.819923021468251
Ni 6.115374723339273 8.15186562475608 4.714056706900452
Ni 7.966938260770485 7.349965145713073 6.103321832376856
Ni 10.42010225334922 10.229816877041578 5.677233581495994
Ni 6.143127262737318 10.417477334479969 5.386349796295227
Ni 4.331455473313874 6.627517464989479 5.273556730592765
Ni 9.859576499967035 6.592097493154362 7.2869311187125065
Ni 7.575565820844463 5.314133611136339 7.431511996881583
Ni 11.39516551608912 8.529368469757822 7.135622723992557
Ni 9.026184600469598 9.147151667869567 7.079160701242936
Ni 5.856971108528743 7.203422723826011 6.8773806007717955
Ni 6.676862180128392 9.487636461188941 7.418200634034422
Ni 5.134626477897351 4.9120352320326885 6.819160829280882
Ni 8.226515035937558 11.216669229647362 6.363477746553232
Ni 4.4666482108745855 8.903846971850609 6.379932633731958
Ni 7.634524318609382 7.438438029366901 8.563192602774311
Ni 3.654732666436693 6.802836398725093 7.598529940423625
Ni 10.592625851668448 10.57587555888548 8.147080538459448
Ni 5.11012732081735 8.389475872238991 8.839191954344566
Ni 8.354320264805713 10.765555683401054 8.672133617962718
Ni 5.613253400568842 6.024702487410801 8.906404716623507
Ni 11.752824826727549 6.912222743491147 8.862777384741774
Ni 9.843692366873139 8.27646138083953 9.022693514039332
Ni 6.09411589790626 3.8209754740666955 8.702943085254828
Ni 9.663462478723902 5.9692324014370515 9.54548269068362
Ni 11.880214545575233 9.2192274749419 9.542246566199482
Ni 3.7419586690972224 6.79222786279761 9.999711896316251
Ni 8.43081627010467 7.5568334476438626 10.899284697351206
Ni 7.128401611074647 9.293624389110992 9.909789484431412
Ni 6.06996174597522 7.3361839149669335 10.747965573838801
Ni 9.50909481633602 9.832330239576537 10.568317237129094
Ni 10.813359555543029 7.619404893916183 10.993735320095084
Ni 7.5183973561527795 5.399928022547834 10.00188698392131
Ni 3.756822771882065 4.675659290472427 8.754852416576528
