30
Energy = -127.32694845 eV
Ni 7.824220863290147 8.834857805968763 6.767919062155382
Ni 8.715777787732488 11.016742678180242 6.883193257907835
Ni 10.308123347246724 9.254470949613657 7.224241389948291
Ni 10.955150144463598 11.686820560367936 6.804847605397624
Ni 12.647042494570522 8.739301080457244 8.430089113029245
Ni 11.136935683427286 7.008694049300434 8.054436367674825
Ni 9.248653547482354 13.11824854759357 7.901592075151563
Ni 8.87779793872808 7.4697942327399725 8.32040818662667
Ni 8.255507594706648 9.783769718124518 8.812954743578647
Ni 6.678852263570245 8.05911641028868 8.895141773699379
Ni 12.316447438669 10.946008895042892 8.665884253441021
Ni 10.066287542327181 11.250567092802354 8.913246261121007
Ni 10.565625044384046 8.869979577006646 9.48557083494234
Ni 11.560132818609256 13.163590211158521 8.6225594269614
Ni 7.7462375991274595 6.096608217955569 9.959230923066299
Ni 10.054431398528703 6.468519678576197 10.143982395412069
Ni 11.43732931783201 11.837274848379753 10.734166611614429
Ni 12.269387985106803 7.242675232145421 10.18736093321994
Ni 9.85039423509393 13.556478669509119 10.153709508479418
Ni 9.357156167649977 10.286622687037855 10.98485074397689
Ni 6.793043745448321 10.014754488676665 10.553083565590889
Ni 8.301985781310748 8.19345963113999 10.686577287128092
Ni 12.34531982720418 9.609842906824818 10.759109899864281
Ni 8.070544478869508 12.021171354745082 9.979370373022217
Ni 10.684402861486495 8.146538031101752 11.775254668810891
Ni 8.891915030243153 6.582910974073177 12.180544833466929
Ni 10.95683500803157 10.379422882272467 12.599798084508603
Ni 9.509049719575486 12.334662034913931 12.072845422648403
Ni 7.6769380961413916 10.972024365247822 12.45062914897258
Ni 8.792087839000017 8.948685788611995 12.891014848439562
