31
Energy = -131.07591891 eV
Ni 13.413600130843012 9.79619335491826 13.919091868621395
Ni 13.923837640115256 12.069096694525534 13.477032913913527
Ni 12.688329262760485 12.893698354814646 11.60589716593382
Ni 13.495023175569404 10.626399393727814 11.721186966373063
Ni 12.783403501420107 13.624967483659704 9.31992429586689
Ni 13.542597162091035 8.268536886744032 12.101236923703832
Ni 12.987318066535172 11.340448740710874 9.510134257109437
Ni 12.317027742663079 9.167369501737022 10.27231422911499
Ni 11.723701691937187 11.383403087899131 13.389829429958114
Ni 10.794642719671025 13.77475183220477 10.477254694934985
Ni 11.544899521567977 7.195961197270271 11.34476932103807
Ni 11.689156525609798 9.887754126278308 8.083947042918723
Ni 11.471595798485922 9.212446282870573 12.595230563725188
Ni 11.16757673779077 11.164968596583538 11.009033229517332
Ni 9.713445701491132 8.680846496616237 7.269079241722603
Ni 9.44723419336379 10.63319910714146 12.534850360567948
Ni 10.744579447107487 7.833298260145015 9.159233965489973
Ni 10.286340113370532 12.945175143070525 12.577328235748178
Ni 9.64923299338202 8.711562286359554 11.213750826186265
Ni 9.753596015073374 10.14983125408992 9.295675160316174
Ni 10.869310567696914 12.201971148419103 8.773352097427559
Ni 9.06604946107136 12.170342688535918 10.767170559262695
Ni 7.709620414355279 10.118324207977365 10.526005011399652
Ni 9.694748798317656 11.018030197060423 7.1096627981079585
Ni 9.459854784600127 6.456705974332403 10.593353494180088
Ni 8.38056574325625 8.066655127247543 9.286607027834549
Ni 8.220712584990418 12.041326225272599 8.667173582992953
Ni 7.743138312428962 9.836472806550903 7.867095361870725
Ni 6.80635796762469 12.333066490874682 10.641775279583833
Ni 6.044874337337986 10.986773575895596 8.982789584301216
Ni 6.1711350798974465 8.713929668892094 9.211720702703587
