33
Energy = -140.47536677 eV
Ni 9.26998004422689 7.959429282827682 14.487700959875111
Ni 12.818759016225542 13.051388531263644 13.601488265605676
Ni 12.547793546351421 11.041318411580084 8.619376957393836
Ni 11.058734429554677 11.689050440505827 14.349895714096567
Ni 10.66516315084017 13.139218160465978 12.518068030079215
Ni 9.281636977557621 12.25983288411766 10.806993831060005
Ni 11.215366399443308 9.200451716311688 13.92846889604476
Ni 9.533695910768358 8.459711837194334 12.25814708978411
Ni 10.403583688160701 12.160047156065305 8.775415302131723
Ni 10.686714689220588 14.104651611581264 10.24115622882457
Ni 7.779941909740747 9.502447767237001 13.411666722318607
Ni 14.735411079301254 14.346354623793474 10.60099986787197
Ni 10.490947087421747 7.458455947058769 10.375013576273233
Ni 9.704918011823086 8.279466595155453 8.355456941244558
Ni 12.633528154026772 14.092664466049936 11.538203171049954
Ni 12.10698908801292 8.763748464076428 9.171965301422354
Ni 8.298428759092987 8.33583489376319 10.192806282279184
Ni 11.921218503443361 8.890758521764015 11.621916574350237
Ni 13.551537742453316 10.273762177333964 10.60234287337016
Ni 10.383854178856696 9.942031036872097 10.122728124650815
Ni 12.797014873362734 15.472734357869536 9.710577275485283
Ni 8.594179509552927 11.846757931552174 13.198400291913467
Ni 12.711228376267016 10.803292811499666 12.84748989955457
Ni 14.351112814807513 12.3023830181351 9.427254546253602
Ni 11.835497630243589 11.898671026443465 10.764984429637197
Ni 8.55912152940744 10.48862870887599 8.89404535994439
Ni 14.154730633710969 12.308662483873144 11.741179167189568
Ni 14.426307556166883 14.413097923875124 8.313954031368086
Ni 12.406911232969767 13.411849889986268 8.81137608647237
Ni 8.157574579048593 10.329701589783586 11.291732415887674
Ni 10.66744715036521 10.170553573157497 7.6296208895146815
Ni 9.337850078837755 10.257988629845366 14.880583350336696
Ni 10.344338893563634 10.706877501687648 12.359766172796428
