33
Energy = -140.77908951 eV
Ni 12.473683993110205 14.17564224956236 14.036267016541048
Ni 13.338883922498702 14.134414063981948 11.695946447075398
Ni 12.812665642501152 9.51563175758126 10.939833131681025
Ni 11.843866799598253 7.43784751279824 10.595226012746098
Ni 10.460181380735143 10.46857219743474 13.195289699624087
Ni 8.063355447406696 12.244750163778939 10.178610526482583
Ni 10.282448530442256 13.174730662137856 14.250448857892625
Ni 7.087502160237963 12.422512753975422 12.262325486111664
Ni 10.112164614411114 11.128630337889014 15.493277675861068
Ni 13.409225690324298 8.321296516612316 9.04232212350813
Ni 8.528944901493736 10.551312442827108 11.75051549868792
Ni 12.952628169463887 10.423339525674335 13.08529402882697
Ni 10.94400241120911 14.614310052698777 12.226123470174846
Ni 10.89025504677916 11.182906446642832 10.738771304271712
Ni 9.458431263499138 14.186350154468816 10.305692851078625
Ni 14.227892417132452 10.598805587177281 9.261591017564859
Ni 9.424873948361768 12.74013698038188 12.076375087507756
Ni 9.125533297447397 10.223352761726558 9.46028485158889
Ni 10.203094010570412 8.995440172603164 11.219683148741844
Ni 11.763102102775209 12.481587270713533 12.539431760212588
Ni 11.794096137420896 8.400352156420942 12.807305599191292
Ni 8.473216285275422 11.61074560428287 13.926853863518867
Ni 9.999878473433931 12.3925849586978 8.867460188217338
Ni 13.529461173355985 11.760609592415815 11.1682370077716
Ni 14.053785575848384 11.954464657564303 7.340343789163858
Ni 11.67160206763438 13.431260874404199 10.232202054099693
Ni 13.001249016994143 9.868567507074335 7.388684121060891
Ni 11.320360158202604 9.377804509337224 9.086767212386404
Ni 12.21241657199121 11.896897393965181 14.832062820272492
Ni 14.022555579607147 12.530421141220028 13.350704987819718
Ni 11.734465982932925 9.52451695933301 14.909063525312584
Ni 12.195143907259434 11.635913954379621 8.721778340540242
Ni 13.900248561076424 13.134283717673533 9.38650718036329
