36
Energy = -147.34790253 eV
Ni 15.519702984797073 11.14950162366797 12.131872392068798
Ni 14.806097867683182 12.487857985046306 10.252383787285297
Ni 14.55583876851179 13.160062609607797 12.530165540749334
Ni 15.455614674301334 15.356265770158746 12.592794523177671
Ni 15.369968662897895 13.756556121437331 14.685506318542885
Ni 14.515135480202053 11.344474894264337 14.262928607676775
Ni 13.455658661542707 13.912416578231754 8.884025128387492
Ni 13.675909358973348 17.06966001152885 12.653643047766906
Ni 14.01966988886754 15.329959005709252 15.82603014778025
Ni 13.828335480063801 11.657598598507022 16.473759141194442
Ni 14.06161352091454 9.615152535666597 13.180239417674702
Ni 13.911356745625017 10.364619856766156 10.794491478124437
Ni 12.460230553699612 10.802419869565565 14.692995354845198
Ni 12.67754865774257 11.48089274548608 12.481999335873718
Ni 12.589701969337582 13.060489392764941 10.904233776339346
Ni 13.296269442860284 15.14501266791699 11.201149351043343
Ni 13.420015942750526 14.932530991162595 13.569056833247881
Ni 13.100016697924191 13.242346008971754 14.840305504749873
Ni 13.15858197342187 7.383813422759029 12.799258930065399
Ni 12.499400404458873 11.823310540600374 18.42252943718213
Ni 12.231583095659603 9.22068643016163 9.721800387439178
Ni 12.091909481131724 15.900041267857326 9.17209179288977
Ni 11.797928832884804 18.277409676347908 13.10553607334954
Ni 12.178168685192015 16.17112672493605 16.988511210061688
Ni 12.875217392868219 11.548432244349696 9.02069266155373
Ni 11.168329392398574 13.424043997705112 9.198093154778855
Ni 11.257283890185466 11.151777236834402 10.70305522215903
Ni 12.004656553146818 9.180582495534109 11.985033425191551
Ni 12.398967539885252 8.555282646014625 14.549927424342163
Ni 12.233693039204338 9.910793720831238 16.873094766727174
Ni 11.540901527018717 12.163177280745005 16.391077457077568
Ni 12.792930748815158 13.922889466141378 17.13104174085153
Ni 12.453225845681882 16.732826146333792 14.790199425729009
Ni 11.35839683006388 15.998613633082222 12.880214659751836
Ni 11.939135806238804 17.19705906697524 10.942596758756705
Ni 10.797185254593689 15.066639379782227 10.864313652732273
