36
Energy = -154.87773991 eV
Ni 10.582093460366119 8.429756811597608 13.459291836048326
Ni 10.440202403938208 10.809321385273083 14.013242696059974
Ni 12.11225435722816 7.624874433067926 11.823040468952671
Ni 10.258636472947376 13.247188899947709 14.238234349823689
Ni 12.020814768976752 9.974470066746221 12.462858150554569
Ni 9.755332764231504 7.618984521318838 11.362611304160193
Ni 9.633906950737279 9.908568315844576 11.939119548153776
Ni 11.836548793841208 12.331255463637579 12.809148264878099
Ni 13.90541382209201 9.193381572783633 11.334380749969212
Ni 9.259933681452623 12.174242997310815 12.489483210812748
Ni 12.600911512382032 5.634933391101814 10.75900736657516
Ni 7.877498765248661 8.850213509915735 10.598619582866174
Ni 7.544908631403018 10.971937736214697 11.579796671446042
Ni 13.303676706489355 11.424708870965206 11.076196255393802
Ni 11.40260611752839 9.24756676096499 10.195760305889296
Ni 13.366442030088663 7.5528871008521135 9.780811895192922
Ni 10.44970981327633 14.068163021895783 11.975314586937158
Ni 11.036828800750698 6.826248644235361 9.590967066584104
Ni 12.645210990222212 13.671600287850579 11.040332731511901
Ni 8.611782902275 6.944622604563192 9.424967964385898
Ni 10.939910600496377 11.760487153341531 10.676965687457404
Ni 8.647439531912305 12.712143962114785 10.232462061450839
Ni 9.281872947501453 10.422645415035445 9.590762543513303
Ni 10.809956495009203 14.032250554500312 9.698379179740359
Ni 7.023622600470208 10.887348649352711 9.341395654847219
Ni 12.174041902571322 8.27099791351432 7.948020199294395
Ni 12.428679609640778 12.323902455921361 8.998106642525817
Ni 13.342760056784817 10.004761179304186 9.161971775231887
Ni 9.875313959858337 8.500806559996539 8.294295990774318
Ni 8.813054003639005 14.411549287327416 8.620551702655813
Ni 10.085555075336325 12.396200504842495 8.233254911234333
Ni 7.567535615271189 8.815371229819931 8.252821135844384
Ni 11.267281638011903 10.429709950845545 8.0762887727062
Ni 7.764656091872302 12.506108762257474 7.861771703516875
Ni 8.943317647880413 10.513556017341932 7.248814998476677
Ni 6.599746441301778 10.627667239797287 7.071189933985335
