37
Energy = -160.05639602 eV
Ni 8.194075227449977 11.10582632150761 13.757758446793657
Ni 9.309415848642963 8.735118464023445 13.960908777276922
Ni 6.867109008567048 9.32055062164011 13.246330438853258
Ni 8.975155299251417 9.671959202572118 12.001261289741286
Ni 7.891172772594646 7.456986719141525 12.404194289326133
Ni 6.7810584951676915 11.198125488177222 11.747515416056173
Ni 11.447613952184206 9.303735141998885 12.075563841254022
Ni 8.34696399957595 7.226352074115398 10.096156115837669
Ni 10.15293659895275 7.372484721267293 11.976820645554294
Ni 8.85137200336983 12.409181492009722 11.829421507334356
Ni 10.429695518002555 11.062602538752298 13.262570456454585
Ni 10.098240514025845 8.757730591092368 10.01285961878649
Ni 12.119740742345094 7.635462131149234 10.415682152737775
Ni 12.541184269751986 10.804247441543493 7.539900605352348
Ni 10.657347706734127 11.235914365224158 10.910734359982444
Ni 7.243998669234068 12.820182680961743 10.019136251876139
Ni 12.34639904936191 10.011663327438937 9.915396352906843
Ni 10.367780177121363 6.141652053806416 9.962608837738799
Ni 9.533651647259132 12.802042410388514 9.394205314740212
Ni 8.45054086810875 10.81928026555292 10.064143093397014
Ni 10.292118430940501 10.4983484824058 8.499768205954647
Ni 9.73935096907715 7.405113167866494 7.956037361535214
Ni 6.947024608336834 9.005422277945613 10.837662851871537
Ni 6.245692506753112 10.762387204959001 9.330525643644911
Ni 11.898299882234404 8.56626219086424 8.166010191731973
Ni 11.767235459498966 12.280786387787339 9.08756863788109
Ni 11.910586395254846 6.276371130099751 8.303893030560474
Ni 7.615325470902998 7.907966630508775 6.670497233835383
Ni 13.41932813424913 8.964952728059027 6.44137131767509
Ni 10.353228876677571 11.938794947615449 6.839654996298239
Ni 11.122656294647 9.624219788184991 6.143463824137207
Ni 8.018658069473958 9.042132875545727 8.627409487741735
Ni 11.77759786435515 7.293675757310462 6.215595551427267
Ni 9.640829965127633 7.828421019113389 5.626012711706858
Ni 8.862781368224756 9.913515984831685 6.50248782787853
Ni 8.077199508796761 11.633231622407566 7.88420652311803
Ni 6.522902720239605 9.98356864462256 7.090935683492924
