30
Energy = -127.11268671 eV
Ni 10.016741155164445 12.003413909743564 6.477477787558341
Ni 9.399578914354933 9.753919535289494 6.95125809282098
Ni 8.910514523695499 7.733637679843448 8.034144978796931
Ni 11.185954652633022 8.623833519708777 8.214432571939955
Ni 11.219826846258288 10.98795889451072 8.202364662725207
Ni 7.914857934646043 11.521253727235734 7.398582034728494
Ni 13.137850526961344 9.834102598892022 8.986806729429095
Ni 8.794372070563115 13.752199021859779 7.351332743729695
Ni 13.092396871190477 12.256939918616446 8.799496369475193
Ni 10.236524510039402 7.397986134438696 9.968579121925156
Ni 11.110381256407756 13.372050102455727 8.096658469940762
Ni 7.164999488156282 9.454976049892027 8.50586831986648
Ni 7.8160284993213285 7.658157943108311 10.13351124629513
Ni 9.311366620763504 12.334983650929823 9.091363909194891
Ni 9.252648195328845 9.806143121750294 9.249629738160195
Ni 11.318777424945655 9.778764722217154 10.501917158773537
Ni 7.175697417536865 9.792486278977101 10.981012936204834
Ni 13.231425480359814 11.151594316802628 10.92175117309428
Ni 7.214570325348934 11.61089105451858 9.629109563093571
Ni 9.21051148301684 11.27467878555266 11.203868987870676
Ni 11.27620440298344 12.19497571263473 10.309834690850288
Ni 9.288512891495467 8.915133852499878 11.486924247633407
Ni 12.571799254275756 7.853226611410283 10.158752211447855
Ni 11.219043092141415 7.7381023501904895 12.158500932728378
Ni 7.355117730680962 8.036850489056414 12.535195080576575
Ni 10.797507853302386 10.141149010674944 12.815713662517338
Ni 8.34364244492232 10.192764922918604 13.167975327058874
Ni 12.983487834231415 9.236372897019972 12.155676253695704
Ni 9.145630637010996 6.583633385479367 11.960598922633775
Ni 9.49220863786791 8.195998777376941 13.739841050838708
