34
Energy = -146.72954824 eV
Ni 12.73473284333551 10.768070574578998 10.393192865130166
Ni 13.116285924049883 8.51586198073484 9.873684113401847
Ni 12.17492947393772 9.104848797398894 11.93357666027301
Ni 12.19542955031572 9.94402112088267 8.151576445682219
Ni 10.95080838365355 11.69141753930133 9.215345122276595
Ni 11.571038145602623 7.546463186573232 8.42109290713708
Ni 11.245789303280143 7.201859381822027 10.763627269904772
Ni 10.632551031914476 10.973619110051956 11.565133753529738
Ni 10.598864002271638 11.355851828214316 6.83313703750103
Ni 10.711065522981544 9.323759897750044 9.880881605705211
Ni 9.972938597987518 5.83866118526249 9.085809286821306
Ni 9.093871901266933 10.34701585933114 8.258610721148553
Ni 8.831471283625723 11.748100879689932 10.288984812849062
Ni 9.883986183782142 8.775546655803154 12.14196428168965
Ni 10.515064351039205 8.977600582896912 6.851773223406372
Ni 9.26854182720817 12.92887274254989 8.226569300448508
Ni 10.330303352621556 6.559527913626988 6.743726965769496
Ni 9.01717515115625 10.017722647170942 5.435678952531019
Ni 8.918756974183783 7.035442471681183 10.850128565607951
Ni 8.269402320848638 10.607559654960703 12.292118333364478
Ni 8.217978501271666 5.831773529101344 7.3327963615519005
Ni 8.228231928126181 11.918744206822451 6.428686445370353
Ni 8.264242425969865 9.386864638594055 10.355529326884286
Ni 6.57545786648163 11.633158466024693 10.773690723597824
Ni 9.099043895289716 7.9075757146470345 8.586565380981583
Ni 8.41678727277286 7.91309777011303 6.288522995982624
Ni 7.69278364774223 8.20396378398736 12.5824052592148
Ni 7.525222797474873 5.7651975080453655 9.509867710888676
Ni 7.189092850555088 11.777193342317428 8.512954094847712
Ni 7.202554478565362 9.797439723054902 7.054402329805944
Ni 6.6119855340445435 7.672521573136962 10.519769537632271
Ni 6.075973267616787 9.610514762998644 11.704352326665143
Ni 6.846450783843455 7.680089607747955 8.155652452878858
Ni 6.256685575121209 9.737328998174215 9.269431085619145
