37
Energy = -160.47102018 eV
Ni 7.159671989051809 11.202759879939267 6.423371220019147
Ni 6.307737106295931 9.79315804098234 10.571482136444912
Ni 6.444147416756428 8.772743361233621 8.425182301945876
Ni 7.1374982258718225 13.043032717902195 8.148238072479348
Ni 6.852034015883747 12.297289838449762 10.580122190137807
Ni 9.29348833750145 10.336855891229241 5.361122883330163
Ni 6.953418554257757 7.217167885306518 10.256501901526512
Ni 8.751510835232528 10.328017391466853 13.554215365160816
Ni 10.046686207499379 8.145570288929969 6.3353758506205375
Ni 9.011921094451248 12.695671785736513 9.559395098439673
Ni 9.140230327246204 11.979640353139331 7.226444905120282
Ni 8.405901895858985 8.849557036847177 9.840756860432354
Ni 7.372000792551214 10.917745330366282 8.821119259438259
Ni 8.183428578478656 7.254357856644922 7.922395734144199
Ni 7.637646215318512 8.76295860173052 12.174405847648199
Ni 8.425812427732946 9.475740749473559 7.299546109740412
Ni 10.405657899563598 8.138725457615699 8.795762933643742
Ni 11.518221204764803 9.306849975972467 5.084831243357402
Ni 9.79125042962826 10.546964365757617 9.0340747253293
Ni 8.713098063719666 10.92789111564637 11.282162423279171
Ni 10.976291927431818 10.368610928935627 7.002828646849852
Ni 11.163525998986392 12.407232493329385 8.378859608439477
Ni 9.251569238108296 6.219615321099448 9.679462815677327
Ni 8.611098260241846 6.674207687442238 11.878873908574255
Ni 10.590621981161455 9.33366642203471 10.8977980258554
Ni 10.221359159940263 6.139239123282195 7.441769056814654
Ni 10.982174207998316 11.74539639137125 10.679765944442604
Ni 9.894167830254506 8.37321482700722 12.926068177580799
Ni 10.971384823582326 10.57042761836196 12.78939417222721
Ni 10.850997469769345 6.999858609420711 11.195829103420577
Ni 12.228475393852811 8.436462168003873 12.47406393361916
Ni 12.84079290491068 10.326452994871543 11.269891232015352
Ni 12.237344287499377 8.310181247902246 7.466937590579004
Ni 12.121111525682885 10.268750371706407 9.027753867135141
Ni 12.593529235256556 8.208696268868021 10.015632666230687
Ni 11.738597831866032 6.203342381835354 9.155393623190173
Ni 6.707398320998468 10.953749235364233 12.554972580317393
