30
Energy = -125.4310702 eV
Ni 10.012322114726777 13.439469347300221 13.353224361499194
Ni 8.319233650068508 11.864862512559432 13.15398737578205
Ni 8.94485890040959 9.555453531196118 13.271610553044189
Ni 9.774888012113895 7.392642217968625 12.957911774289792
Ni 11.571166957681841 13.101100312110608 11.69185676114493
Ni 10.471955519106247 11.29829957124522 12.62847505322266
Ni 12.448037818420316 12.751791153824083 9.601495463022783
Ni 10.768465065153743 9.149096897352 11.791164350669488
Ni 12.284223521861627 10.855622914598685 11.039890967994205
Ni 8.494324579199345 8.18673297831339 11.178936048671066
Ni 8.576444292854614 10.622850027042785 11.225572640057546
Ni 10.643617125558487 7.033243181483436 10.806206679315103
Ni 12.081857177190706 8.680154026764658 9.858216343941459
Ni 10.310417300093853 11.841163837323885 10.161999295436836
Ni 11.936526084994098 10.70725018278026 8.712242413498961
Ni 9.153904020106632 7.078408837830504 9.05976783652974
Ni 6.899694267332292 7.398118600802554 9.563581927116473
Ni 7.479724144724892 9.631304304637252 9.409771547718458
Ni 9.88506042593642 9.451140167328067 9.543338796205513
Ni 11.659365254573917 10.862180434135345 6.448134274526153
Ni 11.428050976915655 6.807890920390856 8.584177828581037
Ni 9.778584115837361 11.193857258048084 7.860908026677924
Ni 10.98226008661242 8.848377765402596 7.464781265220916
Ni 8.093576747058139 11.881481212565633 9.303619479735342
Ni 7.502770700602532 6.6013975433800285 7.443094781635202
Ni 6.209039630199493 8.643228119821357 7.6749765066516815
Ni 9.852085107335371 6.868174503841558 6.806062604089521
Ni 9.571664991127669 10.002807340418006 5.878502246329425
Ni 7.502095841501112 10.723419399708487 7.275011287078685
Ni 8.50738395295265 8.672079282077059 7.39507989256402
