34
Energy = -146.04817146 eV
Ni 12.861493511968854 9.533251185496356 9.780729316179896
Ni 8.51259427875052 12.480634919265949 9.872888516665677
Ni 11.21666878833423 10.331520687001287 14.893674632840526
Ni 10.081753187251525 14.336715710742187 10.623742559551209
Ni 9.550002864980797 10.994285216594301 8.373519635395942
Ni 10.636915675221 9.892767018002113 10.29494565163081
Ni 9.193346006980207 11.242720648229257 11.816361533353584
Ni 11.240306435035428 7.67917944193659 9.359849942892568
Ni 9.35899227534988 8.10794315825682 11.006371122947302
Ni 11.451133208573111 9.458640393104114 7.8051337739229565
Ni 11.936893382956335 12.547771706683132 14.234113716854077
Ni 7.8821137668876045 9.448343623346455 12.398476429434316
Ni 8.138212879092046 10.041001794078419 10.077179605611716
Ni 12.05850457420407 11.54891956759531 8.588230373072646
Ni 10.138386350801511 9.25392383627456 13.00843703808355
Ni 13.56343296732273 9.863549520430926 12.094564027699844
Ni 10.86722217652163 12.22522385292999 10.496640793621385
Ni 10.311483924921246 13.210349652753173 8.372146684373464
Ni 9.234275129531316 8.61444723417813 8.608029972012538
Ni 10.226110269702449 13.174438937125014 12.749012490834472
Ni 13.186094613746238 11.743051828707396 10.627665713029339
Ni 12.2968176553626 13.630268554964127 11.90226742534193
Ni 13.449510512265816 10.607665372420406 14.418001043169106
Ni 11.615180953519612 11.052699914412166 12.501941575099355
Ni 10.518578606030527 7.444361764405789 7.075141027810125
Ni 6.9323058356199185 11.534287029232479 11.472385574624616
Ni 12.330229217945588 8.662023404805597 13.753175183649292
Ni 11.79676546806779 8.275697370684249 11.534954345822996
Ni 13.856841933364437 12.19708723261926 12.828689884358344
Ni 9.389689127898972 11.41011519820521 14.063124758025733
Ni 12.300099042797692 13.800056341952413 9.555084506778861
Ni 10.864827270632873 11.504836264243993 6.569371099356073
Ni 8.13681722367645 13.493922185057334 11.957150163975442
Ni 9.571324317367328 9.52797171195305 6.452117787631334
