36
Energy = -154.71316572 eV
Ni 13.393775267361159 11.100440027323982 8.55461966032774
Ni 10.634753705848583 11.639505880908906 12.331672813432265
Ni 10.473255595727283 9.83544727836404 13.94505991730508
Ni 8.025482290333946 13.676779519518947 9.91711669697435
Ni 14.15040018362438 10.508195686978445 11.171686550677233
Ni 12.95924058878322 12.499909069725945 12.380442305962777
Ni 7.841278888194042 11.429261043034218 10.614266807921078
Ni 12.128711469295713 11.482098542430666 10.479092609598755
Ni 8.932620893021335 7.890425692683203 9.986897702776076
Ni 10.743604518163092 8.33686012554809 8.648138574008232
Ni 9.51206303732859 12.40953600523574 7.902356929474538
Ni 9.933759350853432 12.416378151409411 10.171215459090591
Ni 11.527173916205166 7.798210312809388 13.235539711353542
Ni 12.169651750845786 9.765362850798315 12.25769653252745
Ni 13.813724847161808 10.689815748826373 13.602203887038582
Ni 11.692929267582757 13.858176357114049 10.86151810870214
Ni 9.630658476380079 14.856643841926802 11.328159676558084
Ni 12.023359056470063 11.654054149254007 6.733027115998579
Ni 10.138620427907231 14.504561774679571 9.058026274016
Ni 8.679900842999205 10.025112401714235 8.814374005757879
Ni 11.7904826561321 12.932885101411081 8.601282572809186
Ni 14.944880315000713 8.934601650691933 12.702351345534595
Ni 9.36790149280333 8.384309572068604 12.37214165381403
Ni 10.858169286744753 13.753566332297508 13.13623641563124
Ni 11.860063978377607 11.798747533669856 14.324135646845725
Ni 7.51676267902105 9.237885051624856 11.109735272463041
Ni 13.384228263008017 7.850074687731659 11.485984321918112
Ni 10.099473854537132 9.959993298307937 10.722856814793321
Ni 7.31648525528836 11.915899705958793 8.429863550534753
Ni 11.09823333056911 7.730954861538122 10.93283358653717
Ni 12.603168802518098 6.968856021584224 9.385762007142985
Ni 8.64535678067423 12.975677547741913 12.242977211954692
Ni 9.484089524886814 12.065932546522495 14.340833165705925
Ni 10.992943144694763 10.637137559828089 8.503872256873729
Ni 8.51202311906311 10.614240897136963 12.737963929864426
Ni 12.615647784930692 9.259005500693354 9.763466969187201
