36
Energy = -154.71111757 eV
Ni 9.012717456684745 8.325258542011802 4.421067550263516
Ni 8.020238456473203 10.513488298884008 4.445613303795816
Ni 7.3718679374826825 6.5418031424882 4.918641640336997
Ni 6.6479357552778895 8.913197434903553 5.351638819401569
Ni 9.65641775065303 6.017032874698624 5.5585783243097175
Ni 7.993954253285113 4.177566245790806 5.568975372311579
Ni 5.103656320616939 7.0746333841158275 5.0467582317995
Ni 10.800855656610263 8.031816117000306 6.2717498034578325
Ni 9.250580420979544 10.127648852690633 6.350337957061684
Ni 8.563990822878617 7.8760133982366884 6.5523622247052025
Ni 5.835300584973022 5.133946854950837 6.273364427446534
Ni 7.0318822535756995 11.29013268911819 6.5258232869925905
Ni 11.544886995455302 5.534511009520443 6.937037189443888
Ni 6.018543118304724 7.401348654269982 7.114512824214537
Ni 7.832952293429053 5.762489167626472 7.15711699265193
Ni 5.110039916366886 9.738172614555285 7.249494334676501
Ni 9.58490368115542 4.2890848944394255 7.438618686034447
Ni 7.308781608019252 9.409117824611037 7.6652150804800065
Ni 7.832611607468274 7.383235085089882 8.769437842527312
Ni 9.75869575238521 9.024477833086776 8.407208255541654
Ni 8.66880578815959 11.195597456202163 8.544296527365226
Ni 7.2108793018323905 3.7758068068755666 7.953931701891194
Ni 6.275822574457679 11.047664103714839 8.987324147252918
Ni 4.243967811217021 10.073752048786885 9.513863764915905
Ni 10.034308643252041 6.70529312685116 8.151839410327353
Ni 8.53975210341213 5.288097167289863 9.52809295905247
Ni 5.668043682479485 8.287506612403002 9.278712326855763
Ni 10.908711576095302 4.925254926157532 9.243970741849068
Ni 6.175713108300582 5.799323636165961 9.000233843083903
Ni 7.8067586666575846 11.37380453971941 10.917930154229587
Ni 7.870595831703652 9.366798505008918 9.91423414293681
Ni 9.888248033866645 10.142259836542749 10.528909429479052
Ni 5.965141774589194 9.739409496159729 11.159276597279208
Ni 9.464849099290412 7.573777680362468 10.453214094111265
Ni 7.062504740283871 7.259951016387474 10.9608855202382
Ni 8.199518568716657 9.145162069672455 12.104166438068564
