31
Energy = -132.91777183 eV
Ni 11.283917933343924 8.216034127299364 10.850873805216937
Ni 11.762493965384119 6.648654066565291 9.090713037638537
Ni 9.626415628965345 5.979783052714301 10.565478151477324
Ni 9.481553108662984 7.820674245721899 12.182919319415927
Ni 12.11676909801651 10.401503733189122 10.434466598087901
Ni 10.32530417939085 10.160112745749224 12.106599181627448
Ni 11.697978718625828 9.005957554651362 8.62170505653793
Ni 9.9347361112987 5.628536049301946 8.049882550944472
Ni 9.693624066754463 7.715698654729284 9.180570823140082
Ni 10.949597825187505 7.575757863151072 6.939604696248375
Ni 7.6098984425675305 7.2958671411823675 10.896592173316959
Ni 9.688859539326037 9.988316735796742 9.950740919483096
Ni 10.66796465403084 12.176241126346778 10.519001219943513
Ni 8.033076225053962 9.529931440342674 11.53936739499436
Ni 7.769078934343775 6.184162639026728 8.826844923669382
Ni 8.549843443810545 11.788532268135482 11.279275511678795
Ni 5.877152270147122 9.044323830812557 10.730062622604052
Ni 11.424129685350264 9.929290275359559 6.412323322782341
Ni 9.449483066851013 9.536510808726707 7.664259055858693
Ni 7.591003136124561 8.730911828699098 8.967740309043293
Ni 5.679878849082536 7.19436261756221 9.417432097498144
Ni 11.124720774070177 11.282673808178602 8.337710676370449
Ni 8.632999647304537 7.33999475906667 6.96077797448281
Ni 6.9805388436358395 10.864518827888697 9.780293721888825
Ni 6.325127222189748 7.379568799358129 7.237376999742297
Ni 8.910598734280923 11.940319289788288 8.862118303298882
Ni 9.542495052939222 8.94534780732117 5.417260919632024
Ni 5.617528087536747 9.517048312436414 8.236044064865192
Ni 9.378705674288495 11.444658962803071 6.523108707359991
Ni 7.143006802784468 11.315595673707316 7.50237642111199
Ni 7.414274940211712 9.32616543764661 6.462552381148825
