34
Energy = -146.12147419 eV
Ni 11.964439324167527 8.546347370202716 7.616064384765807
Ni 10.24612034866403 9.963927176370015 12.915247300143042
Ni 10.842195514971207 12.318079264990205 8.784887030449788
Ni 11.910581175819903 10.90938245923061 7.247549079969769
Ni 7.233458641952744 8.648179978015591 9.421729707450906
Ni 13.181461104954417 12.24454814394835 8.72719314228252
Ni 8.473351500711276 6.8741538479237985 10.57148021641773
Ni 12.559526414314305 10.108527319212607 9.507595963262355
Ni 13.720329411958126 9.055258440242254 11.243309698347515
Ni 9.033911246873297 11.453572376166244 14.261073729178044
Ni 10.317556473602892 9.737168200708567 8.719962962315085
Ni 9.662735428105846 13.187015597149149 10.67345920434355
Ni 6.919720663675632 8.077849289421922 11.789042401576136
Ni 9.251193493139905 7.78144744669576 12.636335514585832
Ni 8.95909640630228 9.193244662652178 10.853187738171467
Ni 8.292641362149313 10.91210261660327 9.244876300171576
Ni 9.439686656110617 11.309496004421103 7.133220590722558
Ni 14.135342716951882 11.401244140447526 10.703687709452636
Ni 8.227427386292105 6.831285603985162 8.27320265747379
Ni 8.528877054072721 11.572375761822405 12.011574156829566
Ni 10.675006886545741 12.323873215907481 12.74103692376427
Ni 11.27185281385502 8.689317856184829 11.203370109338929
Ni 7.8912601460239875 9.670631098257392 13.18828098946599
Ni 12.686469590600634 7.716846119802693 9.62997123401215
Ni 7.288957814503764 12.662613683639176 10.396365117925358
Ni 10.49154340143311 10.992895721335818 10.715064444254692
Ni 8.5154202894865 9.075511504206386 7.480811692799143
Ni 10.321890784300495 7.483335008986751 9.275883398104831
Ni 12.382911375613215 10.726054902494603 12.122519314622801
Ni 10.446306313228602 9.476236440074468 6.058669324547191
Ni 12.090341631318585 12.702364860874729 10.803565155085186
Ni 6.777553617182698 10.333128607044376 11.041930011597346
Ni 10.044693014117856 7.357538696788711 6.935317630984126
Ni 8.650394827530839 13.098701414724369 8.506789996119716
