35
Energy = -148.39318332 eV
Ni 11.586706909864791 14.047471267649197 11.505221723536215
Ni 8.979972093429586 12.024524490129084 9.47256114776608
Ni 10.231579678778898 10.736861422700805 13.245727691531712
Ni 10.836263979433765 13.025545968810375 13.683688407141823
Ni 8.466614245824278 12.346829704855583 13.477675840062238
Ni 7.389786914310508 7.8653078761266135 8.532999800335231
Ni 13.094452430028307 13.401468261563139 13.170982482866004
Ni 8.87506551925459 9.107170191210185 7.169904660162851
Ni 12.99391807588004 8.329479106064616 8.652053436974423
Ni 12.406821227707658 11.296942420996182 14.031637025624327
Ni 12.61043244832731 10.340231289233065 9.93570111304793
Ni 9.771423002364877 8.60259228738597 12.338103363759863
Ni 12.168506627751063 11.762938184216871 11.785893065030624
Ni 9.934332655186012 6.635520741809476 10.991848815386994
Ni 7.7441305599366865 13.209824230150915 11.22099874965854
Ni 8.217046209841225 10.517848636187729 11.870248916675871
Ni 10.767301033944168 10.272166466078662 6.161464268406316
Ni 6.367368963482476 11.849912975620093 12.526632836938715
Ni 6.734743706797495 11.377801314066904 10.263411172645695
Ni 12.095781859735077 9.50005112990979 12.417636231101657
Ni 9.862843095428184 12.488857495539367 11.646755952538843
Ni 11.599671246014928 7.1826350093304985 12.605521995967461
Ni 14.346574540421221 10.20405512622746 8.340620808230298
Ni 9.702025209808385 14.190562976694325 10.090524070294553
Ni 9.618489556408608 7.990872480216289 9.159448951747935
Ni 12.415398159324978 11.391041746271615 7.770666587666738
Ni 11.627590103171277 8.195708173451557 10.522862430705885
Ni 8.011402531663249 8.232486684686014 10.87165817767363
Ni 12.952551273689954 9.47287874325487 6.605915169752055
Ni 10.502238231093852 10.309817522303128 8.457500225675702
Ni 10.333726519644339 10.256229337030435 10.770597974228506
Ni 11.43643594875502 6.547995602448664 8.914361170848677
Ni 11.074880719043087 8.249357314577365 7.282318128372061
Ni 8.196640535515161 9.897727124795749 9.318613105715615
Ni 11.321904959153075 12.414789897837776 9.627341475682464
