34
Energy = -145.16364303 eV
Ni 13.086993268521978 8.625211063960776 10.275428871067355
Ni 11.366922591420789 10.832676070955612 15.299513026244123
Ni 12.875698878033749 11.145121090546327 10.387064654922812
Ni 12.483590352369248 14.656492205427647 9.196817136480776
Ni 13.858130883639458 10.038242551443261 12.181233899295856
Ni 9.269759738826442 13.252572016967441 9.277271790530447
Ni 8.909598181535358 10.451906118935021 12.026763239498802
Ni 9.63229823634948 8.045198235983463 11.817055120430942
Ni 12.127613355106273 14.057527375560603 6.9964785610805835
Ni 11.604274558314941 12.506627117472341 8.726596946259106
Ni 11.47825548159557 9.984305621942871 8.97727397454178
Ni 9.59446473225675 11.15695260758881 8.219313131525118
Ni 11.80204728453074 6.795242193578127 11.36265375988601
Ni 8.970311750834869 12.89604399117204 11.688657583844464
Ni 12.540463809728712 9.402084318073928 13.965082638174016
Ni 12.29190575350272 13.33468908044404 11.048415974378724
Ni 11.622025495130021 13.05228152140752 14.844317739280328
Ni 10.030770681082362 13.10088077387894 7.020486982849093
Ni 10.410958036907287 15.033763620215138 8.293748518691679
Ni 11.794622938068402 11.586086261432872 12.698038031745789
Ni 13.507203295590596 11.565301199890467 14.195568029518295
Ni 9.762087149557976 11.88431106512703 13.770696157298147
Ni 13.502881809128567 7.7781083961648045 12.564487811356932
Ni 10.445077203167338 14.664616818495428 10.668993782482671
Ni 8.043861419292641 11.421129908996365 10.035415636532463
Ni 11.452592847236412 9.39684727379538 11.641917813522436
Ni 14.231161233341238 12.305456333899246 11.950763690101894
Ni 11.311024977393394 7.485376717934001 13.478305476029059
Ni 10.174135688158657 9.523783005003502 13.729808953002195
Ni 10.770255938535495 13.848732238279547 12.83448422923033
Ni 10.48139106383007 11.514981195506802 10.599980152277823
Ni 13.093599677126743 13.811527537673868 13.25951476101906
Ni 9.322617750553315 9.469299021761048 9.912455289959736
Ni 10.870821777756824 7.824116750729163 9.606559557832714
