39
Energy = -169.64610206 eV
Ni 12.174253286522086 7.583849047042649 14.286218708111342
Ni 13.429560950195132 9.162989516213822 13.158838649227276
Ni 14.816974612879164 10.584853541738223 11.89671679039369
Ni 12.643710818584891 11.260486876600726 12.443117957000768
Ni 11.173288460611994 9.714100092858727 13.942144565966636
Ni 11.741688443636301 13.406988043566177 11.857547117607123
Ni 10.258391715284779 11.575904777325626 12.625012808493349
Ni 13.207511873918037 9.344585148043969 10.799193050647528
Ni 12.37899087670578 7.4010213346347085 11.931090102971487
Ni 10.244205925535642 7.5822628954587055 13.024276976744028
Ni 13.708928568417443 11.45897968140414 9.975073154390236
Ni 13.252738450481033 9.601223963722862 8.451059636930344
Ni 10.998911999628028 9.46594128522971 11.694603034929402
Ni 9.578863272263291 13.209039523884462 10.916412714994753
Ni 8.92945658783422 9.550870471785526 12.912923098618613
Ni 12.49909593122482 13.408178288689243 9.603402647135274
Ni 10.913622044064516 15.01112507962662 10.208828055812731
Ni 12.531317624171393 7.522317137830247 9.509691600997435
Ni 11.3805916158412 11.517169882514105 10.463727542574814
Ni 8.738620294545294 14.802100128111661 9.287333021626402
Ni 9.315773896719865 11.30647932495818 9.321414955631742
Ni 10.423400178929565 7.338580827394541 10.59872750542982
Ni 7.542785446285762 12.863934464390537 9.68754061573364
Ni 6.862656803607276 9.32138930561611 11.637441637686374
Ni 10.403510117744542 13.33349047561 8.543355624406818
Ni 8.283363686408029 7.403955418931782 11.717559321934633
Ni 11.056988151711902 9.439039459072829 9.308819719218231
Ni 8.177551647384803 11.335281311492745 11.468237069173252
Ni 11.894104796437018 11.508400276301538 8.15972522026685
Ni 8.87476845277102 9.275542690749823 10.46270521733509
Ni 11.240302559687679 9.518861236616061 7.0002096299669585
Ni 8.282943895013121 13.215596222934161 7.520207111486505
Ni 10.584043281604036 7.448485679332757 8.166573183860214
Ni 9.734583308449912 11.389211634647967 7.064681534322847
Ni 8.486054732822895 7.227860771070529 9.265536865944954
Ni 6.232184533602185 11.011070983518545 10.124085960157677
Ni 8.997656407546673 9.24357181165091 7.9572482726460505
Ni 7.403820545227532 11.034600044809553 8.019613557695116
Ni 6.938408826769509 8.99492037173658 9.211277476279525
