33
Energy = -139.89411385 eV
Ni 9.48663205649613 12.962863834188372 13.06603660688371
Ni 12.964504485489279 7.761320353196573 9.291870787652892
Ni 11.346355085612904 13.071995138455058 14.520934867320669
Ni 10.634378356932055 10.770689097623766 14.096831401518083
Ni 13.664169924591091 11.66565444924038 11.6259587513508
Ni 11.973334510434759 11.301219395971989 15.927500597885723
Ni 8.378575039943419 10.96814395368656 13.366041138737577
Ni 11.139616295581778 8.971543935652697 8.337761841528131
Ni 10.027369712174174 11.207659280578314 8.143881991715418
Ni 12.331242270743175 9.734359621439298 12.39641223043829
Ni 10.5205562351502 14.096401690928769 11.193989024095767
Ni 13.177953327597146 7.684477779124292 11.694831399027795
Ni 11.563482257135712 10.433641985411754 6.547505539029075
Ni 9.967844629256156 10.01821768619623 11.938901027270175
Ni 13.788081259379544 9.58330037713363 10.467093669154918
Ni 13.242221964702948 9.89542385631258 8.12379182993934
Ni 7.68081606340451 10.18043629343425 11.28992723471089
Ni 13.068608210023317 11.586572001418132 13.873171226633579
Ni 7.741979158094587 12.468042300080649 11.567853867594266
Ni 12.38971733003838 13.072164970365952 10.216394295704967
Ni 9.684112167542565 11.982125551606108 10.472769160297913
Ni 10.450825733939983 13.48139892709505 8.888303354345688
Ni 12.675784234502574 13.7530807617816 12.624393710165377
Ni 11.706118442566337 10.69415478054613 9.960539899643994
Ni 11.385810076239633 11.959100226088358 12.140228132449835
Ni 14.131583016933927 11.662052266959682 9.343706874736416
Ni 12.2090816254939 12.109486255209402 8.044393708994603
Ni 7.849426591157587 11.393683147332972 9.19936254529276
Ni 11.221029319056452 8.433430607972916 10.674463690032914
Ni 7.097786034594343 9.20803680416921 9.31933567660581
Ni 12.500243697562421 9.427625522127048 14.659289079227253
Ni 9.329477947394619 9.562266686359727 9.694507586633994
Ni 10.711345940178575 14.939493462255726 13.332080253324712
