32
Energy = -135.97750449 eV
Ni 8.535284539993778 10.689047379029342 13.896348672976345
Ni 10.681474619745465 11.772177558464625 13.73580070370063
Ni 7.500336067115563 10.737520191455985 11.799849211092322
Ni 14.463173609084198 13.44944424505399 11.520484402168638
Ni 10.099086283549829 13.581055356252605 11.008926917173872
Ni 13.231261403386656 8.898370075080656 10.834471721138824
Ni 10.588034249606903 10.186723160485759 8.07170211980474
Ni 11.335209004958973 8.02110483317666 12.03649934251267
Ni 9.350507333776457 7.34511077012669 13.359298397001831
Ni 12.305376641613398 14.417649968011991 11.157083904901844
Ni 9.135675563309103 8.989817872796195 11.764375135256259
Ni 9.912370158291711 11.271426698941559 11.575751266015482
Ni 15.022618996840244 9.898938894369804 9.495106378482394
Ni 8.073660328827183 12.524538250796178 10.428865098711839
Ni 12.800631069928023 10.156572467301388 8.915133095623528
Ni 10.957783555144553 9.499585604516307 10.258342607034109
Ni 14.366882171446898 11.607283861417976 7.99914698152713
Ni 11.313686400657547 14.10138837168366 9.039853147130815
Ni 8.660740963410928 8.696493417705929 15.119089723666178
Ni 10.776090016682573 14.05435347590266 13.143573461066904
Ni 13.975283662738095 11.1765212754976 11.167415608244475
Ni 10.445793195152394 9.39434614069462 13.765423582068003
Ni 8.749875183064471 10.258137076944633 9.743834969443936
Ni 12.019072638478452 12.161816170042654 7.890556860286115
Ni 11.932558044174268 11.981365191583949 10.310426773904998
Ni 15.596170189027854 12.241248220290114 9.853277638978861
Ni 12.526477559328823 12.582789454434947 12.552682952898536
Ni 7.352369961571716 8.77392429755695 13.201629531178671
Ni 9.931324538740922 12.180504033801293 9.041491334298053
Ni 13.554028728196036 13.372051129947168 9.355393251616086
Ni 8.651980427208258 12.795130152401681 12.79125916889834
Ni 12.04618258022972 10.289862095667777 12.3016867293156
