39
Energy = -168.8529304 eV
Ni 11.22755484597986 13.615168449687076 11.82085448589238
Ni 7.836146158204666 12.759842965251492 13.366035867862289
Ni 8.933132560347184 13.233194055224923 11.333168731757711
Ni 12.83235163720393 13.010876825156283 10.217173618505528
Ni 9.98133467973691 11.95491995251721 12.951328259158215
Ni 10.548227575242498 13.066124232364297 9.610018535324219
Ni 14.428194982797233 12.18924020905188 8.830720962774334
Ni 8.291201929294399 12.386895117833404 9.198396671507481
Ni 7.104912549845045 11.685494790147363 11.380216090395194
Ni 11.53733964103385 11.329516965739188 11.227169226761458
Ni 12.227283398407549 12.709644413853804 7.918323011507318
Ni 8.126722798250466 10.431559757312478 13.1727516497632
Ni 9.17126882228636 10.825483838605985 10.83645411506247
Ni 9.921030894181438 12.592566974378162 7.348754953451098
Ni 13.922939437533122 10.956848485918558 10.950005693462874
Ni 10.289524588484525 9.64109089496697 12.608563192034596
Ni 8.329998835389308 10.806553889660881 7.428891493018315
Ni 10.318142093850032 10.817276040700502 8.763714583879493
Ni 6.92026216747503 10.47105350685764 9.393441419219375
Ni 12.600276931088583 9.404192267079969 12.200828004060675
Ni 12.717170370514854 10.681682583724067 8.989271747296742
Ni 6.834833638318663 8.996374437968884 7.458866167795583
Ni 10.965674812602899 9.149357248562795 10.340416097561482
Ni 7.565477595849929 9.058700299865086 11.309947722767761
Ni 8.676820676065152 8.964876194213357 9.109168711205927
Ni 11.09391008415003 7.476083431789489 12.465104979136344
Ni 11.585385774932494 10.675025219724123 6.859214783596838
Ni 8.723367015956626 8.044324538398346 13.10241451678902
Ni 13.41102835015689 8.747271298834285 10.12637636902899
Ni 6.248925938021657 8.210335180674338 9.56579361138789
Ni 9.87550146159453 9.01619535640628 7.034546209655828
Ni 11.907937945069776 8.614359412267499 8.21066020674298
Ni 9.316048821327177 7.44426003616462 10.91907959158669
Ni 7.860125251929103 6.594531995970781 9.278960060342605
Ni 13.3775308908849 7.225441481316151 11.960965412256485
Ni 8.29261606541471 7.259391814186574 7.092409846459006
Ni 6.078553370307015 6.7637385772033465 7.725931156441117
Ni 11.804681617140195 6.991223264076425 10.21459167256623
Ni 10.102419886024528 7.184145986782981 8.61909480678333
