30
Energy = -127.04863871 eV
Ni 8.827979170433565 11.044307353026259 7.632364792950456
Ni 10.095811068272916 9.181926980584114 8.339306588879037
Ni 9.689979834402484 13.255464679364968 7.731597694187425
Ni 13.146201601397202 11.950316750767596 8.621542784786465
Ni 11.821297834835944 13.929344479619044 8.527005283818092
Ni 12.34477463375383 9.653503189009315 8.590264877869991
Ni 11.450128311788744 7.5229378155233 9.379363111402148
Ni 10.836673538055022 11.519622399782083 8.799057851684845
Ni 8.607324941380499 10.125363847732872 9.792568792598507
Ni 11.788149014828406 15.166341038531922 10.66072199148556
Ni 9.158945452023671 7.898300081338599 10.213329966739197
Ni 13.430723360607518 8.510999516523594 10.330288263568992
Ni 10.95047342186098 9.23571222392751 10.942427486146917
Ni 8.294089341733894 12.426462570109711 9.497859562106727
Ni 10.001288115772534 13.911087493473985 9.97231269826074
Ni 10.359945215035536 5.956745201708838 10.784290082619272
Ni 12.160154396862657 12.892042154480912 10.569693705093423
Ni 10.701769756361482 13.664150382520448 12.24724530275708
Ni 12.118006829133387 7.172873139062613 11.701687998422189
Ni 7.4747286713027545 11.399491297956615 11.506150167992368
Ni 8.779219349419046 9.599868329717491 12.06744885120573
Ni 8.430709089070215 13.474509088990528 11.681151108713335
Ni 12.76715415541167 10.727325935640492 10.610455459060681
Ni 10.021658932789208 11.57710758994531 11.049752947388846
Ni 10.620510613205894 9.698630045158156 13.495526597345679
Ni 9.960596446279416 7.582811376839741 12.453614126391237
Ni 12.768044864750282 9.356324399683936 12.516640712209986
Ni 9.348248552631018 11.75906269906933 13.201734620731633
Ni 11.75260774588885 11.56531778397563 12.62701235906796
Ni 11.771901057746282 7.721145472969805 13.936679531549425
