36
Energy = -154.74735718 eV
Ni 11.601210422529121 12.3555879021931 8.429172799722988
Ni 8.879098457980565 9.711631993983863 9.575601962974403
Ni 7.404154398235867 9.880340378829969 11.423100536851607
Ni 12.619016282800018 14.297201275165806 9.322272981632583
Ni 9.749167362533628 9.471464986941463 11.80791998146296
Ni 11.003879090463693 11.536596823647583 12.431882222793824
Ni 11.558168963567939 13.85244293231141 12.607268921680491
Ni 10.60066285412689 10.174696208340016 7.983883145251914
Ni 8.748471614949056 11.76694255839171 11.075887758054519
Ni 13.177288500771906 14.199192854292644 14.233552918056517
Ni 14.826724490468555 10.318092258254557 10.181228978056003
Ni 7.101600004913332 11.245367764087112 9.514286102383378
Ni 15.236944872827289 10.77444219413809 12.51641257969946
Ni 12.013933113596774 12.062355123641295 14.593941173289721
Ni 11.577539563983658 15.472079645912995 11.001331323449207
Ni 8.556813323196334 10.862006000330174 13.263757719079065
Ni 9.204456657732708 12.009752233684107 8.751146484335067
Ni 11.061158368043195 8.695608999099065 9.93498838119174
Ni 9.343330445481577 13.146234767577546 12.913204693721546
Ni 13.644336042925405 14.47623554402964 11.733604850919162
Ni 12.639708667902964 12.557035201869548 10.753082641167973
Ni 10.85490965519196 10.982752409652331 10.152405664291559
Ni 14.35751343498648 8.67278000159368 12.242788021489067
Ni 13.61380730443708 12.33469754810056 12.905220815787052
Ni 15.004707561972825 12.59523142638552 11.006840852148317
Ni 11.85893930187475 8.51921626550909 12.284794223430598
Ni 12.881438258190709 10.333506986318538 11.392630748765512
Ni 12.774822990514584 10.248628702228459 8.932683639457089
Ni 10.735036745198652 9.919545953033124 14.005388209302804
Ni 10.691048787387524 14.070957970848701 14.743090679667553
Ni 13.349596756515178 8.308921625805594 10.197265141280154
Ni 9.707374674440032 11.960225154569864 14.927819905474509
Ni 12.298310264793047 13.604218520011724 16.29253677845934
Ni 13.99834653686024 12.268446773397992 8.883532291200863
Ni 10.425859857558411 13.401918928324633 10.480678005132514
Ni 13.108448916911541 10.121468633362392 13.712621414201406
