34
Energy = -145.37554784 eV
Ni 12.65820038127372 8.34386286240848 11.813993301214863
Ni 10.210148430018306 12.068211053096134 7.640701410495991
Ni 8.689598982051272 7.120138029765913 11.956881976183887
Ni 13.667006896356495 10.82963177068599 8.865367290609402
Ni 8.675725688273337 9.202770080360503 10.499293578049873
Ni 10.825680332390835 9.803892388289356 12.13784365303805
Ni 7.962894033683401 8.600678888466113 7.697107155122509
Ni 12.818353526838406 10.651610111296415 11.055531440443728
Ni 10.609322256536947 10.571059812021247 9.854517205151058
Ni 9.631472011987658 9.962434214108187 6.6377687316157505
Ni 6.306958336168976 7.308875244860949 8.699477159956496
Ni 8.708888861675426 7.2054951612866285 14.279801306822213
Ni 9.507044798610515 12.675025356130005 9.865247539739364
Ni 8.903298019960163 11.218341181255301 11.731826767502449
Ni 8.529241574191662 10.727539965197042 8.574130984896737
Ni 7.235919138401308 11.702192677634466 10.212241396432239
Ni 12.648414364360153 12.393967202206952 7.344019435564248
Ni 10.978914740758402 14.067275201919585 8.418825011627588
Ni 6.861159854586807 9.964171068701527 11.824676246337633
Ni 14.460490958122735 9.1531254079419 10.42440592477047
Ni 10.61948755897842 7.75033576941209 10.705268328161278
Ni 11.744198130218999 10.192686838588505 7.66723526456752
Ni 12.029854896354754 12.405928499351484 9.594067567980805
Ni 12.347035265876796 8.874771270336549 9.513614202344279
Ni 8.762971673991878 9.200961611568852 13.087307972555337
Ni 10.152992222532824 8.61347886732652 8.545954239756263
Ni 6.7581895509407035 7.9965228835814255 13.196492630821773
Ni 11.048368687469425 12.127475967987705 11.696785340615001
Ni 6.603101082208952 9.55382553914806 9.406088176932277
Ni 11.091324442211372 13.671044628139432 6.136106264143446
Ni 10.701888891140662 7.699319575415451 13.09213279409119
Ni 6.641559495243099 7.699133813471203 10.922606251242595
Ni 8.538053735362976 7.108531733444214 9.52043522841299
Ni 11.305717903282835 11.377001803869673 5.667604180763606
