32
Energy = -136.16373967 eV
Ni 14.092990363583876 10.445238372815329 13.331482753851214
Ni 8.898771780308595 8.778932317690582 11.652967667856888
Ni 5.958939456307023 11.65855771857369 7.768505237017959
Ni 8.399143214361237 13.287234469873285 10.610134849298188
Ni 11.136658903403875 6.1944575723359465 8.870723681174576
Ni 8.552066814329265 11.122403608417917 11.472446570546607
Ni 10.142407897876115 12.218728062843356 9.483180477381644
Ni 12.297228007374692 11.728331260199768 12.884937841956527
Ni 10.401960115730395 12.503738585422392 11.78314957712174
Ni 8.580705853472011 10.360121790340937 9.137154154481435
Ni 10.402547967849088 10.308660268747476 12.862218292250757
Ni 11.455653898404243 10.545965883141426 8.440336840217867
Ni 7.850954800619285 10.557009249744473 6.922271146602839
Ni 8.780316327889174 6.190395560018671 8.631186342654628
Ni 10.140686178365172 7.125073746943231 6.927363379617017
Ni 11.979547301132818 8.275017838825134 7.9843257347927965
Ni 11.849228607797103 7.8948449096524955 10.392993883076594
Ni 9.744623897943303 6.735716475661365 10.7775589486706
Ni 10.905744852973791 7.997733707009607 12.507255260664527
Ni 6.757164416479935 9.582398781559526 11.116748093819991
Ni 8.009952355269968 8.222763426048978 7.498520599562195
Ni 9.961158107523087 9.450260552547732 6.949242366337699
Ni 6.423902342368992 9.567270962069445 8.729518893202382
Ni 12.282611056003411 11.608058457372353 10.510556362229217
Ni 9.889589740888193 8.317508671068028 9.05209993403321
Ni 13.21116537059686 9.596744722006155 9.617051339988265
Ni 9.920539569980122 11.773944461856482 7.141892999835503
Ni 8.067092895672783 12.570988948346425 8.321979791838936
Ni 12.606254565107829 9.570368212234083 11.934204993804292
Ni 10.61075316154008 10.025817288468815 10.589091691798783
Ni 7.677295331050488 7.866425785338881 9.822557104800458
Ni 6.73903253032926 11.645976015357785 10.003030872046892
