37
Energy = -160.52395044 eV
Ni 9.291618230489256 7.963087523644594 13.362193312250858
Ni 9.115809877541656 6.23492814434843 11.70040604270009
Ni 10.600629413568921 8.149033020429387 11.4643165767281
Ni 7.2454597779577465 7.149573569284516 12.657112136194824
Ni 11.331705894078972 5.940925295041307 10.968080058667388
Ni 10.049900887858277 10.120187847298915 12.79587566615469
Ni 9.596217963059619 6.498675281894391 9.445297586741042
Ni 7.684003094003059 9.57834699187425 12.619813116049817
Ni 7.185757686869117 6.624830041774918 10.160493619114572
Ni 8.357463388867004 8.475409946411553 10.723049621009094
Ni 11.717241148332295 6.004986725960351 8.632901577843038
Ni 12.06434073115201 9.945055208843533 11.115121846558987
Ni 10.364837175573514 8.696868603625653 8.979256750760515
Ni 12.347575462499245 7.850768987107352 9.908337649554051
Ni 9.86533425091801 10.483017692903143 10.540374427477666
Ni 5.92088388510464 8.437540141582618 11.354944679578427
Ni 8.428690301463261 11.746794544682569 11.732666296845311
Ni 10.410477841320679 7.359666938353757 7.130260670403844
Ni 12.457280357634936 9.907357565764569 8.70650083500404
Ni 12.681819469791524 7.860265244383422 7.546890590952577
Ni 6.210933754193832 8.613942846922958 9.080171967120272
Ni 8.142469040905086 7.652575819867811 8.092043602971016
Ni 11.92089081751966 11.875203203059202 9.796938717017778
Ni 8.204769913321838 9.892472574315486 8.804531668124296
Ni 6.7735936976054285 10.502606635938026 10.611060812825974
Ni 7.930152291758935 12.154202192399651 9.323913367864302
Ni 11.46970188994392 9.636818719275292 6.610637985966764
Ni 10.226271477021616 11.047972717474876 8.275093678107758
Ni 12.05925548428145 11.959807859357824 7.331848050290251
Ni 6.815404756522957 9.306199361106502 6.87798009075148
Ni 9.91645985379761 12.935958674296174 10.157387888816078
Ni 6.048636232494316 10.962760348576714 8.38294542714677
Ni 9.1666452796052 9.365944706532419 6.686849049650744
Ni 11.565781143017379 13.855914443437806 8.662377623353244
Ni 7.984346673068839 11.466182233220303 7.016667656829453
Ni 9.556420404863323 13.141862951157446 7.727716678814829
Ni 10.128204460506675 11.512524846810196 5.962413085294254
