31
Energy = -130.14903357 eV
Ni 14.283986422290063 10.416384100724404 10.856726607669282
Ni 10.381852839492586 8.164675376887416 9.521288123971738
Ni 12.211673295953569 11.001217061627305 14.19979756992839
Ni 13.880315900121225 8.126569328593224 10.922818310361933
Ni 13.777747659202328 12.636243003904799 10.601304965281754
Ni 7.383070274680014 12.937732037615943 8.160167161622132
Ni 10.597450369218459 14.324063247840211 9.263537342538143
Ni 12.097435383431787 11.341893643614197 11.742368296301718
Ni 10.976219682111788 9.415638882441531 12.901228107473267
Ni 10.312450811598756 10.317502897542063 8.634389657933104
Ni 10.03603250332158 10.425326650771746 10.970100788744233
Ni 10.088946412232119 12.88924825404054 11.228300622243912
Ni 9.340148300253679 8.242637363384715 11.61861676707707
Ni 10.745098369194931 7.186148118180716 13.441916796011036
Ni 8.812387935714105 14.727256505729617 7.798653140128827
Ni 9.679576154077777 12.508005228378494 8.191692412342325
Ni 8.093218817683475 10.735217251918673 7.822633505681683
Ni 13.429547354236622 9.479410800923995 12.792764481511275
Ni 13.129984062787987 7.169565118442909 13.050741919598405
Ni 8.422016931409587 14.060344574228312 9.988056223273707
Ni 14.053325649764513 11.826434012514536 12.856614321053252
Ni 12.209197001428727 9.67090165331804 9.991908187587542
Ni 10.093160763669452 11.567082863469613 13.136763508545691
Ni 12.08168338850794 14.139885612588618 10.95789936019452
Ni 11.663031704789015 7.730209820951147 11.380690394703679
Ni 13.88495008180235 14.115656274828682 12.431900111513166
Ni 12.259080038439082 8.649743822045107 14.662097637068651
Ni 8.371964505860337 11.714426600898905 9.967968276025607
Ni 11.845797167489545 13.156579772519816 13.122716802722886
Ni 8.354203342098954 9.325990553008042 9.690686726704412
Ni 11.667465268789117 12.100489240996225 9.537715055547539
