32
Energy = -136.62772742 eV
Ni 10.711314893577232 11.819956716727472 11.665915763182623
Ni 11.980467441320105 11.008440803796807 13.474631403601501
Ni 9.60896342612788 12.165573429372643 9.624147528848033
Ni 9.918041847330075 9.965133796742535 13.036141738811514
Ni 8.711433741082383 10.507201422166538 11.040132517925342
Ni 7.876676622720118 8.785444739257352 12.331815435262884
Ni 11.93681699885005 12.274652545145342 9.661854922843192
Ni 12.106224204487315 8.807098628756702 12.76705415028048
Ni 6.387869075550732 10.432963938387479 11.127375700951653
Ni 5.603948984066828 10.006598491325326 8.835320486188532
Ni 7.555970026437102 11.145324363414861 9.040403613589872
Ni 8.653713091866813 12.52936118077869 7.479009482549645
Ni 9.956998654657783 7.663298704994777 12.982454773830614
Ni 12.868323271672658 10.775230892904107 11.285990407961657
Ni 10.656091079870524 13.655741301018443 8.190870590629395
Ni 10.920946029646052 9.567349488263448 10.905237045545903
Ni 7.361199639086235 8.757484655091197 9.91895291026314
Ni 9.545455616345471 9.670147896126746 8.891601294692459
Ni 13.13499756677393 8.519403642594124 10.591510304784174
Ni 11.496486165203855 7.006577462248521 11.309318615178954
Ni 12.249136632962882 10.03911767263564 8.972798237976289
Ni 9.293328146383146 7.7699301292652505 10.7540326890281
Ni 10.815036667680255 11.404092584314789 7.695548068425225
Ni 6.713094262218856 11.195406851031086 6.885601869387662
Ni 10.937856506840902 9.078677365903763 7.088155271976922
Ni 7.31209130226793 9.021653575416114 7.580722649680187
Ni 11.275222077068022 7.888333513474123 9.141143225770106
Ni 8.813131397762142 7.401310409923951 8.458121331068728
Ni 8.9368098185671 10.375607882509874 6.615496623325108
Ni 10.232157146087514 5.87152977887043 9.582376577158229
Ni 10.643224832016738 6.631187964987674 7.285461409173707
Ni 9.007376178873669 8.031573126525233 6.228790821292615
