38
Energy = -153.10831585 eV
Ni 16.729036603247003 17.61951688516831 17.314835739732057
Ni 14.20343547575721 15.717671337005592 13.758986801050698
Ni 17.27087078060917 18.02354811154211 19.512087710605453
Ni 12.635101976173242 14.45611531577719 15.198774482401225
Ni 13.206819005599836 14.72460612664587 11.89350586213667
Ni 14.530097882338573 14.313174454781095 18.945066903125166
Ni 20.292865702533543 13.466448934584932 11.285922839725504
Ni 14.171978882824227 13.323938694151654 13.573738552640055
Ni 20.492028162015732 15.516794805020853 10.331562047422207
Ni 13.026656697785704 18.959529247110833 15.992695421669932
Ni 19.640810271904034 15.516809036205887 12.4277372564632
Ni 15.10544780514624 14.37665167993879 15.472226194355898
Ni 15.81589636109814 12.871959630151055 17.487727120801473
Ni 13.269881391593422 17.108730372522977 12.134174678945348
Ni 21.13567942291731 17.188293244569827 11.973386448070153
Ni 11.805727159392752 15.806123300332473 13.423884152281026
Ni 12.62935707853251 16.79910380874201 15.386764985039195
Ni 16.82767571132783 14.119685025335794 19.338729305882165
Ni 0.18813966538108842 14.843782981955252 12.271213638483816
Ni 15.171113423190464 12.019547596405804 15.316519344643474
Ni 13.57421491263684 13.283551990851592 17.023973009946612
Ni 15.381078291364659 19.041744759050417 15.952219455240776
Ni 11.949690725439744 18.269121326705825 13.763197774734373
Ni 19.16133103829416 17.249712524578626 10.82167406933077
Ni 14.01221993983582 11.054947923996842 17.04400588363056
Ni 13.591614944566194 15.599286717199647 17.1450183171649
Ni 12.850221263907072 12.049124142154367 15.134313656901186
Ni -0.23567343389198075 16.230045511778616 14.015263354575804
Ni 17.360506804546628 15.938526858661314 20.787939722682207
Ni 11.8650886000666 13.356941174993022 13.321720490186856
Ni 15.189986291678165 16.724704730709362 15.690577166997153
Ni 13.339833379081266 16.406882093951843 19.334202656499787
Ni 14.4171405737094 17.86077079512522 17.757172169347797
Ni 17.957447648263063 16.05365779227042 -3.0593669116048305
Ni 16.12788819537938 15.191718760757606 17.348492627098437
Ni 12.103875704490541 17.424993554807724 17.584699304878754
Ni 15.627029611365272 16.427114162399523 19.34416088009054
Ni 14.203510004731141 18.14829724793234 14.04629767523746
