32
Energy = -136.32399148 eV
Ni 12.375902473136014 8.53225619550298 13.406763004613373
Ni 10.060441314702532 8.797335354225533 13.077793892696416
Ni 8.965086086126973 6.733041027847632 13.096376328854777
Ni 11.544508157829112 10.483156603897257 12.397816467156595
Ni 11.109772809744076 7.043927068963129 12.063542136763061
Ni 9.196984712156976 10.655560612279352 11.851519861157435
Ni 12.529733247298395 8.718216717169351 11.071916257132502
Ni 8.005615528981924 8.585860305673497 11.930793708513832
Ni 10.233943880361597 8.920516450210522 10.566990952806282
Ni 10.642067794519159 12.462309817183103 11.449157292839374
Ni 9.11390338686718 6.810323635311588 10.78933694916963
Ni 11.345495309846745 7.027521259285352 9.712674675334991
Ni 8.371310143924147 12.559869398072935 10.691696440091823
Ni 11.65913691234231 10.818411584532413 10.069667738448805
Ni 7.142683421423228 10.471801758858792 10.712365575039806
Ni 12.327676832982457 8.96722045797056 8.721358375642493
Ni 9.756708578284183 14.44608276202555 10.54931419432832
Ni 11.39403695917762 7.084353740981046 7.39726234637283
Ni 10.077133149971399 8.93728496590504 8.03338704474625
Ni 9.266219767026199 6.827402617443002 8.45955881057409
Ni 9.281618035124126 10.83513933819966 9.358742399447257
Ni 8.486455830065875 13.764933845810946 8.683172132358479
Ni 8.057117738160748 8.645584433967644 9.538517313055232
Ni 6.1177269735980255 9.634015507977137 8.701795806520547
Ni 11.930321955881293 9.114768588007168 6.382319829071492
Ni 11.30207570531274 10.966390898711728 7.732145906804865
Ni 7.291606484793108 7.7725374784258525 7.568007155496272
Ni 7.991043175241469 9.944006827399463 7.383086669656616
Ni 10.579974673555236 12.776063311714836 9.103599916543086
Ni 7.1777071681971405 11.779197625814989 8.699155381395945
Ni 9.877871245700021 10.175955255141103 6.019618436312061
Ni 9.167108664025355 12.030235392015756 7.277058716327058
