39
Energy = -150.03282194 eV
Ni 17.370118794649944 20.005074325971215 16.077094968269446
Ni 16.288147935594807 16.746233073159214 14.050215120609232
Ni 19.0733323596659 -1.3057735882536348 16.42299200524875
Ni 17.28926417173234 18.576357138659606 18.115989533739608
Ni 16.95104435327918 17.19592049591384 16.24983385599945
Ni 14.326126339991777 18.490193713739917 20.235226244238437
Ni 14.361327967669936 12.793700194869642 10.948470458204264
Ni 16.226512500567488 13.488827687375872 12.057522725617737
Ni 13.034876437339639 14.511915782168181 11.668057273204706
Ni 19.841126965049973 19.680594054721126 17.22689936499902
Ni 15.028761431305725 13.52490655700929 19.73859657132361
Ni 14.641651159486432 11.315738334502624 19.747583002257226
Ni 17.170595204158037 18.80401536429313 14.115676964619933
Ni 12.045117012374817 13.143208089355825 13.340611973236353
Ni 13.515246438321595 11.465107211242113 12.675066666828302
Ni 18.13371215591482 15.29660683489004 15.310591739648306
Ni 12.029198621618468 12.418031959008626 11.143284775845085
Ni 17.938383555584203 -2.3156472574352303 18.259057003431796
Ni 16.10616534418718 14.446672256617584 14.435243733754653
Ni 18.68942556478071 16.96595575394294 13.892863473106624
Ni 14.116778277621382 12.496801709495635 21.60121276512251
Ni 17.582071062677787 -1.125838442143622 14.7468027310319
Ni 13.366484173046093 16.7379214669454 21.291428223876967
Ni 13.295553013487584 16.890597576389528 18.901304301025633
Ni 15.026805376739754 15.522023008183037 12.521651325996713
Ni 15.45587550559127 17.54035492327284 18.380501612722284
Ni 19.675639711216224 14.955490523186855 13.440400113832466
Ni 14.964476120887886 15.81567470951257 19.896044422674105
Ni 18.942945322785786 18.289433293423915 15.680000668351505
Ni 19.086244417048157 20.284983568650553 14.43636855506877
Ni 14.31594070165829 13.487145529868993 13.393445570056128
Ni 19.30454961238972 19.078148703097117 19.336528243946223
Ni 20.001387700972327 21.587606798508165 18.561521324363284
Ni 15.437346217798979 14.598263494193676 21.802840776149036
Ni 17.50004518664928 15.37754797416461 12.572310056414269
Ni 11.25588941355894 11.002502559342153 12.744404878596955
Ni 13.275977448270552 14.54569826686997 21.025358629605297
Ni 17.986451052491667 13.385866939047856 13.642507483587314
Ni 19.151364099060984 17.32439760306315 17.74087223620054
