36
Energy = -154.5798013 eV
Ni 9.572583054564518 12.251412304122567 6.5403281166415095
Ni 14.60530774547807 12.965500466743828 9.732938263357815
Ni 12.440245549667624 9.655594211450095 9.032211572338177
Ni 12.982575952725439 11.947544499600488 8.424690191835293
Ni 9.179873012331049 9.468461980211993 13.635978611611415
Ni 10.03352932438899 13.971976863875453 10.178368045860163
Ni 11.442260048698683 8.560824614296303 13.484551250507026
Ni 11.010949708583164 13.208931490855962 8.127727526884556
Ni 7.355960520757788 10.587616209551877 12.278390030229485
Ni 12.361093361393744 13.509118697892596 10.128262504738606
Ni 9.628266028405122 7.138896998057088 13.845106835498028
Ni 9.026156676555502 11.867158368634264 13.344951603469527
Ni 11.602257945943242 14.572181436387806 12.064805275358895
Ni 11.207039474466965 10.913867267749147 13.558623845770029
Ni 13.253505568403584 11.388683467277433 10.786192786866907
Ni 10.916905145076393 13.268769765055936 13.96431318599695
Ni 12.883724338772893 12.537629604229487 12.77474603091527
Ni 8.413680053787482 12.446535095566292 11.070578373494394
Ni 8.760752568565609 12.508337007881812 8.752905006338256
Ni 10.513178783597724 15.541463427391768 13.837776545902397
Ni 11.980745688410893 7.658997104058268 10.45046507974807
Ni 9.900028714671377 8.021817812909992 11.731399299864096
Ni 13.992947965993316 9.080430996100706 10.714240822805788
Ni 10.670650150363521 11.338764996648493 9.507431939660593
Ni 13.350793946225817 10.091541513254208 12.893075973765658
Ni 10.862918478357662 12.314392227583133 11.670142763096058
Ni 9.475230110184452 10.338256712578987 11.517449512749344
Ni 11.321254940590524 10.865482553461964 7.2561690096658165
Ni 7.97120431775708 10.432939185118688 9.848075313545447
Ni 9.117126636797703 10.361202708787445 7.84543491964367
Ni 11.687302493086975 9.762011647012924 11.343505535690896
Ni 11.422985571812552 6.402812595683002 12.489934271202591
Ni 9.296747391259464 14.126437784642606 12.485377277311581
Ni 14.754244066522473 10.634225062080294 9.178881669101798
Ni 13.341491758899846 7.712426762932089 12.431757207233373
Ni 10.142702653103731 9.025976306516029 9.551433547502114
