35
Energy = -151.23037756 eV
Ni 10.204111354267683 7.559113529382009 5.939064587953223
Ni 11.405464654446396 9.531579813440102 5.809040169495544
Ni 12.097015752815672 7.88660301119848 7.476189498287534
Ni 9.051865932410339 9.537940604246769 5.781064081291659
Ni 12.346561177720695 10.443248402974373 7.719099421314483
Ni 10.204143271509954 11.190572710272816 7.105544098066979
Ni 10.18014350999377 6.390561177571202 7.8716863973993405
Ni 8.285872096656751 7.853105841680429 7.425756832000493
Ni 10.203426255226367 8.99311464147405 8.119405743410033
Ni 11.459884709286714 6.956658609866279 9.694442883757395
Ni 8.049405657978548 10.23760020677267 7.7144601115150255
Ni 10.90312015940225 10.77263836955374 9.629554544299408
Ni 13.171428795384752 11.423104362297204 9.681551804672935
Ni 11.29800499410151 12.780002399141837 8.677192158211671
Ni 9.074120076505716 7.403238961090851 9.672522179025755
Ni 12.60826444395558 9.020489167596008 9.543586489905763
Ni 9.013522997335137 12.094040804649708 8.921029016736469
Ni 10.684352489951827 8.74098842277137 10.902608818506474
Ni 9.813590031110325 13.636621103028409 10.48965253541077
Ni 6.891546397479346 8.727650167578311 9.219545899825775
Ni 12.42502107991188 10.217207350463289 11.581162031322137
Ni 11.661605301817302 12.483228449528008 11.21432471312375
Ni 10.021728880612896 10.847839734098239 11.868200759206859
Ni 6.803967340654227 11.205633572811006 9.406799437393992
Ni 8.690683322909633 9.865013043254931 10.062245879107964
Ni 7.538929671319781 7.7841787782064475 11.313019690503243
Ni 9.695848848888158 7.071961064026683 12.045300481944393
Ni 8.151156166983244 12.111499054920635 11.143940297862292
Ni 11.07450480055114 9.072993277794971 13.21832983900667
Ni 9.743322117272085 12.885570719162345 12.812748673606864
Ni 6.818894438650121 10.025482693568893 11.453337292367884
Ni 11.73305370942669 11.48943366240022 13.421427770246309
Ni 7.761437011631554 11.29689075144387 13.253028523019838
Ni 8.710964468951893 9.149909279952164 12.756998946609805
Ni 9.714473567427284 10.740487963746121 14.273042793132104
