36
Energy = -156.54704927 eV
Ni 7.814534565668485 7.288624870907537 12.534211371294882
Ni 8.78237571510913 9.4636438459181 12.539956310512563
Ni 6.732495096443599 8.980030170794654 11.31278833164347
Ni 7.761509090412464 11.100424988992055 11.008689230617188
Ni 10.263136886610386 7.478479826284852 12.638775255160791
Ni 9.548983210579982 11.742636381864678 12.343352445466339
Ni 9.003939899179883 5.7046618161678335 11.231837445011612
Ni 11.127670922313895 9.956419926798146 12.515399735529902
Ni 7.109535038233131 6.853065264038773 10.213048297340034
Ni 11.508833364045858 8.409995444786077 10.883102913129868
Ni 5.792513391097843 10.651076947903844 9.86577929934097
Ni 7.867552979951399 9.38250510812367 9.24598017499393
Ni 5.573041010115046 8.415883906290627 9.25775499030496
Ni 9.99574573938874 10.254406437741032 10.40671689265065
Ni 11.024199526654934 6.323761863807961 10.18510702729677
Ni 9.399988495593496 12.554057804441463 10.087482865735012
Ni 9.128016612028306 7.968095539809298 10.694637797195057
Ni 11.519816279421974 12.030966273958999 11.144509751536086
Ni 11.39209493634665 12.17718140532593 8.746628089149205
Ni 6.282124556040813 10.084964066182533 7.587053605717028
Ni 12.344199460746378 10.272233243654703 9.856478036606276
Ni 9.579068300057608 10.828730822123783 8.120325155045833
Ni 11.835042130038389 10.077594915796682 7.582259600262125
Ni 10.185046305031747 8.499251808787703 8.539528271103235
Ni 12.447240723624121 8.008110054328167 8.776305590321455
Ni 7.229735661924054 7.4758976291944075 7.8904998734467275
Ni 9.306274629537326 13.151842023558453 7.821332127987818
Ni 9.041369879963067 6.335710372167031 8.875376599809538
Ni 8.26273871913861 9.235801948710307 6.860548829219843
Ni 7.500823119953106 11.861427351689324 8.68652380235798
Ni 11.182516177224047 6.163205988157234 7.872470077928525
Ni 10.230995635113553 9.684271090800285 5.868843819987675
Ni 10.750781811312766 11.915584650514234 6.4098758640621485
Ni 11.726724772536699 7.995650325676491 6.49772856071284
Ni 8.244253453071464 11.503276153484387 6.350461175037254
Ni 9.458509390037523 7.267893410417725 6.664003029069915
