35
Energy = -150.77772757 eV
Ni 13.771702328894241 7.374292198706203 10.676620792011843
Ni 13.595029017188835 9.56076991850461 10.013582299020568
Ni 13.548848963136578 11.848056571019221 9.513840374397702
Ni 12.02308123676736 11.081208328032726 11.109057803366325
Ni 12.359276913337816 8.851943930033745 11.927313979935105
Ni 11.12522671377099 9.065461073594241 9.95071442540443
Ni 11.599409460087731 13.215209255657594 9.990088201092401
Ni 12.340546757978618 10.296418522794003 8.135899970955844
Ni 11.522602925977017 6.892538144929528 10.847344018629057
Ni 10.125287055384288 12.304730591876893 11.771853193008313
Ni 12.295728095538545 12.576444389734391 7.706806107696917
Ni 9.998540621755884 9.879747335372132 11.840540571717678
Ni 10.505720254133426 7.781484500771142 12.850486640947674
Ni 7.848316064924859 13.165993483420053 11.93146092724178
Ni 12.503989388291544 7.805926344260536 8.67853997796008
Ni 8.204910137658766 10.978474746936724 12.87237134609512
Ni 9.174672126325767 13.538330172664699 10.002801923641575
Ni 9.181151576921755 7.6739131291668405 10.95739695532199
Ni 7.036701853305372 7.085297691537024 11.526973120097615
Ni 10.231055813994377 13.48227770908317 7.9549893461351
Ni 10.213620843398603 7.026177870140068 8.899769571722626
Ni 10.366938968885608 11.282514653148333 6.9759689421467455
Ni 6.839396933641305 12.883338394821243 9.762923804958177
Ni 10.5002706063004 8.941712226030697 7.554989830436984
Ni 8.370809176116849 11.340155871076025 10.577404006619263
Ni 8.32109301754075 8.53292416187506 13.11010928004483
Ni 8.399369188338637 12.003624625896663 8.231705547806591
Ni 8.37082761491945 7.666453274401613 7.645492896199304
Ni 8.093431135695617 6.149032418468937 9.538396246834013
Ni 10.476335431650806 11.317289020183308 9.298884204120611
Ni 7.32828179038244 9.402629253823022 11.227984785184683
Ni 8.355668706531374 9.968837214217317 7.0428004063546705
Ni 6.747565092462116 10.493015056386447 9.04982960078248
Ni 8.856182826489668 9.421156687375143 9.243980995873466
Ni 6.858511220799047 8.103299458456394 9.367944342664034
