31
Energy = -131.98302891 eV
Ni 11.144418618860449 9.930589778923109 13.485922627849652
Ni 8.962795534111793 10.701564839072425 13.856898723915144
Ni 9.30243813923898 8.42079967050062 13.483504031733277
Ni 11.080790785324913 8.174015457154598 11.900026225842216
Ni 10.51341557458339 12.001727021058485 12.472215866759873
Ni 11.839637234895207 10.38614156197145 11.244576848814926
Ni 7.467114981825418 9.464211607255363 12.196262767310898
Ni 9.536319123589621 9.972021617534196 11.564573889594008
Ni 8.133162579123073 11.897079280014871 12.093226900429729
Ni 10.379358286449031 7.820155299181178 9.724612601383775
Ni 8.798575226955547 7.37065983662592 11.451307330455196
Ni 11.94535901233562 12.59196522394424 10.571172441597524
Ni 12.560276897059769 8.572549541746548 9.97713645262685
Ni 10.139130160807067 10.227194666729728 9.295079235615718
Ni 12.352525840523965 10.776635022627596 8.9355533737712
Ni 11.562931021742926 8.750339710649545 7.8540972975823236
Ni 9.6491474975591 12.313295423676609 10.255742498460517
Ni 10.447204978013081 6.746951424821147 7.592691648746948
Ni 8.541271679021543 6.560272682902746 9.125639852601923
Ni 7.933007454895005 8.76604146779457 9.867737724408885
Ni 11.015617134114768 12.621756158808736 8.38188160527927
Ni 7.6863193468373625 11.01632099548137 10.01529276554708
Ni 10.740719346635787 10.71722727214067 6.9806743515501575
Ni 9.013725575827902 8.704377563125382 7.770729757884625
Ni 8.819248125323943 11.744516637955238 8.045123213440647
Ni 8.409697183438494 6.627095455778474 6.596572306320574
Ni 10.114550651247578 8.539944600328178 5.838986141046545
Ni 6.83273005511389 7.695516572456418 7.988132671044321
Ni 7.141101045022929 10.084099552381602 7.869002338145608
Ni 8.662650590555378 10.525114205242957 6.022686720308263
Ni 7.464826958578329 8.60094938124567 5.890640913033948
