38
Energy = -166.11109619 eV
Ni 10.33868385 12.093720651250212 10.33868385
Ni 12.102307926169267 12.102307926169267 12.102307926169267
Ni 10.33868385 13.736613151303827 12.05331693072391
Ni 10.33868385 10.33868385 12.093720651250212
Ni 10.33868385 8.58364704874979 10.33868385
Ni 10.33868385 10.33868385 8.58364704874979
Ni 12.093720651250212 10.33868385 10.33868385
Ni 8.58364704874979 10.33868385 10.33868385
Ni 12.102307926169267 8.575059773830734 12.102307926169267
Ni 12.102307926169267 8.575059773830734 8.575059773830734
Ni 12.102307926169267 12.102307926169267 8.575059773830734
Ni 8.575059773830734 12.102307926169267 8.575059773830734
Ni 8.575059773830734 12.102307926169267 12.102307926169267
Ni 8.575059773830734 8.575059773830734 12.102307926169267
Ni 8.575059773830734 8.575059773830734 8.575059773830734
Ni 10.33868385 8.624050769276092 13.736613151303827
Ni 10.33868385 6.940754548696175 8.624050769276092
Ni 10.33868385 12.05331693072391 6.940754548696175
Ni 12.05331693072391 10.33868385 13.736613151303827
Ni 13.736613151303827 10.33868385 8.624050769276092
Ni 8.624050769276092 10.33868385 6.940754548696175
Ni 6.940754548696175 10.33868385 12.05331693072391
Ni 12.05331693072391 6.940754548696175 10.33868385
Ni 13.736613151303827 12.05331693072391 10.33868385
Ni 8.624050769276092 13.736613151303827 10.33868385
Ni 6.940754548696175 8.624050769276092 10.33868385
Ni 12.05331693072391 10.33868385 6.940754548696175
Ni 13.736613151303827 10.33868385 12.05331693072391
Ni 8.624050769276092 10.33868385 13.736613151303827
Ni 6.940754548696175 10.33868385 8.624050769276092
Ni 12.05331693072391 13.736613151303827 10.33868385
Ni 13.736613151303827 8.624050769276092 10.33868385
Ni 8.624050769276092 6.940754548696175 10.33868385
Ni 6.940754548696175 12.05331693072391 10.33868385
Ni 10.33868385 12.05331693072391 13.736613151303827
Ni 10.33868385 13.736613151303827 8.624050769276092
Ni 10.33868385 8.624050769276092 6.940754548696175
Ni 10.33868385 6.940754548696175 12.05331693072391
