31
Energy = -130.63281442 eV
Ni 12.04829261653502 13.082639726885104 7.558785375336315
Ni 10.323207225228373 11.910724156656126 6.4760575746109525
Ni 9.753847374278449 13.622930744062804 7.932972987274066
Ni 13.384327528682169 11.932388620456676 9.136674560282204
Ni 11.913055379802454 10.744046068315583 7.844198379706798
Ni 11.138599788849676 13.05284743621157 9.70178823201739
Ni 9.821457755847714 11.320165080553336 8.742325754293114
Ni 9.91587483483704 9.681614602421524 6.931282797821258
Ni 8.67325034833247 13.202287526125206 9.990325120636237
Ni 11.770339953193991 10.867313830572913 10.378225555740306
Ni 13.14438380737897 9.291258558112446 9.361352618085883
Ni 10.898688617332255 8.836468547440514 8.858718511669805
Ni 9.885281886052313 11.875526831151241 11.38007808226497
Ni 7.922395352781042 9.955257516799488 8.080121372774924
Ni 7.942121064365688 10.980015464593935 10.18124566956529
Ni 8.92283356436989 7.788814737408904 7.948231668158495
Ni 6.032829232983739 9.795261313395148 9.569958035424872
Ni 9.860063897125675 9.491385707272638 10.88968238084021
Ni 7.657068663180038 12.07305688199195 12.151891682915767
Ni 6.581863327079601 8.06497239210879 8.04403604193308
Ni 7.043260701228092 9.651293145422677 11.827490850063912
Ni 12.139551554283933 7.141475095632881 9.913398255704855
Ni 11.380998133899917 10.728791126976606 12.739728400403637
Ni 7.852050506215796 8.423115789653163 9.980737029045825
Ni 9.759196161093945 7.088398861307054 10.066541398412225
Ni 9.016208016529648 10.26640090651407 12.937735492334566
Ni 12.045504377442457 8.824130683301147 11.517329342888598
Ni 8.759118081639587 7.907302574726848 12.17997691540044
Ni 10.910108879182168 6.7748861908390525 12.037143114932658
Ni 10.643093924061628 8.621307993893447 13.432871805032297
Ni 11.039938069069807 5.182732512081057 10.387905617313116
