39
Energy = -168.85373392 eV
Ni 9.166765592255176 10.030432772763666 4.764379284385786
Ni 4.882522481576484 7.5786758060584205 5.38960959908895
Ni 9.86486648598316 7.789035632479588 5.568302129679565
Ni 7.230242334830689 8.629950923709142 5.5254028808516304
Ni 6.77662238153959 6.115533437867105 5.848464626115549
Ni 11.446491061528453 9.556822283388913 6.481067707313214
Ni 12.200351487790645 7.215999012834405 6.793774097492818
Ni 7.37067945492718 11.066718625809221 6.1956610122872595
Ni 9.953828516239996 11.594110193708342 6.586903822227613
Ni 5.0945643327086465 9.709382028893177 6.574872962052808
Ni 10.214577757045637 5.839185366349996 7.18945615872397
Ni 4.74950217287427 5.656069059869223 7.1877905695124475
Ni 9.077460984203377 9.569378593571829 6.925460359213755
Ni 8.257969029192187 7.264502242148401 7.288281945475455
Ni 5.909076277457244 7.568856290946311 7.382100020278451
Ni 3.669331717954046 7.853664414547749 7.543135254930139
Ni 10.433452217337944 7.98061363799015 7.909723115886869
Ni 6.97334018254185 9.512847926548298 7.868961238798366
Ni 10.739432059322539 10.439321012250895 8.641313190501526
Ni 6.909495248814404 5.5742443322827375 8.362281468559056
Ni 12.52586569913557 8.71701833709322 8.734336217713258
Ni 9.54347732930194 10.50301187108081 10.822347003601317
Ni 5.879976033191768 11.384392857435579 8.294273006404552
Ni 4.875194312324804 6.737311260744432 9.419122284866997
Ni 9.149910129312394 6.400120553143112 9.32167891115505
Ni 10.61856479433179 8.334121562265473 10.186527006819459
Ni 11.981285229512906 10.041674071856894 10.737492670410113
Ni 11.635773694301248 6.407467304222806 9.195289389122104
Ni 5.006905361622028 9.15898902011107 9.11855664210374
Ni 7.035981355072785 7.647636793318194 9.462770653751384
Ni 8.781758346226384 9.08540429297344 9.185682953998793
Ni 8.424567436819238 11.33887704305652 8.5434218005403
Ni 7.601224607728059 6.1621784828005275 11.104340074330562
Ni 12.434025963415705 7.579474878771392 11.197986405234337
Ni 10.576839801525642 8.847971169307304 12.371774127582151
Ni 10.026488079318629 6.57017948149049 11.5328057602244
Ni 6.97028199551222 10.136148213315956 10.233955457882209
Ni 5.842339970889471 8.192163463008763 11.257965159179193
Ni 8.357998023737657 8.399545689390214 11.44176297110769
