33
Energy = -141.49526041 eV
Ni 8.922816027931798 11.337392793313626 14.013743447015164
Ni 6.918178742536313 12.321233316207346 13.189859642022258
Ni 10.844535679741648 11.085903421587304 12.627717197132872
Ni 12.70457852485063 10.84071972248759 11.20016784393686
Ni 9.55757739589437 9.158902995557472 13.349202396213572
Ni 13.330778492682828 8.646480380382641 10.416256861456239
Ni 8.80623042356657 12.133004475820906 11.809941238913826
Ni 7.523677386110396 10.162033252407351 12.517080715075801
Ni 11.482875003913458 8.851625640558865 11.89183432945188
Ni 10.67268546673489 11.889924212755204 10.335161189910151
Ni 10.177931077723303 7.045436720034723 12.546930057878368
Ni 9.456443064298323 9.928160961095653 11.013328405349082
Ni 8.204761871903447 8.019680548189182 11.68363283194227
Ni 14.536714843793959 10.531340359551436 9.73506481150064
Ni 11.413093829584774 9.700340882732528 9.526913469621215
Ni 6.612198630161768 11.740208809694545 10.939780028248709
Ni 10.147933983980208 7.664042591652185 10.28051495108865
Ni 11.974975171994933 7.460081722426593 8.810852249377282
Ni 7.123904365687083 9.563234616934654 10.207403658167932
Ni 13.291808173285036 9.362055169118475 8.12524672196397
Ni 8.459152919435988 11.584835417504495 9.445478447429538
Ni 6.289837054883222 11.151486288300216 8.654134988629204
Ni 12.625988047146008 11.604604520913105 8.893345045387454
Ni 9.115738660213365 9.302086397191383 8.671307817759674
Ni 10.380901338361761 11.335231751561068 8.006653588642545
Ni 9.767789539224772 7.115861135743052 7.956159977552017
Ni 8.135234539922083 10.925032992253733 7.153565880655446
Ni 12.266849687876537 10.914843787653727 6.650328583934738
Ni 6.904855665749461 8.989136822847408 7.882042324374612
Ni 7.8893914668738905 7.427507839541987 9.41425866648443
Ni 11.093059186348686 8.950425354861565 7.192608261304889
Ni 10.065266761625827 10.535706940679443 5.823876084851868
Ni 8.759060533714733 8.663516370109008 6.447245206972342
