38
Energy = -163.04920015 eV
Ni 11.621259853110859 18.066317628699352 14.059139952461218
Ni 15.033136587381914 18.403467472781042 15.85317177709326
Ni 13.276788137464143 12.368928304594624 14.976768651753684
Ni 17.404615539036808 16.319509895243232 14.379582083233853
Ni 14.459820437989222 15.412027012865273 18.189743020099602
Ni 15.464812214522427 13.370711746893038 18.9329549856904
Ni 15.666364687383345 19.45734445010179 12.227672017570264
Ni 13.315257676185096 16.926345019567133 15.231497491592325
Ni 12.896012684804425 16.38261843106213 12.937743017668067
Ni 14.393836160778926 17.614062779770784 11.633517124187303
Ni 15.459328416630706 11.560317614957503 17.346905719514716
Ni 16.581182214426708 18.593350126481972 14.081345834005726
Ni 17.55952344097646 11.684213717922132 16.127511051868773
Ni 12.583312871259643 15.279204779794549 16.716312906069426
Ni 17.93692273690393 13.834599881292657 15.049261034011352
Ni 18.002595036664072 15.730543904996193 16.50912560582386
Ni 17.36733161040125 17.958002215141015 16.11770350107929
Ni 11.330217317889037 17.40878378091564 16.404534481546822
Ni 11.36299595608633 15.760286538318399 14.683303958295529
Ni 17.468480175103963 12.090711220909062 18.444808998919424
Ni 14.156645754583241 13.5174155017331 16.811352410408677
Ni 15.862665907484276 17.296782636287862 17.794832384763023
Ni 13.47800069016307 17.450575918666882 17.498195077264022
Ni 16.86356905918214 15.348326426472697 18.5624208684796
Ni 16.005190449404218 14.542160892440002 13.950933075311266
Ni 14.84872583393059 15.250214313256306 12.043478216750827
Ni 13.861547196194005 18.851282652604592 13.683292722725664
Ni 17.634055029939756 13.769212520987088 20.014231075804226
Ni 15.508676197570649 15.787601831765368 16.044563423684302
Ni 16.62554025062836 13.755591977371717 16.961426864542926
Ni 16.64424901990253 17.10027348811826 12.161755281942442
Ni 17.25762130226548 11.917692678054294 13.775918335623398
Ni 15.573375647636086 12.523277973251332 15.158643444337313
Ni 15.109912782589003 16.812280312891225 13.799603069411493
Ni 13.603625730500788 14.635318222880327 14.579089568015533
Ni 14.560325168003954 13.041653636390937 13.051019417577523
Ni 12.81145559286828 19.189537918494914 15.897345209328755
Ni 18.77651346014739 13.973810282795851 17.87125170262337
