33
Energy = -140.42612143 eV
Ni 15.553700362635666 10.930650964821844 11.61658675144262
Ni 14.730927009321634 9.597315466684792 13.282608845308975
Ni 14.312125949867943 11.239858460173046 9.721934322028954
Ni 13.8062886952166 9.300016225596039 11.03487137625613
Ni 14.124930025095837 12.872683498785289 11.577254901482307
Ni 14.939052374011347 11.875662095050439 13.625716709660132
Ni 12.394893085666265 12.501840259987866 9.880463004400719
Ni 12.858508045212101 10.75924821801146 14.216437481288402
Ni 12.244024474528706 10.180880393161678 9.382050554505074
Ni 10.764427001035575 11.718826651240025 8.367656601922892
Ni 12.697604316744542 11.102077062559541 11.932823512233835
Ni 12.696785483610975 8.580064210812965 13.064808362841406
Ni 10.97364036494445 9.449110766789337 7.560449983502313
Ni 13.047669843721044 13.153307257465556 13.753104619408717
Ni 11.396322153509761 8.984305160087567 11.135259095795309
Ni 11.751367024576467 13.549838727720434 11.829659200583297
Ni 10.421885455563599 11.383569752450061 11.070277617502033
Ni 10.812700628041094 9.903640152512649 13.19136554362765
Ni 9.703713607967323 9.7163822411882 9.491945247372218
Ni 10.9369485785384 12.160144545374743 13.545145809790263
Ni 11.103149305195124 14.497140458124063 13.899201941664058
Ni 9.024538605742768 10.709036584216065 7.156980201273361
Ni 8.820524759405282 8.422496421168415 7.784953564867436
Ni 9.14577157336971 8.999322267618071 11.792920291289327
Ni 7.817962048884286 8.331753397188459 9.988150422373112
Ni 10.275464446057898 13.521269570890144 9.89320242982318
Ni 9.781064765182899 14.757194125770809 11.921174009418186
Ni 8.808099378479925 11.096858047917525 12.925977210296118
Ni 8.992557145391 13.392891140840955 13.603314487572218
Ni 8.59543626842764 12.027451908050113 9.123396223181139
Ni 7.811269957997511 10.623670991078582 10.819718241166694
Ni 7.30734545370636 10.093067788247899 8.5670133185925
Ni 8.507972318603079 12.853320248850382 11.353230287421871
