33
Energy = -141.79559254 eV
Ni 11.564345808578297 10.44964315039549 7.871994065675409
Ni 10.140179612796295 9.163557705543786 6.422897212568957
Ni 9.178752367404536 11.118942717182026 7.533393349741995
Ni 12.151449634793154 8.255395611967998 7.304977471987778
Ni 7.95723301048535 9.840718347676114 5.708559001652131
Ni 8.763133803944985 12.743831455459574 9.266657119268011
Ni 13.189803258119406 9.282648316329011 9.137712875400318
Ni 10.984321230427687 12.65652980443969 8.386781603819022
Ni 8.403789611837903 7.51398179560195 5.913148993069648
Ni 10.204803793200567 6.952066169832243 7.396139249773512
Ni 12.42768311393709 11.400237491871032 10.005678387887016
Ni 6.703450364118397 10.640640539046858 7.533306401259491
Ni 10.196618478928762 10.922343945173404 9.767079252146317
Ni 8.238589162255748 8.920344753161512 7.8173893919845145
Ni 10.652831035180295 13.06361516094514 10.703599004215729
Ni 11.86070269282143 7.151410275804981 9.42938155664547
Ni 10.981889448703406 11.17002154390315 11.998773958977482
Ni 8.641435993872815 11.75563815230058 11.495313612682464
Ni 7.8715150152658655 10.561643714523301 9.57434125250406
Ni 10.262279922557378 8.67707936336661 9.005742212082163
Ni 11.660784817291471 9.172171003332023 10.862879605071178
Ni 6.258203686888066 8.192157664609214 6.970261650333173
Ni 7.868307891546021 6.537367871489492 8.008490767376184
Ni 8.137719229345052 8.00796775409185 10.009544502080788
Ni 9.349436573112316 9.517676104446156 11.538852720771636
Ni 6.089993178497017 9.04583264257933 9.242551809067631
Ni 9.659996808326683 6.062217672428001 9.458330939889454
Ni 6.993439644281935 9.728774906735481 11.523585644773249
Ni 10.172009036176588 7.345192037663458 11.256257551258129
Ni 5.751895246238543 6.7721788662954 8.899297641008339
Ni 8.02008202074691 7.640276587230572 12.29364302214439
Ni 5.983757584534704 7.603971600146294 11.108425745289203
Ni 7.446356895179712 5.86682923220484 10.356522545704847
