36
Energy = -155.60279812 eV
Ni 6.978718194023374 10.999135363109634 8.86621979808105
Ni 7.333679128268931 8.70602895604488 9.44502147321845
Ni 6.8481014566580845 13.2986917103369 8.398712683211121
Ni 8.306701690176972 6.512526189703015 9.948676147427424
Ni 8.584384473184514 12.04541168433363 7.375933490156402
Ni 8.566200673817917 9.667095314639715 7.579021050870067
Ni 8.51626892492185 7.353891426935999 7.72014684958378
Ni 7.580355102274323 10.352269601449215 11.17003902471539
Ni 8.497559032303215 5.095104477805606 8.140464927813753
Ni 8.347429779132774 8.129142364901876 11.60917984563754
Ni 7.291661066278509 12.654085929969268 10.582318015277062
Ni 9.236702932660933 11.00464469093863 9.471600122941483
Ni 9.660670698182686 8.592235919656641 9.569094529561115
Ni 8.360822556422873 9.768041677493034 13.348141929729234
Ni 9.067201071042348 13.407129325328917 9.212730373501094
Ni 10.453164194012626 7.017266346047333 11.098893039203109
Ni 10.680260542983323 10.813268546846071 7.513083691207219
Ni 7.781668751355097 12.01754093579145 12.835020867731963
Ni 9.963794221360402 9.964819565459823 11.572701466260398
Ni 10.67344822169287 13.175175708973631 7.433745840582324
Ni 11.850877219081193 9.974944602120308 13.558629309165548
Ni 11.553682351218969 10.107513204386152 9.695262132831441
Ni 10.352347981225043 6.303126202177302 8.778669719778076
Ni 9.581237674592455 12.426673626153459 11.367840209047113
Ni 11.795142185809567 11.525258397461872 11.727506723571455
Ni 10.231131772617731 8.27801396309774 13.127072881129203
Ni 10.693071083487196 8.431949485774407 7.481483571442013
Ni 10.029908777957221 11.419736693721154 13.434109159124697
Ni 12.711701786210865 11.93978485609524 7.811446779569076
Ni 12.043351491911084 7.766574079302138 9.369681050384317
Ni 13.420780770426369 11.488656600753483 10.001383422801592
Ni 12.079103742385866 8.682311777941775 11.585978082064411
Ni 12.79663423295158 9.554591338856827 7.838015316887093
Ni 11.226443077221488 12.499664795789233 9.605036671373968
Ni 13.804775032715282 9.180286341704017 9.988901792239274
Ni 13.738143399928898 10.278219146661637 12.070037782031429
