30
Energy = -127.31307403 eV
Ni 7.270186495000628 6.398247497052915 8.725922078107741
Ni 9.46265110231506 6.0615903159087905 7.988119744103022
Ni 8.010681570651776 7.649564009246468 6.817194257271409
Ni 6.040978597289052 8.316974144145904 8.112472685872984
Ni 9.032393538050984 6.5497290801264 10.39419339743202
Ni 7.0269328596999285 8.182395414630706 10.233790569580242
Ni 10.4657083064456 8.01309456190076 7.035368307076535
Ni 8.946627320072013 8.278101334376151 8.827366960943474
Ni 7.500707413797039 9.949237435001407 7.400339036922766
Ni 11.066901333580642 7.21102174065317 9.247204960028057
Ni 11.029115222091795 7.530249286871367 11.643907746749779
Ni 9.136227265937801 9.529323337664689 5.789094204639197
Ni 8.974195329688524 8.677607887760745 11.404248344393451
Ni 6.088654631963225 10.283541343385348 9.494483810006846
Ni 12.978985251227416 8.005597496580657 10.22018774956481
Ni 8.388662751403187 10.369174883121678 9.60428546697373
Ni 10.930687909958028 9.490946768089973 10.37633577282279
Ni 7.310717214776321 12.22173710983935 10.509385665001236
Ni 10.502358153770423 9.733894467311687 12.767754834442973
Ni 12.697202129752068 9.240912466580543 12.170204066141396
Ni 7.239154722215696 10.183472551422188 11.657140446347357
Ni 6.955817230005944 12.093499773129679 8.171869011802675
Ni 10.01191958368539 10.28205766029456 7.823810789610506
Ni 8.727248910452284 11.805559768993087 6.661661740296545
Ni 12.049199742614528 9.260809498238688 8.343545601196206
Ni 13.201758397203923 10.351389759547075 10.137155271416162
Ni 9.487424874661084 11.3985252431602 11.322321008649775
Ni 9.15512353143228 12.45349565160551 8.953307187267654
Ni 11.819948037279433 11.399643480551621 11.734942131517155
Ni 11.244124334235305 11.557699828989906 9.414041247727157
