34
Energy = -144.72689697 eV
Ni 14.383331818143464 10.536302264390264 16.84930675177739
Ni 11.115477715541688 11.915756411833117 14.747618531382972
Ni 9.590470705688608 13.194224678455289 8.672001288516144
Ni 14.990937875142825 12.527111840126592 15.819730752811921
Ni 11.620070472993763 14.446568676366514 8.858512487984717
Ni 9.173220268661574 13.997337223327039 11.745985922391824
Ni 7.734051220306368 14.00938054131846 9.875664627605694
Ni 10.710484198689898 12.649920217131784 10.609330880559023
Ni 10.91979304838334 9.832998152723192 13.55824766140354
Ni 14.008253653239896 10.948466454023263 9.318895197124533
Ni 12.044820675404152 10.624642360923406 10.291278236845484
Ni 13.578229129831458 12.007827556395915 14.11744037253345
Ni 11.526129656111573 14.757499392733383 11.199085708017831
Ni 9.65290602376526 15.300177317711347 9.836556042797604
Ni 8.50396520566712 11.923641203794672 10.638146824649734
Ni 14.149753505585236 11.58215780185961 11.737985815748438
Ni 11.874944330204649 11.654042049818468 12.465456829504552
Ni 9.547123362834574 11.852900268460077 12.889903561613849
Ni 14.377610330775907 9.327245297206568 11.16447380281647
Ni 12.00705479401864 8.717263802589102 11.611721534567419
Ni 12.56636043017509 13.93294204667265 14.918113370148511
Ni 13.343441582396167 9.782944373327103 13.169736692273444
Ni 12.622617339334937 10.103292947422469 15.340893833145472
Ni 13.204418005098727 13.704665725802522 12.537767308592027
Ni 15.059501871747223 10.367457179158038 14.634680946463957
Ni 9.917837633947913 10.863733632294117 9.037149800803858
Ni 10.73268151469679 8.699279910921408 9.562289008009879
Ni 9.992876980249363 10.130444761166899 11.345830639193174
Ni 13.0182371994364 13.055733370005333 10.275358136390633
Ni 13.092908456801872 8.607018244084736 9.433305267909569
Ni 11.822936034420378 12.168958684913859 8.41089662752124
Ni 10.936438241840827 13.765530129425185 13.254242248663429
Ni 12.771871300215176 12.16714599269671 16.434943801826915
Ni 11.927107579492269 9.934683656326994 7.929931214686205
