38
Energy = -165.42262537 eV
Ni 8.774537408630998 10.353199304988419 6.58088160798039
Ni 8.571084054453664 8.126816714221263 7.006522964917791
Ni 10.861595447044051 8.986864787288685 6.951418483048466
Ni 8.952176072453756 12.768559838306677 6.268989265363456
Ni 10.723945558422729 11.417127959968612 7.177569485223829
Ni 10.292140500443832 13.584638978330231 8.04353126689691
Ni 10.221039183892117 6.901074299684117 8.066600517526252
Ni 12.46115971452192 12.629247350004064 8.337278432542378
Ni 7.497046473112608 9.60005884384433 8.627118317166282
Ni 8.418900108452807 11.838678000903831 8.320531977404762
Ni 9.787611814924123 9.419484494461932 8.921102277773905
Ni 12.305268531711228 10.28284489117962 8.515742927366171
Ni 12.116775609297292 7.990225872660427 8.846070130009567
Ni 8.146556706617059 7.271373073162212 9.122044465411792
Ni 7.9657064502492325 14.049708388372158 8.118936560329136
Ni 10.604219129918624 11.563497892451922 9.568672953729862
Ni 11.47863044977114 13.83043994641587 10.0925331968004
Ni 8.312860647568565 11.061225934791196 10.506474675497731
Ni 9.434045189045847 5.35664417590808 9.773512186493093
Ni 10.300858225848936 7.6175185174451965 10.43132803079828
Ni 11.666250071542965 5.729435451897729 9.578592013215765
Ni 9.12275272163661 13.46955485417462 10.125346202703792
Ni 6.932204494431895 12.857504607271258 10.017837928839366
Ni 12.742197686021541 7.115557579682649 11.03792177487717
Ni 8.246469029251164 6.461317948167325 11.376727071528949
Ni 12.616984192996112 11.723450097533263 10.622611408761966
Ni 12.377462059187234 9.405603940736802 10.728424057407818
Ni 8.106295329623936 8.796976698436836 10.863172398620737
Ni 10.190723713359993 9.910239728893002 11.400803216707228
Ni 10.667138034682527 6.022093048084593 11.938187906284348
Ni 8.203346097287229 12.64575412137942 12.190145398273044
Ni 9.262811076972646 7.968849681622059 12.765694875971652
Ni 11.553475924141749 8.248876757179112 12.650491538264047
Ni 10.556734359534481 12.470260173190356 11.747297971057728
Ni 11.852611442773203 10.71168092412626 12.763554715270498
Ni 8.415438099672926 10.269707728716677 12.843525766480054
Ni 10.283783919209059 9.573333289361768 14.143385548925634
Ni 9.846782034424475 11.840191668287364 13.799038047658653
