38
Energy = -134.5076628 eV
Ni 15.50130191297091 16.97070476593949 21.41514796146264
Ni 15.006693657964156 15.888462526438783 17.62517544896172
Ni 13.635035297955985 16.35378552047757 22.73503936664222
Ni 14.291263763786706 22.103690985064485 14.198532198813988
Ni 15.318711945837354 15.262829692872577 11.303435705582181
Ni 13.722525045884296 21.048476628900268 17.00759051395563
Ni 14.793519187876742 12.242164639166072 13.820219033477672
Ni 16.428364302596115 14.851699143135356 19.33050252740973
Ni 15.158097329419085 14.55970504879002 13.61712980041923
Ni 16.14166736553079 13.305038882118174 15.288287916255818
Ni 21.6882903151759 17.862764031101214 18.907756000485797
Ni 14.062364740410786 19.897441649007533 14.960054113024366
Ni 17.910879366120913 17.656572614021602 20.563872911072554
Ni 12.317963432731018 21.47677703071629 15.235304906231352
Ni 14.323247538525846 15.684279648706154 19.856637913754383
Ni 18.415421623875933 13.789723886661333 18.768948493102624
Ni 15.935317176692386 17.309352081699746 19.113147448056566
Ni 13.661445940564914 23.12318875504961 16.143255583688784
Ni 14.557003736066527 13.181593498653479 11.779643945694335
Ni 14.59073215048363 17.92311049695195 -0.1759725907946758
Ni 15.626017603029968 20.461048381633415 13.320643008730524
Ni 19.777033825830998 16.6517658403583 19.292865760319582
Ni 13.64901756230303 17.603135686744235 18.722777773845987
Ni 19.814864665941425 18.783636870339844 19.796209491807513
Ni 17.9214284519539 16.258371930387472 18.30107527822145
Ni 17.8639448455933 17.358867949909943 11.503775746612085
Ni 17.065213292190037 15.488714229498884 12.636224618738426
Ni 20.05710408281754 10.409668355250155 17.467160810061873
Ni 14.481770726672169 18.839464199900817 16.967870981569163
Ni 20.08501436387401 12.136003331869077 19.122357977523468
Ni 12.918831418547676 20.563489143959536 13.071396941209187
Ni 17.000803897811537 14.61054913820143 16.969295555754588
Ni 20.905470004548064 8.359384697840216 17.282371557702675
Ni 16.68656069832232 19.346594494774468 11.64101783596528
Ni 21.64486978470049 11.960900123990308 17.402813028264752
Ni 14.383976961408559 19.201101844113925 11.936104026218285
Ni 22.327636291186327 9.821405200398004 17.941881675548068
Ni 15.65997722880729 17.33443000057453 12.275219859357986
