39
Energy = -171.19232283 eV
Ni 12.099941090383505 9.313458720817847 11.094307061381032
Ni 9.680442959384575 9.778615461050993 11.092724867355455
Ni 9.297272820729923 7.68553119413846 10.176199793971096
Ni 9.667434755298276 9.767576475343985 13.544146704839436
Ni 10.560585060452988 7.857786075902695 12.273419767927862
Ni 8.20120671666609 8.384958376030102 12.230203455416616
Ni 7.811169433647795 10.78110333528301 12.275524242904373
Ni 8.492090550583951 14.14748035183184 10.178048701483473
Ni 7.561944116653787 9.538439520471448 10.183972875158723
Ni 10.299459116484782 13.131760089959577 8.948326256522718
Ni 7.599040856701171 13.19898783882178 12.22944657343109
Ni 9.756968777591535 14.290067558216636 12.274460083617246
Ni 9.360904395223056 12.222264772668954 13.54542590890515
Ni 7.270846418457319 11.926393094420767 10.183617837986363
Ni 11.205701883092047 11.209294737181434 7.706251800514786
Ni 9.383059793822952 12.211884547633877 11.090810570547639
Ni 10.800545453617232 9.125477330831757 8.947822597139737
Ni 9.098043193011975 10.9434578169688 8.948666418486914
Ni 11.206452959033939 11.20777871762722 9.978242729192417
Ni 11.665856426317333 7.234228514198748 10.175769554609223
Ni 14.200844161178614 9.557483765967316 12.276178732815477
Ni 13.271417840637943 11.465549628928665 11.088027532072768
Ni 11.605057172509559 13.26307427406284 11.095891162187176
Ni 15.13101378505906 10.422104948759008 10.182199966252124
Ni 13.97784961870033 8.31005161231179 10.183202411554943
Ni 13.70094187599611 13.536892596947924 12.275028078450303
Ni 13.065970268805254 10.181644144104592 8.94814676400401
Ni 12.753836395886056 12.662123678424514 8.946572471238607
Ni 13.177828231217292 14.695980631282566 10.181195180161964
Ni 14.816652772123023 12.931267943290512 10.17807634700741
Ni 15.295674531926743 11.720719312768928 12.229425499921492
Ni 13.298672767092711 11.46732745051863 13.546908590269762
Ni 11.207604291917233 11.205333739426168 12.374382604466518
Ni 11.982950265680087 15.252325123441542 12.230773063180113
Ni 11.206909598868995 11.204937178750043 14.739687939629137
Ni 12.109498766938406 9.297989814793716 13.544741489278142
Ni 12.952137874072658 7.471993613153214 12.227370916415053
Ni 10.668222690342445 15.175924189428589 10.180447787504836
Ni 11.609032463920967 13.271814124297466 13.545437662198832
