36
Energy = -154.43751421 eV
Ni 8.598249967580948 8.444382123086742 9.914191085224045
Ni 13.156777668662153 10.296897116908088 8.687273365483229
Ni 11.83289101920744 14.727699307301032 11.614611801191304
Ni 14.846188910151678 11.561627034740278 9.68714809909017
Ni 7.387744132750269 11.708379193768419 8.729714821145492
Ni 9.98925366828806 11.42212827812495 14.044254926453789
Ni 12.61939283603686 7.875870862378276 8.828292500508454
Ni 13.077924009747827 13.134808066786746 10.38224410657693
Ni 8.450621229888837 9.883785467639449 12.924092853288553
Ni 13.686367423870417 11.003540380592032 11.618260260292367
Ni 14.65625904197839 9.24621479483268 10.10533951761262
Ni 8.227185403413808 12.967790087034468 10.6039345003365
Ni 9.828835896578818 11.625476045406662 11.829732560522114
Ni 6.708347058806359 9.498034538367161 9.022124640693814
Ni 11.661205382316009 14.088057914593064 8.485163605251095
Ni 10.765798526793239 7.367306231762474 10.312306017871903
Ni 10.578779597411048 13.34475229040274 10.340402607668292
Ni 10.944076194337477 9.44808112502169 8.864818943581342
Ni 11.273708912116073 11.801074806670307 8.168372878990652
Ni 10.166345420302884 8.969521057257719 14.11581924929526
Ni 9.109855090802752 7.6489157574123405 12.211843145154809
Ni 11.463974386421164 7.724811163835954 12.583874809984893
Ni 9.772547312037004 13.778168561197994 12.592274350190761
Ni 10.009079642733456 7.544968061538478 8.11855034335691
Ni 7.598727264646793 10.581375211644977 10.88360028861819
Ni 11.736523924772039 11.13804459260582 10.410530507904433
Ni 7.867787960264644 12.19614068939714 12.83499723518181
Ni 12.555650318865505 8.930504050733303 10.903507279153118
Ni 10.048950360964888 6.683104650326719 14.073163967375466
Ni 13.462691882849054 12.619314709682135 8.16660589190012
Ni 11.920047112298983 12.547584607847796 12.471638003261718
Ni 9.295991745129388 13.184204865076424 8.380326690575528
Ni 11.768970680869808 10.19680429095299 12.843980292878626
Ni 10.183259076513977 9.456817570567882 11.273391549782735
Ni 9.444184959439056 11.136934986288527 9.530123807360528
Ni 8.739294884022225 9.65036841108603 7.876982399112483
