32
Energy = -135.6964228 eV
Ni 10.443688208564161 12.485234018567555 12.71322101481982
Ni 13.521361878873918 8.771669079554187 9.05601205128823
Ni 9.619995108149189 9.975877507210793 6.4282551628358675
Ni 11.95118128530205 10.37090490005801 9.863970569436624
Ni 7.542306143995833 10.739936624936242 7.469241391798251
Ni 10.739657983096336 5.960467885673131 8.809606786215808
Ni 6.958723020522349 7.319870162120257 10.465045065124773
Ni 9.20854378170696 10.561167468732968 12.752649501351542
Ni 6.240008266663944 11.595919223968522 9.240576747272511
Ni 10.841618734511691 6.718336153214551 11.055030723986066
Ni 9.650887875334078 9.915589437787709 8.752099510307797
Ni 10.064904059351871 11.538150045925807 10.67233826924659
Ni 11.822930146398207 9.774299258997278 7.542468801030171
Ni 7.696932163956799 11.352069272690791 11.077200576275562
Ni 10.248130618172825 7.823511096340624 7.254140375084415
Ni 8.557243972583809 12.209568838681548 9.023049030599438
Ni 12.460218924800028 8.481825226847874 11.269732523270257
Ni 8.764064722812027 7.2031250904647655 11.920549412287818
Ni 12.892377900622426 6.588340218999782 9.853177518374613
Ni 8.874367042852603 5.544416449396491 10.29322895307628
Ni 10.845805413640996 11.91747369448453 8.415047116070971
Ni 6.99081868316534 12.989208865680945 7.46990272871348
Ni 8.999213585711324 7.614669992365068 9.388529133496986
Ni 9.163943328531445 12.32207244465777 6.743235792983782
Ni 8.020539518959183 8.48067701227442 7.4487787505897725
Ni 11.298741382764 11.566986236351957 6.129038026887287
Ni 10.036229846134388 9.077602615790601 11.162224563462784
Ni 7.432632367945891 9.487762635098075 9.570426251283594
Ni 5.668842902513912 10.081774015703342 10.940052927441243
Ni 11.580185663602713 10.502946132050123 12.226684625787918
Ni 11.328846386472987 8.178876178522886 9.228545850834559
Ni 7.56901597513178 9.143902722476204 11.916689136208786
