35
Energy = -151.71773784 eV
Ni 6.5897015143629405 10.765094720246232 10.308750537678021
Ni 10.539160442481199 12.712484617305524 10.363594121290568
Ni 9.678302508115431 12.028657986815862 12.382874621773434
Ni 11.926205607030296 9.243643403224723 7.314246020057557
Ni 7.715862034202671 5.5340550356534886 8.29391181115468
Ni 5.645077519576337 8.647913014932682 10.100183827152335
Ni 6.676517647233901 6.630160435094984 10.240880659653731
Ni 9.675106045054775 10.20648313635349 8.090561750960854
Ni 7.65036360137052 8.656415537791634 11.444900356673832
Ni 11.603522564618398 11.135334033511885 8.8974187746724
Ni 8.040468353033475 12.835802438929324 10.287311433046622
Ni 9.050807138838215 10.862198731688789 10.355303197372924
Ni 10.21623235028708 7.9581400518633405 8.291213050533736
Ni 7.933124999361129 8.945385656722792 9.144038099338578
Ni 7.641576385832382 9.387083546489523 6.842330781464253
Ni 12.306646519323762 6.96157867537515 8.177631353675716
Ni 10.175676587324011 5.671714750148868 8.088644340040132
Ni 7.594404186940285 11.407473217314147 8.319057561838958
Ni 9.52156834136364 7.216844418633686 12.122656743765791
Ni 11.215299838573912 6.706330317850135 10.265493770817777
Ni 8.885566331427471 6.7024711435110484 9.873422280518126
Ni 6.485741220636936 7.55759906936026 8.029426212376945
Ni 11.335449034456298 10.629082097170965 11.228294082154147
Ni 11.048859646926958 11.31816256217099 6.560724689273609
Ni 9.58444308298847 9.619810117187537 12.622357034407015
Ni 10.940258361735006 7.136191841090659 6.241204187133461
Ni 9.968920371449567 8.760385618396471 10.469444355598867
Ni 8.595043871505057 7.184563619596887 6.8667463957457695
Ni 7.650862707566452 10.980807769208237 12.309647377237093
Ni 12.156342957605682 8.906675500544303 9.678245381446471
Ni 9.836542033052261 9.20132160752924 5.97345724431024
Ni 8.732744286503925 11.404521604811137 6.20992321942372
Ni 5.772604127498026 9.913004385774395 8.177688790024558
Ni 11.631470093765794 8.354938789413113 12.018729042436869
Ni 9.64351014008485 12.550910748038483 8.237332344103562
