39
Energy = -169.18957148 eV
Ni 13.257299342413802 13.32894806269016 10.75094340857899
Ni 12.937712595018066 10.871624125258416 11.165223855356992
Ni 12.19740250937935 11.952402513088613 9.266512909501476
Ni 10.706664152356781 12.954716353426928 7.852963665174799
Ni 14.821718756693118 9.85036603496272 12.233121032914124
Ni 12.586655657550208 9.586973417798527 9.136883414813552
Ni 14.428327140220347 12.153304069349629 12.46701928067691
Ni 11.909186527219877 10.869240704351984 7.1738858269197046
Ni 13.191008777534558 8.518358638177412 11.212940770880534
Ni 13.675867054785435 8.160710732368699 13.461163526299453
Ni 10.658271743345296 12.192741412793357 5.647150548931257
Ni 11.689354183473789 7.381082346086962 9.787777484944387
Ni 12.143066281043877 12.593884688415026 12.628414095819522
Ni 12.277671774234808 6.649965625063518 12.165111029870301
Ni 10.944693925074459 8.535359067844011 7.78954129036682
Ni 10.272997937430388 10.557681715094816 8.803157262832457
Ni 10.136965563743193 9.917643931399095 6.015063866944605
Ni 12.944351292089008 10.483308898125237 13.48420364457276
Ni 8.926720624217992 11.603975249336719 7.1067535709354495
Ni 10.930287883027603 9.351270050326686 10.861327699046178
Ni 8.592895391923332 9.2610499987197 7.668196051900764
Ni 10.096998316391605 7.225075112100341 11.643221514240127
Ni 10.376743556914224 11.631009206022226 11.174538287740784
Ni 10.58662472039262 10.882583563499402 13.41029131005262
Ni 11.435245416744568 8.684930963398932 13.100911032532702
Ni 8.927468070048599 12.52250893840424 9.324335427981946
Ni 10.85708203723622 13.674503020728139 10.359581059095552
Ni 9.358281115394957 8.034319798477 9.524473488401341
Ni 8.54989222225589 10.194976708044903 10.365237150496721
Ni 9.133733509226637 9.24730921825586 12.504928103551693
Ni 10.001972478118141 13.204965278396815 12.984296657595888
Ni 8.52122352130827 13.601627809680462 11.304312054809072
Ni 7.1856596080155155 10.978606515833832 8.533326772727877
Ni 7.832710396030879 7.673124335594862 11.334825364404418
Ni 8.402613861602523 11.51827069927438 12.545429511074692
Ni 6.955574524665034 11.96801510711184 10.687610919933546
Ni 7.023230652297223 8.749236932224326 9.421546136464524
Ni 6.810151761504916 9.781934874895112 11.809886614384746
Ni 5.426273953001753 10.362993117303636 10.004493191155897
