31
Energy = -127.57539797 eV
Ni 13.918661464441655 11.602866824581268 9.65407269307385
Ni 8.288701379177235 11.406132556949133 9.44860366752679
Ni 10.1871938911095 9.848723550700594 9.165769478496692
Ni 11.268107855957105 10.774478135761994 12.133002791876681
Ni 11.799292220442494 11.292685150665944 8.154719404750601
Ni 9.139743855261388 7.676704632892447 12.52792982524647
Ni 10.216614212393354 13.359392979917672 8.239080259084748
Ni 10.797068968210292 12.057970806472198 10.066702308638677
Ni 10.848946446020948 8.79609162738698 13.61451204155579
Ni 14.48476851090809 12.976249186595842 12.745370401461352
Ni 8.510939555271225 9.264190646456004 10.728671049166808
Ni 12.43218594610983 13.374012739304058 8.9743984763781
Ni 12.767674940473581 12.92879253776557 11.228478440966349
Ni 15.584159869426536 11.788039444041075 11.163779861495069
Ni 10.693739866311226 8.582588421847136 11.092110858169786
Ni 7.934332090980116 13.248852530484323 8.202635214609781
Ni 10.555133560239074 11.087050676636675 14.315138302063858
Ni 13.709040501698949 10.86966401437404 12.051906467501299
Ni 12.32339793670768 10.052402839390178 10.180591736078792
Ni 11.421519821401509 6.902243075727983 12.473800310269683
Ni 8.82590199665434 9.907292590155528 13.162484589577854
Ni 10.71002667402653 13.485155904769726 14.52967259330264
Ni 8.973892464187223 13.464577566900838 10.401666493241809
Ni 8.051204226102232 9.402305996847927 8.377177770967906
Ni 8.799983640745182 12.395177973412647 13.755700504860897
Ni 8.895372378623453 11.48750150349162 11.568497758088624
Ni 17.579560770250172 11.786601790946458 12.15299042230646
Ni 9.380603352773853 11.268444812051616 7.454434390297119
Ni 12.409187648520083 12.295386710600575 13.525597482932907
Ni 12.732675275497929 8.774864182233292 12.17780919333993
Ni 10.561408062097504 13.043155015662538 12.24375325882406
