39
Energy = -126.84523146 eV
Ni 9.687956294664597 22.403710970249545 20.461338373007898
Ni 12.852472976583924 10.089985125842327 13.079374533894605
Ni 12.733665953692956 21.808902333269387 18.13703689273498
Ni 20.31219490138253 19.411046397645524 21.736195889873265
Ni 12.135753383498455 16.35908927480353 12.867418720323672
Ni 19.335233849764915 0.2655840665066228 12.279264389370534
Ni 18.51757579425647 18.025880182919707 15.700655367703826
Ni 18.54686330225964 17.113598946944315 17.92409443375923
Ni 20.784727456760532 21.195173356300668 11.74398310689079
Ni 19.77218322884215 22.929082477630946 10.746291239856046
Ni 18.729133264971313 18.45059857672586 20.50169600498346
Ni 10.178845114891423 20.10296056843459 20.23195326372421
Ni 19.957889916351494 15.281226213459188 18.026018084920874
Ni 18.888018352917754 18.92000856937571 13.544558122209835
Ni 20.219981375550443 17.12192074335651 19.444721328434035
Ni 20.32547219391777 13.126481101868874 18.29409604069459
Ni 21.678956091483023 9.84981569838346 16.99529292494584
Ni 18.736628774449148 20.292370129125434 11.752817943582924
Ni 20.988069166404106 12.652225704781834 14.39895574996344
Ni 19.253351714491025 14.231854042653636 14.41991731618801
Ni 10.560188382671305 21.41427616508964 18.499847385849176
Ni 16.10816257280557 16.529007033490192 12.508213312401915
Ni 12.372250801870756 9.392050024927196 14.95057351194456
Ni 22.52540889563146 11.248784597801786 15.407234131483357
Ni 18.99370553159072 22.30775872274581 12.799122524429343
Ni 20.637967484826742 11.818112857622536 16.51639163417538
Ni 18.678363570585176 16.423138804479287 13.743416836208016
Ni 16.92453849321257 17.814847165945423 14.090453054042502
Ni 10.243949857369419 10.42661893227023 21.20085705411832
Ni 8.15601566939193 20.82263919046186 20.82694301592189
Ni 14.16061040823619 16.832424462721402 13.441513122106997
Ni 20.837480731197367 14.132257949746354 16.148259877240367
Ni 11.408179433913755 23.33734643213049 19.246189067905114
Ni 21.53380988375503 11.269638784865613 18.726484158704157
Ni 19.156282160009003 15.882355328492164 15.953109876779669
Ni 10.557750387602248 12.522975245440819 20.40474863121311
Ni 11.285724034047991 14.265975259721744 21.515084945331193
Ni 20.799076756679447 19.290172409894787 19.632067929860106
Ni 11.122129838448014 12.203386356333393 22.46535392916597
