36
Energy = -154.71771337 eV
Ni 6.649546539508951 10.280351459715984 9.089748192193895
Ni 11.194899355756615 6.870644687758613 7.63919626308355
Ni 11.323524012705333 9.76570862360304 10.562210782071766
Ni 7.886561230441147 8.105082107863476 9.664968060338149
Ni 10.436924602307165 13.648951066458286 11.82661615420421
Ni 8.979048755871874 10.25989852646803 10.094780076858777
Ni 12.269810878197436 8.193446613609607 12.094848432948279
Ni 9.311623799299213 11.594198633969825 12.105507665067487
Ni 13.584985176824016 9.03603302628712 10.298038341564306
Ni 7.6837655349513385 7.15230814248311 11.75113165481937
Ni 10.358950557305887 12.301905721601852 9.923179389218136
Ni 12.35644306727672 13.483808372872305 10.123294005712596
Ni 10.505770470553697 9.706836096162176 12.801909292971297
Ni 10.112521030887923 8.38532294240248 8.968098824483587
Ni 11.667883130591726 12.756220859281012 7.992036679787853
Ni 6.563751927443676 8.214604353349282 7.815614904346829
Ni 12.278354870437527 10.734415597559 6.835014573109886
Ni 8.768341840373326 7.312364232214704 7.442586814606363
Ni 7.098811780690437 11.237235644772134 11.200128366006009
Ni 8.430054740121676 9.630972160358846 7.702331640897859
Ni 10.49470989346159 10.701552246054762 8.23463973938163
Ni 12.744733620459352 10.306980381702969 13.224879431664167
Ni 6.256764767687201 8.98086020599663 11.04132625733029
Ni 10.53615949737564 8.914216228509035 6.668359059807983
Ni 9.916523039532878 7.923124316473628 11.304697937489454
Ni 14.477885795062305 8.953974376571653 12.462134824098989
Ni 14.052854735763175 11.011560488492949 11.37602400582274
Ni 8.242748275246386 9.387361497073604 12.176411404850734
Ni 11.931021867430994 7.297789309725583 9.928190862012109
Ni 8.306813178543713 13.194811969847212 10.632162439678778
Ni 8.39528406195691 11.914017875952231 8.536090755220753
Ni 10.961375704740187 11.870943528866103 13.72080433969337
Ni 6.359098063762295 12.59825322336323 9.454690735391683
Ni 12.348705184806118 8.989189218949114 8.334841752748794
Ni 11.945515778687984 11.86915357040272 11.678216814105426
Ni 12.775948817314534 11.211907803592855 9.303122191549292
