40
Energy = -173.5099703 eV
Ni 14.806567603172178 12.20152030459589 8.981391823817292
Ni 13.279845712687047 10.019141517624801 9.013889320699704
Ni 12.663586155810082 12.205842249776389 9.703299062483662
Ni 10.519644642193239 13.17756746314483 9.22159768493026
Ni 10.806708743531013 10.834523656613847 9.217620063611571
Ni 13.491152477912163 14.25365477728335 9.046672122617679
Ni 11.465912672737648 8.566306745608381 9.743899527398307
Ni 9.75711488790845 14.69669170807093 10.808520335052055
Ni 8.975321766630417 9.52740193247859 9.079570777666307
Ni 14.443877372413962 10.907251393508412 10.901701005236271
Ni 12.183567123335871 10.377014532972234 11.088554861889634
Ni 13.658518527028084 8.607091067306149 11.015888144635973
Ni 9.823096750233537 9.56784750404757 11.175241831859552
Ni 12.855755482959566 12.305831255393436 12.569157586438038
Ni 8.706875647483232 13.210612761846896 12.317527634770073
Ni 10.671982384426784 12.241278296793363 11.487901321646122
Ni 12.061521446153336 14.099825279715766 10.872745649216654
Ni 14.473298944764519 13.384734883013847 11.098497160522344
Ni 15.31395697461649 11.825992631130129 12.771920845088845
Ni 11.420622813645101 15.56244596070493 9.296206474424348
Ni 8.769974494469999 11.594660444294835 10.36798370712019
Ni 13.247718146385669 14.88616191347304 12.590911363063775
Ni 11.465173072241074 16.2345141789815 11.699069334618317
Ni 11.096967583236202 10.460402780003983 13.077953475916221
Ni 10.749315081214935 14.370118872252464 12.926025597422342
Ni 9.609362061911504 8.651459439756163 13.380367524052547
Ni 14.173985223387172 12.176795442270906 14.745910115162461
Ni 11.610128008341356 8.248736811188625 12.166001850374906
Ni 8.796642714968852 10.898139178867314 12.836428160780404
Ni 13.608004932640785 10.107085442267628 13.198870606432843
Ni 12.06735900058335 15.940844502671862 14.235833082606208
Ni 12.106915622942962 11.228606340759224 15.001332249485271
Ni 9.89978232626477 10.267691541406254 15.069725653284987
Ni 15.088444396279723 14.00224985947363 13.505116777888409
Ni 13.606768857168504 7.785812850769817 13.262132183927719
Ni 12.288755730843658 13.590027799413988 14.531678376887294
Ni 11.827036675829435 8.792355024157404 14.497044935813506
Ni 10.238658907537465 12.424904444686362 14.037870867615595
Ni 14.410986265989715 16.254785989140075 14.00578253750587
Ni 14.033665700157453 14.586644154572946 15.526731298073148
