44
Energy = -193.77235617 eV
Ni 7.14273119345867 9.954447037089535 6.792726324053874
Ni 6.63630599792036 10.821835743431262 10.804555982688834
Ni 8.86109212324189 8.409308431421563 7.227022768699098
Ni 7.407947810912475 9.23384305058897 9.077717514094525
Ni 7.242074987902188 12.768826497372086 12.15566230736007
Ni 8.823534438264623 9.686811910072795 5.2370729838617684
Ni 7.364484292376679 11.480406415976667 8.533997625904258
Ni 8.118666090533937 10.73710327753269 12.816458783827901
Ni 9.052816599571631 7.608412145075214 9.463628273195463
Ni 9.57712861825882 10.196540610419236 8.528681100951133
Ni 7.2800105040133305 13.253474322493139 9.931757356053215
Ni 8.11555411304006 8.9387428642016 11.30454470538303
Ni 11.028198244925136 8.203790658114722 8.277943727175472
Ni 9.127742593702486 12.975043975871115 13.521937820616523
Ni 9.574799713801731 10.851260166167304 14.631193654387648
Ni 10.75333438421315 9.88542465109851 6.536755610965793
Ni 8.948235489190427 11.534982281166618 6.708541881410839
Ni 9.606476569076102 7.188697250514786 11.787220062550453
Ni 8.86732508993123 11.153182062798873 10.596573900351645
Ni 9.324117963229797 13.414153534782148 11.149383831716431
Ni 10.464240103555902 9.166035228791408 10.601162101578227
Ni 10.054679561434316 9.175284685566782 13.014267091282877
Ni 9.340627205679779 12.75774083045259 8.840985759231499
Ni 11.147229320278965 12.054834692669893 7.627091215839939
Ni 10.494389955091826 11.478230708210424 12.392296563556433
Ni 11.171211438313572 6.740918470440962 10.120354300795256
Ni 11.894965213407444 7.797719280087206 12.117424381353484
Ni 11.163073448174496 12.55158173555676 14.581919866368695
Ni 11.221340882163169 11.384393447096912 10.010518266398778
Ni 11.34246474007089 13.641677378180697 12.370288846757985
Ni 14.218725841269134 8.848890716808993 11.955728851282645
Ni 11.825493093203091 10.209952766749955 14.255592935905135
Ni 11.334359015441493 13.682338585812587 9.836711139509815
Ni 12.309981441685924 10.150092568198176 8.334152034222775
Ni 12.382635611583199 10.168606895191665 11.894794980172572
Ni 13.207184194954413 12.362584661721996 8.73773641210217
Ni 12.72405351205516 8.532793870982836 10.012251556015356
Ni 12.993528316088453 8.197378803809887 14.022907625568816
Ni 12.999104362754805 12.07312424462541 13.318635182800625
Ni 14.195136462630957 10.15186572761702 13.96537584816406
Ni 15.144196933670825 12.552467262361983 10.102285648068543
Ni 13.04337617735276 12.584396894662927 11.06716274328296
Ni 14.821695850652455 11.272835594088487 12.036009243842749
Ni 13.977820188147303 10.492057751350785 10.02506087787573
