43
Energy = -189.67533098 eV
Ni 13.161080041809816 11.243135997129427 13.723484176300094
Ni 11.287429690421131 8.454682967488589 11.025346303410032
Ni 7.311796612862178 9.843021436035567 10.979048819578697
Ni 13.351612293977134 9.469599625739717 7.58548194939736
Ni 13.249537993161468 13.49895182743448 10.138533526361302
Ni 9.174018738288348 11.221415909622056 13.593012058224028
Ni 7.244584161492583 11.930171096799214 12.300756784946907
Ni 9.452697764441854 9.427739837215324 7.453466720235533
Ni 11.144563141496432 10.435149095378955 14.758890645598015
Ni 11.37374650298147 8.643566207072514 8.61847617766094
Ni 9.332826523563309 11.461516334669762 8.648851970064122
Ni 13.108559775259447 9.107158022537957 14.681201622655152
Ni 11.25809385491124 14.79455580771255 10.166757604184296
Ni 11.294924984112479 10.632529283437314 9.920786079291945
Ni 9.183744995490288 13.359456020119667 12.477328471865365
Ni 9.24363506520604 9.034838073435111 12.20347339329522
Ni 7.452845445992213 10.033245774349318 8.633348020982734
Ni 11.315900324131551 12.823645136014814 8.819515420801576
Ni 15.161541338574468 12.005018106185013 12.56447575814801
Ni 13.32439384021064 9.188096611379333 9.929459567199864
Ni 15.244192317917687 12.135403179712837 10.139859456800668
Ni 11.234972759233415 12.655149054549812 11.246334829807214
Ni 9.200782913164591 11.267977701535825 11.118457654393966
Ni 13.30018612296184 11.288615300357751 11.24641249697857
Ni 11.382615363765277 10.793088844282584 7.524407042602244
Ni 11.15706559284058 12.59124507153875 13.66943509045674
Ni 9.315886699487045 9.161742986082768 9.79224952099348
Ni 7.314493474410103 12.041500350382062 9.873201512783572
Ni 13.325745974664208 11.491162638364724 8.770267031843662
Ni 11.21962260564349 10.5043948492668 12.37020947287547
Ni 13.168254890918625 13.380513233163121 12.573316448458367
Ni 15.24463920658704 10.130424309316739 8.89633396738816
Ni 11.214985183047725 8.389564125165023 13.442748099289059
Ni 13.243757015750395 9.05621186666259 12.326474039326719
Ni 9.264951873540985 13.471075737463522 9.951313063909007
Ni 9.228661211272197 9.061452561970295 14.560417868753461
Ni 7.308298232739919 9.800027725325277 13.33459240396231
Ni 15.087227816553149 9.884226641914236 13.595088996105046
Ni 15.22641050996647 9.930869393421306 11.243517202764265
Ni 11.17839890350006 14.687985093642135 12.513882455168405
Ni 15.103968808913974 14.059956381270874 11.451241469169577
Ni 7.3077186129043925 13.999902883325497 11.177145601003483
Ni 9.26359972688957 15.408324411857812 11.297345150825684
