42
Energy = -174.67104 eV
Ni 16.671614055410362 15.082684249791036 17.50113944464678
Ni 13.33897242879444 13.738317674326314 19.463878150595626
Ni 19.22105463309059 18.5343722008272 13.89205008802826
Ni 16.52736627073737 14.792633942132808 13.060472659531875
Ni 14.397358209596915 14.94502333252063 12.265685244869138
Ni 15.539835824745728 15.07631068372912 10.277751820191432
Ni 13.491076191722565 16.556140625603042 10.799114508640276
Ni 12.960596861574395 16.565763857876867 13.095865770622796
Ni 15.297600419803157 14.927819486769925 19.550900717059456
Ni 19.001735264709442 19.475586708326492 11.890979861166068
Ni 15.130701737306454 16.837413944097218 18.371667329509233
Ni 14.718965281985529 13.931161247553995 17.090112466082864
Ni 14.191286856082927 18.545716118521323 14.89072384124972
Ni 12.449035079303004 13.529271798887427 17.38377068340925
Ni 13.359034660427278 11.638073485134113 20.696565148849174
Ni 18.46428251672776 14.135776101019877 19.10279504458194
Ni 13.559536940184604 18.05022936561853 17.238312015787205
Ni 17.012299824106552 15.581683362876259 15.239396396877899
Ni 15.638398216816503 17.10246652242987 11.282628047966162
Ni 18.86750442798157 15.652678373601717 17.436690710547317
Ni 13.989212331661285 15.07031566853006 14.728727086084001
Ni 18.737383038290645 14.283942594870352 12.731945341805506
Ni 15.126948719503956 16.660265704067697 16.054302107272928
Ni 17.060140299147708 14.289234407890296 20.872784093197016
Ni 13.236580733346127 15.694892582718879 17.173480580504187
Ni 14.446265345859755 11.995585163184893 18.595234112580027
Ni 18.402360410920412 16.451300651612424 13.589570643703597
Ni 14.110634325912589 18.425108411075776 12.457350864529243
Ni 16.423790151593078 13.120428304340798 18.782792502852843
Ni 12.135283677747882 18.712945996658007 13.742958688922153
Ni 17.14356858157258 17.354043071662186 17.12069372541452
Ni 17.32293205530706 16.250748505674725 19.328778903158742
Ni 17.03453250524127 18.106444347587335 14.863058653929738
Ni 19.061208989279994 17.15423990011503 15.723205228656361
Ni 12.513793602567233 16.985118062692024 15.367491645275294
Ni 15.40905409436112 16.824986820515953 13.644182567960549
Ni 17.32108598455956 18.141431052241717 12.437703206471134
Ni 17.656381568866774 15.902931128091394 11.31179907992747
Ni 12.16544395774394 11.715624001197623 18.758639084631596
Ni 15.18979579719961 12.912707427696859 20.825612801262047
Ni 12.05747511680905 19.231532646808486 15.977576288804231
Ni 17.187223829734396 13.652889999648805 11.094038140271556
