47
Energy = -205.96416633 eV
Ni 14.835435841903697 13.98708800332538 9.173813012256186
Ni 12.786494753437326 12.963069678075167 8.910423517606027
Ni 10.765171036779462 14.348418846664202 9.326785302548359
Ni 11.278251915769468 16.56752656651455 9.819648673069164
Ni 10.620264005732935 11.96318671265405 8.98603608554151
Ni 12.582193265958358 10.808796570569987 9.876447854421047
Ni 13.254776696037364 8.672286975275593 9.414899538209482
Ni 12.991274703476018 15.104490514074257 10.096993131969834
Ni 14.53597051108475 12.01329980765603 10.409742696302677
Ni 9.281653756073954 12.819855116275667 10.7684889440001
Ni 16.60675765729782 13.149699197569522 10.448929158751072
Ni 14.392062704511066 9.721330907151101 11.126828896016143
Ni 10.963612131697817 15.1717747491464 11.559762839542206
Ni 10.489240912608558 10.629038189508236 11.007961461404314
Ni 11.556516922919316 12.823123357598154 10.946569030711098
Ni 12.102934102359743 8.997886885037412 11.367240561177233
Ni 15.171725672926584 15.096101263815735 11.223684670532155
Ni 12.56373439468374 11.30533848038337 12.465188344764282
Ni 15.983702633080838 9.070817652238762 12.854874371778694
Ni 7.957660376123675 12.478222419337685 13.912307084976007
Ni 13.611630443168094 13.566514801196417 11.87191785009956
Ni 15.8484021196444 13.06018347442211 12.59161292598747
Ni 16.4233482032342 10.966624451270272 11.501523851258765
Ni 16.937401503288132 11.345146826006745 13.861805337690297
Ni 13.077956843907756 15.899156258343673 12.37332659788089
Ni 9.239247783010386 14.1512156169011 12.732311056656982
Ni 9.82806263107231 13.532692650161165 14.867680778862104
Ni 14.87274109801504 14.927888324297781 13.634175072181714
Ni 14.782819646211196 10.965055642782396 13.207762902731702
Ni 11.67402660007745 13.60336661097573 13.221367206082133
Ni 13.511106096749476 8.941600361945005 13.189549811184667
Ni 11.138961647947891 9.761613825230485 13.49901278915643
Ni 9.98885481505643 11.863187351716215 12.876277991136066
Ni 13.701771927584245 12.844816936875354 14.162885918098075
Ni 16.468789065380882 13.578050596259727 14.778905078784996
Ni 10.847626330731117 15.610205960813321 13.944794154530962
Ni 12.035420688399514 17.53474517471469 13.592665566673906
Ni 13.098182101526243 15.870416353828185 14.781111250679627
Ni 13.381389975526728 10.359103215878118 14.982734551688557
Ni 8.24103528438601 12.55591818064843 16.251395649362575
Ni 14.4285421803397 14.11727628401724 15.928759114138337
Ni 9.441478844117823 10.978560356038603 15.017647630837955
Ni 15.23210268342047 11.771109008453825 15.55338656588186
Ni 10.635940349183294 12.336392739336224 16.74414923619154
Ni 11.97207646564655 14.059666361127448 15.661984964167122
Ni 11.610031885937763 11.738914641163749 14.739045449365934
Ni 13.082653238834812 12.200260549585446 16.566619969973104
