48
Energy = -213.8503233 eV
Ni 7.623103805402524 9.220180523694214 5.177810768270937
Ni 9.858519971458481 8.55837057993174 5.4253771774843065
Ni 6.067031255880328 7.426456486257416 5.235214341877154
Ni 8.206178825493856 7.042280311134044 6.191614066855925
Ni 10.353712904344645 6.164166143224929 6.240735876463568
Ni 6.917495387747646 11.383844615416205 5.4126283288520955
Ni 5.230886755865654 9.659368275875623 5.898501455184724
Ni 11.13645334350734 9.89727541819926 6.920966545753194
Ni 12.03658726235553 7.869743821557608 5.978817859837956
Ni 9.349054247281943 11.001382588254051 5.582699627211078
Ni 8.548975847941563 9.775771106825337 7.322293538570248
Ni 8.6465039380608 5.199882617465454 7.7426778320071525
Ni 6.5789768295738 8.481337423837282 7.299978955336709
Ni 10.123013159462335 7.922284914928716 7.7628945237811235
Ni 4.432368258484412 7.54471350820487 6.929585932308595
Ni 6.32939713887658 6.008093039312518 7.183438012324333
Ni 12.19126769399506 6.29509149684955 7.722189610176033
Ni 12.71437604554591 8.535247871142264 8.123161841772173
Ni 8.100659120701355 12.42641836521248 7.134631946454036
Ni 12.066761114816243 10.673307126603127 9.023517968957739
Ni 6.390678944921064 10.895915250925158 7.622951301270624
Ni 9.826342536775712 9.919398770163019 9.234456252349787
Ni 10.189313585152927 11.804337840363367 7.852869426845257
Ni 8.097472493734092 11.676115834832226 9.438189389839424
Ni 4.700334047395143 9.394205867331886 8.43072658585684
Ni 7.937561418210795 7.132685828982464 8.679620573226638
Ni 6.360105916157406 13.030331759524959 8.596212262457708
Ni 5.466896276360023 7.2573756537323595 9.087308726084911
Ni 10.428519485519027 6.050776398117168 9.15651377985774
Ni 6.648282745336254 5.153177384932549 9.326120665692413
Ni 7.287057250095252 9.376506343164943 9.54021520306366
Ni 10.415665730997183 12.011016399275086 10.211902783217012
Ni 12.70188494593822 6.532736119801894 10.08487097234794
Ni 5.4091883401792344 9.005764076359297 10.80382986384393
Ni 13.416756034325985 9.081256409882917 10.300134472826963
Ni 11.268374507005074 8.245297311058142 9.946082527654154
Ni 6.834780192764046 10.937248074499243 11.483895289655743
Ni 5.472000898928859 11.192001078748541 9.714438127743723
Ni 9.02387672188365 7.980437732387559 10.53171084469362
Ni 6.789419734764886 6.972291524194069 10.934984371846971
Ni 9.080052727473252 10.444456044070302 11.384502435513753
Ni 8.63053872107229 5.511899282370844 10.495314521795297
Ni 7.524018761313249 8.828878555902593 12.177517581650681
Ni 12.31884446673468 8.003250153054111 12.082716808829652
Ni 11.443011324578302 10.140100424256778 11.321103287194793
Ni 10.6475153551008 6.424419672996624 11.506132964546303
Ni 10.018536066549744 8.571367776440235 12.53048122073692
Ni 8.518240016723922 6.698128351492831 12.573053702666392
