43
Energy = -188.77682834 eV
Ni 11.039491570463223 10.308510186231995 5.7426095490420535
Ni 8.853573434242513 10.27933879078111 6.355951003592733
Ni 12.613032567911716 9.026842771056714 6.83994782178068
Ni 12.669739307153266 11.461727148882563 6.939716657803816
Ni 10.161269661052609 8.352947128549905 7.0080107134979395
Ni 10.267567073940251 12.182192045212702 7.164379924690187
Ni 14.730743019737544 10.137802371619852 7.3892914746010465
Ni 14.11349644591483 8.192264520939322 8.56379135108046
Ni 8.198159496718008 11.272211071445001 8.30055770298478
Ni 8.016293406765762 8.921260590425025 8.107698878357779
Ni 10.65670618530937 10.237444590461623 8.231645874984565
Ni 11.723949401939254 8.082746823497413 8.816126407052947
Ni 11.982454332112864 12.375632891136314 9.00014938507567
Ni 14.331292168978344 12.077587541677856 8.657507798736788
Ni 12.96308987343186 10.190577918739239 8.926037526447974
Ni 9.81562705804351 12.153381588776963 9.67237342492822
Ni 9.44079209800826 7.397038513250224 9.200868071611005
Ni 6.499595563403554 10.190452179538191 9.535065149469872
Ni 14.958526230764464 10.07894522199286 10.015518443812411
Ni 13.174230593018422 8.551440170327863 10.727139040093977
Ni 9.631259619718014 11.259048867893705 11.885339961467318
Ni 7.5429727729266665 12.172620127786857 10.398377389606067
Ni 9.070215865431368 13.560224571091371 11.554019456801285
Ni 5.4879608330225915 9.09172459900782 11.458580441952734
Ni 8.888608134581306 6.940484580230749 11.601348212966677
Ni 9.23893900311292 9.636856324396373 10.0455526810419
Ni 14.022956324686934 10.108836738021505 12.262677929622683
Ni 13.407677527850565 11.81421365261402 10.85281606242836
Ni 7.386263067249467 8.123037790242146 10.327764336628947
Ni 10.897646004662848 7.942679983892983 10.968856279579716
Ni 11.330977271404358 12.959525492504925 11.29067624415013
Ni 11.475340553914645 10.3575178876227 10.722608685586163
Ni 5.529813055698383 11.479931156246204 11.392017606598598
Ni 7.455456755104047 12.345105231762943 12.79264492601512
Ni 7.561469521963628 10.181413815126447 11.663573176903862
Ni 6.050100533841095 10.369012728213821 13.437633636766313
Ni 9.574226653460975 8.947104274703372 12.613492338465509
Ni 12.045435839820495 11.438263422364981 12.869435633415147
Ni 11.974232084948035 9.066823400244688 12.743318701678408
Ni 8.33188871065941 10.506860705597136 13.93748287134328
Ni 7.291935257700743 8.27427606012425 12.879198341287871
Ni 9.844224577199789 12.52206681593291 13.693060825543446
Ni 10.602407903505325 10.28366507120713 14.266775421877924
