46
Energy = -202.72562788 eV
Ni 7.932303944165107 6.4380078762051 4.821301521486555
Ni 6.531285394537563 8.266465914170034 5.965212069271488
Ni 9.856569544268742 5.837369697408609 6.244104791866028
Ni 10.280755152351768 9.997799478711759 5.934140981749391
Ni 7.816215678657366 10.266649316206248 6.557967759130869
Ni 11.226016041201065 7.733049820672746 6.799670819076059
Ni 8.919233653001797 8.10674936004478 6.06577071673699
Ni 7.322899981206299 6.225236869691037 7.026598597719814
Ni 5.835790305594261 9.932431380459386 8.008536621584511
Ni 8.087236360863924 4.351015197961214 5.871918413956373
Ni 11.57807683191689 11.8967637025122 6.233133309720676
Ni 9.28629455587556 12.043839976841452 6.8150392305526255
Ni 12.20510653925557 9.89701099139614 7.438174942132105
Ni 9.96738568614817 9.234462534741102 8.098552028551165
Ni 11.30084992894828 5.844340204685602 8.380396019185332
Ni 7.016269581033317 12.121620867412268 8.031594435292327
Ni 7.571792754945923 8.505446843210569 8.045052871954258
Ni 10.997789403995467 11.608336909719487 8.4539947660476
Ni 8.694687990975657 11.003265184078654 8.959069988706311
Ni 7.414885760019741 6.383967945244619 9.431960276668068
Ni 9.350561342392407 6.9769820273816014 8.241979597865559
Ni 5.552209561354933 7.43276739809297 8.060760636173322
Ni 12.212121980350657 8.12128836823595 9.013649704507587
Ni 10.609627476124368 10.021288041110251 10.232940943840442
Ni 8.419415803015298 8.909939000361943 10.126079747103688
Ni 10.311475089638218 7.632662131638516 10.26210427915331
Ni 12.76086327078888 10.357145058413815 9.74362069878266
Ni 10.479226417645155 12.398501390262824 10.61669367983685
Ni 9.589313057332642 5.470159269569526 10.26070535289897
Ni 7.68937464062686 12.82677256692947 10.390031785587592
Ni 9.283046305015624 13.351052293047704 8.757119383626597
Ni 12.082129390167225 6.257957966458906 10.598974723472013
Ni 6.577462879066256 10.713063202369911 10.121503683921699
Ni 8.849050237898384 4.718260192260438 8.124515411590377
Ni 9.35415086611956 14.413869420189323 10.89511268061344
Ni 6.168969642451793 8.289990346039865 10.181337416763713
Ni 12.012507103095437 8.618033045019182 11.52343071035513
Ni 8.749740063191277 10.923773526950962 11.33253007174996
Ni 8.154192153754245 7.079623770392463 11.591091258511051
Ni 10.96948849052281 10.851912284697574 12.427704304794918
Ni 9.111488354236249 12.804784512138 12.575440717541744
Ni 10.450209774562914 6.637245917307261 12.30034173855593
Ni 6.887451990125851 11.706038925395061 12.394058813638441
Ni 7.1855123344121035 9.312541199876074 12.131256777047057
Ni 9.641418770756543 8.861326905606038 12.333299875285842
Ni 8.732542563104081 10.644185815593778 13.606520492105354
