40
Energy = -171.41839213 eV
Ni 12.27698030163748 10.117584327956394 7.017899960948391
Ni 14.035430072918151 11.546861540525908 7.878206747571699
Ni 12.059805635450704 11.203504996856214 9.038515691164456
Ni 9.008203501078688 8.796964569450672 9.589084931403619
Ni 11.190249943064474 9.05528249446205 8.922299769255758
Ni 14.078085658187193 11.33599756949481 10.380700719110507
Ni 9.91087412179218 10.827108335750768 10.144785792030392
Ni 13.696879306177797 9.390810472085594 8.65042784831992
Ni 13.233270076117204 13.261941542729014 9.267927866573883
Ni 10.943282601820316 13.063690199371116 9.874524112449116
Ni 8.650900125354667 13.112102576424357 9.823489315749868
Ni 11.199557741156118 16.933568937956966 11.25134458434993
Ni 12.316124343462143 15.101460492939093 10.352378615462413
Ni 12.789094293345794 9.345451411814002 10.692309028433876
Ni 13.294010313341284 13.375140391334808 11.641125538588215
Ni 10.578721005491792 8.702119705657855 11.267230494835703
Ni 9.940835737853119 15.223173324926144 10.218469320069211
Ni 11.806938854414367 11.455205120124 11.524240352583552
Ni 9.340346186482906 12.319326668907372 11.884919652802862
Ni 12.586480182856132 15.54965070533038 12.698925456017719
Ni 8.430457611377184 14.506175169581702 11.769959042549944
Ni 10.015592820255012 15.929469142454417 12.952692368661294
Ni 10.47408472249497 8.289893373809582 13.786656160640172
Ni 10.933350967279853 14.060783363356041 12.057585674840245
Ni 14.499780943044899 9.86105671576905 12.26446017678786
Ni 15.139124135166163 12.173437228633215 12.353222236124147
Ni 12.302863429460478 9.263347380101234 12.903522293464803
Ni 10.059352869310112 10.332945983160098 12.83490559049579
Ni 9.188321455686754 13.821016862701253 13.834974666014025
Ni 15.710526138097554 13.15422525897357 14.376740751294761
Ni 13.45565481901969 13.72146081018981 14.034321908217077
Ni 13.234902111375947 11.436908354848514 13.511751473794224
Ni 15.737088308584276 10.778916776357082 14.12888177567491
Ni 14.269185945418858 11.865329144764592 15.599368783058381
Ni 11.412324977896652 10.27978813528918 14.841691374179089
Ni 13.783755269929761 9.5679976839784 14.759364364829421
Ni 10.995767077707999 12.343361769343712 13.67251318166844
Ni 11.328828186906973 14.560039770988325 14.507727592371783
Ni 12.04389026231771 12.555950095612108 15.710165674938182
Ni 12.765603247653624 10.497476896977318 16.697214413661865
