49
Energy = -219.72249336 eV
Ni 9.032080900048744 13.621187351447896 13.651450644316647
Ni 11.538358505769436 8.473698652076585 13.640817209528546
Ni 10.82055991542085 10.70753723015031 13.111462989834775
Ni 9.906175835853947 9.681240669469636 14.981512742979668
Ni 10.578545208563076 15.370477902553564 12.784433849734258
Ni 10.229476839020126 10.039050488712807 10.817642288113383
Ni 10.941162076184286 7.772963571906785 11.350237915981733
Ni 8.715622915320862 8.344415908240597 10.501265398863152
Ni 8.526146175668126 11.174107381601196 13.647391926734274
Ni 9.24930054667285 8.937577310174492 12.781670045506333
Ni 7.893499557739339 10.48587085636674 11.352442372603988
Ni 9.4992362731848 12.22943518201463 11.676459149928078
Ni 11.038060491670027 13.959536384158369 10.815578469855746
Ni 7.326139733835779 12.698403792836482 12.205856985980725
Ni 8.089561173134488 12.532808864307219 9.851550815891526
Ni 10.659981118264739 8.577109393555398 9.080998490369769
Ni 8.740710334994914 10.309474597930674 9.080692990184833
Ni 9.567319669447123 14.31711150394661 9.080376759957558
Ni 10.326840340818766 16.12418431941845 10.499603312551987
Ni 8.73089140128457 14.484995998222617 11.356767278529023
Ni 12.009982532962542 15.116876549743582 9.079538565611019
Ni 10.372599761851838 12.05486182699685 9.25172663438613
Ni 11.761366670070649 11.767661113875175 11.165692854003654
Ni 12.209051637192031 10.405941214779242 9.268178566613352
Ni 11.315403540269045 13.117810972985211 13.11149082144426
Ni 10.352765229674912 12.059387113485979 15.068569843205626
Ni 10.887846990674703 14.419862231170455 14.986097958208118
Ni 12.58379919245361 15.753281962159997 11.353632692876332
Ni 15.062018775547017 12.388700020854579 9.078671054896894
Ni 14.25683318136539 14.558284617209777 9.849302808017882
Ni 13.305208223698248 13.485581755243423 11.676138250202419
Ni 14.722988210910662 13.211711502675271 13.64570422072696
Ni 15.636189524666259 13.034248338990897 11.353416590538856
Ni 12.721071917312083 12.840307589996812 15.068695142594748
Ni 12.859559641579231 14.876815580039883 13.651811377424533
Ni 15.468402011082276 10.987797436858427 12.783197367986011
Ni 14.775012206314804 15.148410033617834 12.202555850226478
Ni 13.152079697092804 11.476356942185602 13.11267026104294
Ni 14.544061976571983 9.851652958917969 9.08412529981581
Ni 14.023919887829873 11.290379576038099 10.817302068295541
Ni 14.493926340704405 11.199565005084546 14.985802952847743
Ni 14.805104911246874 9.045591397748298 11.355646585499377
Ni 16.24694157979108 10.823526105553412 10.497700080201664
Ni 12.487081296124764 9.579056201779704 11.6749918608306
Ni 13.907828282082388 9.254398692701942 13.646577371712128
Ni 12.944146247311256 8.182211396859365 9.864737365488994
Ni 13.190484962774649 7.445767636021768 12.210924163453528
Ni 12.70422228942092 12.816666654550895 9.24803422578927
Ni 12.216731818440813 10.392398062754918 15.06515352861263
