45
Energy = -198.55697899 eV
Ni 9.549724796866052 11.17958326675492 8.669545155145633
Ni 8.599284524401646 7.119735202962308 6.445367851281043
Ni 8.405783393084526 8.432315881956274 8.588005762914865
Ni 9.902317494108772 5.239563068470301 5.047623518997395
Ni 8.3788081563353 4.631860978251174 6.769177972054439
Ni 5.370692111614599 6.081036960159501 4.448317906444276
Ni 8.552864005737868 9.731656152719788 10.492955272579856
Ni 8.887171447960919 6.063220820090954 8.652224050236216
Ni 4.203092152998735 7.142462797153683 7.807988810649998
Ni 6.443757750890835 5.408516835729862 10.613989126894829
Ni 8.565524406012521 11.26359165068049 6.487839047747799
Ni 5.346219164866581 9.452547844117346 5.091479060924169
Ni 7.315228197835673 10.572446031147408 4.547024872773632
Ni 7.49909260931306 9.26007073368608 6.5051039858889865
Ni 10.631140320974838 5.320063967674577 7.2417455528062185
Ni 10.847920174372984 6.1416247459331545 11.864715976831972
Ni 9.253078971255087 9.239986298815221 4.961464668258492
Ni 7.428150809556365 7.5449855088193445 10.628580908794524
Ni 10.778810527268185 9.419915785304607 9.46299291593733
Ni 10.960331361751434 5.486367370192551 9.652089116128804
Ni 10.824149991154048 7.454195974227822 8.193032849399577
Ni 5.977258467025165 5.087062505669044 6.654866744150128
Ni 3.839686090949592 7.697635640107005 5.467874264660882
Ni 6.133601407773044 9.531107896506253 10.4058902046788
Ni 6.647590628998261 6.607809260802362 8.417383228463024
Ni 7.148820363219297 8.059122450819451 4.266517653023711
Ni 10.789332153023988 7.427900350736569 5.8181215668694515
Ni 4.060445787941343 9.527671582163071 7.0506387174137855
Ni 4.9874545307002585 8.035532824172916 3.3250417473874663
Ni 10.050320381583258 9.429795077624533 7.150751697391559
Ni 7.568969472673345 5.67318271715071 4.830873754991396
Ni 4.879170908084165 5.11082005451485 8.831745900815893
Ni 9.740583709308032 7.603835853401052 10.514670115099783
Ni 9.273077359501297 7.15053466661458 3.9663716030872807
Ni 3.8387775081121696 9.044957167475992 9.391540821902058
Ni 12.038343602844652 7.521760628473789 10.243215349608217
Ni 7.336330185570641 10.733441882288485 8.636696798280365
Ni 8.78079280692804 5.387707054065083 10.859911435321546
Ni 6.007630175386568 7.388437467696989 6.2456622130034445
Ni 4.985939225058492 10.99429766994156 8.743466218111708
Ni 5.9067555724417256 8.847379266791284 8.231762639180792
Ni 7.13372105290655 4.2582468805276115 8.709126375900865
Ni 9.473689815004956 3.843770807260219 8.834074074999121
Ni 5.098059312372265 7.257066562907396 10.101711072187971
Ni 6.060310778101703 11.094979521310913 6.630625084650092
