44
Energy = -194.23765288 eV
Ni 10.775167728048437 11.583696393136439 6.526054492103034
Ni 11.711288186176352 9.36701375755481 6.703269808957123
Ni 12.538783306233004 11.207191930511003 8.052902208738434
Ni 10.719013621922914 14.462036248073073 10.07471580714439
Ni 9.139613004292913 9.945866846419174 6.137202220789062
Ni 8.620183763404045 12.03655138192237 7.517603472529372
Ni 12.658976209544301 8.956628620357758 9.00361814458354
Ni 12.571959655772533 12.874367091208313 9.904117510305285
Ni 10.600899360699321 12.581661097573638 8.63786354927615
Ni 13.810743431162756 10.804980348627733 10.060864703900048
Ni 10.06753805451911 7.806900317670263 6.0546217005290375
Ni 10.124022435616402 9.94499624595533 8.254690205299001
Ni 8.596563749042899 13.583143492520778 9.578587628615912
Ni 12.051959778499231 14.060307240371076 11.93234132405631
Ni 11.449299367223324 7.298565481281849 7.960940772214919
Ni 11.43034544657006 10.696663987070684 10.057221455255736
Ni 7.64725774336278 9.958973019712912 7.956375017189334
Ni 8.845250903649907 11.3059817077726 9.777153845078447
Ni 10.455955969767535 12.438318318975776 11.249054858097814
Ni 7.623080150066562 8.04223878550047 6.4881547001450555
Ni 9.816622153362971 5.704909332467274 6.93016596864342
Ni 12.66207909155112 11.660340886311577 11.96931740019845
Ni 9.079231859862174 14.026814000812898 11.974841084005705
Ni 7.764054876384482 5.9464820024138 7.990955222141493
Ni 11.063640576744055 12.699691393629841 13.50795115124119
Ni 10.533414477222676 8.315538606076734 10.164278512834827
Ni 10.10575408124319 5.872614567600411 9.250822964055697
Ni 12.553834235824946 9.232911595750041 11.455649422694421
Ni 6.488969794663837 10.49883838982419 10.019550285792791
Ni 7.494551093859913 12.351603605380435 11.332384264947748
Ni 9.83362806871527 10.064499989543808 11.688446028172057
Ni 9.11553612203564 7.792098873196735 8.189474330128268
Ni 12.173677045046018 6.840211260264722 10.33372474630764
Ni 11.335763390067894 10.3455521309409 13.390608494625301
Ni 8.30355109514359 9.055136367399003 10.080184886553848
Ni 6.644898236566754 7.965132299226395 8.72360429001897
Ni 8.971134888483169 11.764363005850564 13.089017656535939
Ni 10.886793138401677 8.107123781983931 12.658248104501075
Ni 10.077905872010675 6.233777873089877 11.512597231972471
Ni 6.402141483924214 8.234123133118278 11.104678734510056
Ni 7.479489846286528 10.107300586526218 12.17257299815287
Ni 8.07759556830332 6.688649215999581 10.22907038801093
Ni 9.171142517195754 9.472365567426667 13.880108575428581
Ni 8.566676065308503 7.929171786514066 12.177410921515005
