48
Energy = -212.84335743 eV
Ni 14.803300812688704 12.249297455661958 12.14596510432835
Ni 14.177168164708949 12.063664016533131 9.764901640100321
Ni 14.33277805525727 9.786658650921563 8.857611122226121
Ni 14.449296105976837 10.144462943455284 11.25929712581832
Ni 12.954739953660747 13.24325552472184 13.177056337489043
Ni 13.531818184500048 13.967430879851827 11.043857087704643
Ni 13.209274169332831 10.84745096849114 13.49834146426983
Ni 13.883939007899183 7.998821197571582 10.629340374473648
Ni 13.25722667962065 7.577174780524243 8.510648387975513
Ni 12.602602132362785 11.597455876151612 11.36891292820366
Ni 12.766166236997368 11.503919579224446 8.016474526353868
Ni 12.787090099072971 9.32464143966501 7.0136213168985115
Ni 12.462992525503047 9.091118075904252 12.119886291261132
Ni 11.06950692333677 12.000549955276389 13.594608113301314
Ni 12.065701703241318 13.464822612489202 9.261138360775035
Ni 12.232608301192633 9.624301007461677 9.743945057330496
Ni 11.202382506448222 13.476433305230106 11.483679658310988
Ni 10.329553282485385 8.216535468847558 12.213205488486306
Ni 11.493454446963884 7.379657439407869 10.315126692329292
Ni 10.49300140037087 10.57080988742702 11.829478972737483
Ni 11.018542648496735 9.643151397870046 13.971787047266925
Ni 11.071491347824605 7.945779332976131 7.983602606813289
Ni 10.822954788232558 11.587618499917772 9.749098963491647
Ni 10.743853621963861 10.231235886919944 7.846787089160548
Ni 11.648017921002282 11.119477461078798 5.890164334184586
Ni 8.68956730669072 8.508319474362837 13.83873661226593
Ni 9.774769516363513 9.207052225934712 9.870628746359593
Ni 9.435268529459002 6.852744483143475 9.058760594572744
Ni 9.221806533702402 12.968754489509891 12.517297434320353
Ni 10.57820680933649 8.93277342630571 5.922594478509894
Ni 9.034396851575549 6.659593827196897 11.314432361276578
Ni 8.782997509410167 11.433808296123217 8.341987399674018
Ni 8.924119452468684 10.841114889769836 13.609312109242149
Ni 9.472499570505757 13.497910846995675 9.673208673213832
Ni 8.59163920827078 11.565525754059763 10.764371065194863
Ni 8.250986589876012 9.373632840556878 11.69235819079031
Ni 10.653998525929397 12.65103380154683 7.512722932191018
Ni 8.708000117403765 8.892110135432416 7.769307051359641
Ni 9.27466065106803 10.889231481289542 6.160063728536289
Ni 7.367652658282653 13.570649852820656 11.277368487014966
Ni 7.084792904534205 7.50606281797961 12.369043544873653
Ni 7.570254071558544 7.890219994216784 9.906243708447995
Ni 6.652316844724175 9.858626426179876 13.252453595831179
Ni 7.226871450622432 10.107469200353863 9.421787325083912
Ni 7.110349140028101 12.259532599645746 13.280392914197394
Ni 6.981721761752758 12.531646867303296 9.27010397920019
Ni 6.32362023557612 11.365148840393786 11.297761567707967
Ni 5.8636216829686285 9.074011230711564 11.113618731371481
