48
Energy = -212.77174152 eV
Ni 10.898141594714124 12.066602835009297 5.774297863959516
Ni 11.09028148979459 9.649552492278204 5.770605476057725
Ni 13.14774563221238 12.720073960828506 5.9359718371284655
Ni 9.085094799463137 10.595553762502924 6.649705238502703
Ni 13.298329296293591 10.467917131348067 6.4680010463095945
Ni 12.34572624262358 8.491033231555523 7.418971517567786
Ni 9.53079247016665 12.65244446665944 7.721420931699363
Ni 7.392004611300896 11.536426988350614 7.984966641104683
Ni 11.726939933248385 13.441394659043882 7.651067625973952
Ni 9.966828667062677 8.690249420516398 7.693931732581061
Ni 11.418676212949826 10.963055921303502 7.701559394419909
Ni 7.661075990041199 9.168990929053233 8.39981281441516
Ni 13.503573168937102 12.090109598494195 8.236765470979842
Ni 13.87456839287501 9.792711490539531 8.727258938646296
Ni 9.36235823958134 10.537452621222311 9.087754008355258
Ni 11.133504419729606 7.181563547108534 9.027512239506624
Ni 8.739051766361216 7.152931010036206 9.130475406263695
Ni 10.374914899501304 14.327708177667684 9.381954395995205
Ni 11.687249454949791 9.503904377838733 9.529081460535986
Ni 8.417150795567123 12.724723113282986 9.756964552663554
Ni 13.36945484123372 7.568462411752119 9.413824736857935
Ni 7.214836603562611 10.771339220885155 10.25958137089966
Ni 12.66994796168494 13.641881178063302 9.892162800327933
Ni 10.930860866758287 12.095583541989214 9.813614625435534
Ni 9.733296876366492 8.671047619144034 10.626351946470733
Ni 10.165928507636599 5.7717890388980715 10.512667451122562
Ni 9.384089455704226 11.170297754147112 11.522730479475136
Ni 9.553482950009464 13.652173703558969 11.4749712018456
Ni 13.627086370560704 9.16428303447767 11.081445445315836
Ni 7.433461490496502 8.46376178042052 10.701184302336065
Ni 13.12373215406235 11.364876064909383 10.467265056902892
Ni 7.935037176384164 6.192791089115548 11.156184280933056
Ni 7.557418117288606 12.454719757937925 12.095630522068571
Ni 11.803098204069833 7.630120962480918 11.319746365024896
Ni 11.537096882731348 10.065918739883145 11.786595198653215
Ni 11.625069053732775 12.51962700012331 12.050322045384641
Ni 11.505798419428329 14.812525452158948 11.534618854890553
Ni 7.0521698774669135 10.067775817111638 12.488445783780463
Ni 9.211303811589076 9.260545479509158 12.92788807039578
Ni 9.767026740782105 6.969602824093804 12.40855980034317
Ni 9.774245410964001 13.112415327377255 13.631058937858112
Ni 7.436058910973663 7.671259570122575 12.924169233159143
Ni 10.803690413265961 11.020594642113787 13.737766548230091
Ni 11.289686117774094 8.524162899892234 13.583576163392543
Ni 8.444243273747633 11.264624467896953 14.000613789794478
Ni 7.492112983917304 9.202652458600854 14.724102300950861
Ni 9.193063635641225 7.531038856920335 14.5846034179342
Ni 9.770702284095146 9.667737041077707 15.290248146851384
