43
Energy = -188.25958892 eV
Ni 11.857063217629053 7.213259614389468 7.602994925092878
Ni 9.995127810981101 6.35384560355017 8.789396861179526
Ni 13.490082324918685 8.483182509784404 8.749992166287578
Ni 10.306937754577662 8.744637955707153 8.372847350955956
Ni 8.142378105515002 5.6274103529788375 10.091757580378536
Ni 11.727746751410155 7.468994821480216 9.974459007727274
Ni 8.259392164157637 7.8272951243475175 9.385548273617188
Ni 9.70791795776972 6.991960412424224 11.094048876630328
Ni 13.087827759435879 9.006027641630574 11.114003094282594
Ni 14.503951272243002 10.314514236779628 9.783119345657532
Ni 12.046635050855585 9.563974469728066 6.998981843847418
Ni 11.353399931961324 8.036389882774717 12.460377592536908
Ni 9.871351098844304 10.600268467911425 6.813381259783866
Ni 8.091204078499787 9.657043547998093 8.077664868084545
Ni 10.481917850432735 9.409660477194286 10.805407750634341
Ni 9.768357866955256 11.014967281848612 9.104318912237598
Ni 7.380381472656896 7.406083025782037 11.468545541834605
Ni 14.339491696139733 10.973316818205111 12.070936389939188
Ni 12.136886702930571 10.318756831944672 9.202542738240885
Ni 12.901022293523875 9.640765888824514 13.362797997798959
Ni 11.660138688988171 11.942055281250783 7.581248855418525
Ni 8.984985482577214 8.711328717472677 12.603936745151634
Ni 12.058257169480202 11.144663995115442 11.443769184853442
Ni 8.05772686924271 9.906461404330846 10.62674000168414
Ni 15.494372335615296 12.295932812715636 10.444442521913695
Ni 9.706676692243608 13.228519280344 8.268977942298445
Ni 13.608456454513497 12.296719849512044 8.993383994465246
Ni 6.6837337643454084 9.382441085265881 12.475630153024452
Ni 10.65525219471741 10.303787349440825 13.226385222905758
Ni 7.916726809631448 11.899105521305641 7.577624716074142
Ni 6.427887469638168 10.893183731797858 9.19849562582042
Ni 12.484449768884536 12.02528847322729 13.505071191405898
Ni 9.734983686720819 11.735446236581822 11.3829532160038
Ni 13.449470426638968 13.017515703696379 11.278107655148759
Ni 11.463906423145415 12.79049572016715 9.776449080157326
Ni 7.957036207293107 12.500732447394158 9.865965207002313
Ni 8.314302056935732 10.941880744931556 13.102557726170305
Ni 6.546748901165787 11.523606366010384 11.529319724347998
Ni 9.989657715033092 12.566178709415434 13.662863229994965
Ni 11.321798662355324 13.51132818423186 12.033737340768681
Ni 9.57930269387018 14.082295616145856 10.530687276095964
Ni 8.06520580737064 13.182265375733017 12.214497864921636
Ni 9.582833731905806 14.809339733060133 12.803986576944899
