42
Energy = -184.39261928 eV
Ni 7.479724018554156 11.915273492271034 13.692929939640614
Ni 8.966359436741136 10.301879311287667 14.592268174586463
Ni 8.156931684561957 13.465513078391941 12.027533202977793
Ni 6.550525856299105 11.715761394832631 11.528882655768982
Ni 9.718218767199504 11.87957802029627 12.984160169500766
Ni 11.205025369617847 10.187236675252459 13.844024309004192
Ni 8.007347619307641 9.980427358908234 12.450826304089874
Ni 9.60873279698337 8.404878385679968 13.319725699484906
Ni 7.3343397649694335 13.253470984413385 9.823344227342739
Ni 5.850899248693283 11.471253436490787 9.279725412459365
Ni 11.969900353505603 11.701055557916058 12.138891964733446
Ni 10.408691803491301 13.368559384420838 11.221398847601039
Ni 8.77591235301417 11.605852165389205 10.724368608901337
Ni 11.880035489506934 7.915837459154763 13.76577992682716
Ni 7.179073161628624 9.770809542427711 10.203652169190788
Ni 10.360872031564396 9.914735643398707 11.639639549110493
Ni 8.753735533788017 8.145693244452037 11.081995100693362
Ni 9.574485693834355 13.102207499905594 8.950158440148126
Ni 11.148513769708638 14.755512641875002 9.468514345124223
Ni 7.997753183660732 11.39534214684262 8.38922287920037
Ni 12.7475414099603 9.422676421297032 12.157568212603675
Ni 13.305007785122404 7.132087016641374 12.036723492679984
Ni 9.507227499667554 9.686189942393643 9.355562545206029
Ni 11.034614203170019 7.541357871411727 11.57895373056541
Ni 13.482135577719264 10.904349320836966 10.416879917281198
Ni 11.879374588237416 9.083765444665483 9.849785252204452
Ni 12.657107156898453 13.18664250750287 10.374841305813018
Ni 7.972808199242472 7.947896539055463 8.811051359997094
Ni 6.4959501709096505 9.605999860519885 7.941897426892258
Ni 11.11971209465815 11.432375803133938 9.8784072389356
Ni 8.70068556485152 9.464539169503349 7.099295927546291
Ni 10.250533853022157 7.336544234143305 9.30274733556863
Ni 11.833667354148515 12.928439530691245 8.13766735678929
Ni 10.264967360849626 11.212949345008564 7.5717668372828255
Ni 14.135656843709874 8.554181924699709 10.343582075186488
Ni 14.73954456339085 10.05900825439881 8.621567789059053
Ni 12.527343276812122 6.8150874423606105 9.817111700175644
Ni 10.98698679347702 8.888021836395282 7.566301624237714
Ni 9.426278534843718 7.214433232452914 7.104152864318989
Ni 13.247652502527531 8.271449911449675 8.101891626288353
Ni 14.070682805249504 12.355891415385816 8.640905648478745
Ni 12.562168068299869 10.61830961395003 8.03782487203818
