45
Energy = -198.35890269 eV
Ni 9.80699998407445 6.910312312060604 5.97881019714628
Ni 11.285942523778582 5.348271663337825 7.134955693991261
Ni 11.569119136655893 12.301288884187626 7.924821284128398
Ni 11.903086909770039 8.591960282022027 9.245274270357156
Ni 11.108872459836356 9.888915547863107 11.11005437855177
Ni 10.899731224792339 7.307472350363236 11.090955033040691
Ni 6.166458226831989 12.896634743368988 11.302286915397167
Ni 11.812861677336894 5.310877399513874 9.78735004955909
Ni 9.03971067175221 9.250375166146142 12.170693262489133
Ni 6.678367880307659 9.534213129211553 6.344102126157207
Ni 8.521176588606776 13.035674863230296 10.828993946112082
Ni 12.69997207761385 10.913955134804795 9.539298432003061
Ni 6.972973913278199 11.810584825809256 7.084448097796031
Ni 10.791112084812331 12.322220051949033 10.272194631955855
Ni 12.051175049754754 7.665775582139073 6.470474513829017
Ni 9.940667357010868 5.137418811945104 11.178698436418204
Ni 9.772285271536104 11.569380130848634 12.334375952420322
Ni 6.5983389559757715 5.7739537913461385 8.021953376264374
Ni 12.910752008001161 6.730871783494789 8.374439202958259
Ni 9.999538357352813 4.180144010729313 8.892856264355597
Ni 5.829442387942208 7.9807049355687 7.902779355928485
Ni 8.86628490109482 10.788886433750152 10.378742000478303
Ni 9.37031924333031 8.546942176600098 9.848043713875542
Ni 8.427910169345974 5.758229034717256 9.593034307447372
Ni 8.16949606150727 7.663546377595466 8.029840314114708
Ni 7.3084921651729 7.0928520422387455 6.038278521498297
Ni 12.254479179145024 10.017072729698704 7.278549969984641
Ni 7.380870743201176 11.040856854058456 12.099408799042477
Ni 10.263370486514647 8.718187597671317 7.368515519863727
Ni 6.6975135156370715 8.655672448064088 11.890149601527582
Ni 8.120353904582755 11.168995191464985 5.197650822796444
Ni 5.482766629749561 10.337746726374535 8.346479440663005
Ni 8.500107991851282 7.047244237767754 11.578547874934426
Ni 9.112904206134557 12.401578784242002 8.436241057573316
Ni 10.418320465191783 6.724676125013772 8.683627731218834
Ni 10.032467123202474 11.046091855245672 6.527406769548385
Ni 8.811455016968036 9.004018226216868 5.60506949771611
Ni 5.4163525327467825 10.69224864090221 10.856284496891696
Ni 10.529924796552592 10.48732375576377 8.82800384417195
Ni 8.763115681510946 5.345934248849153 7.254443474139193
Ni 8.310235403273833 10.143810980665027 7.932895918071542
Ni 4.815510151656862 8.623263504193586 10.005460616928346
Ni 6.974146140728415 11.865771486874042 9.42431889809579
Ni 6.58710601517339 7.055283619106849 10.080841919242594
Ni 7.041907344050039 9.326756138329001 9.742344084658349
