49
Energy = -217.32305155 eV
Ni 13.870826444448012 7.169258778730724 8.64267728004811
Ni 10.85085726562784 6.085246970769357 5.834079748156134
Ni 7.320756190921173 10.790099982234691 6.056613167544725
Ni 11.380187664418923 9.684638959913295 10.5220825376643
Ni 11.562263299263018 10.417858030963357 6.4187799716747
Ni 6.097468393406897 6.740310943015358 10.078689834910314
Ni 8.26895527049874 12.284815357759358 11.834456173362616
Ni 6.910150049459115 9.71801766781781 8.418307540917665
Ni 13.228588404236973 8.161270096784843 10.826884856846279
Ni 8.945530813957129 8.011368112870175 12.489585958489261
Ni 7.763717346757265 7.5257389032472535 8.528237764312642
Ni 7.070718478951559 9.844026412229322 12.583262007461002
Ni 12.956804513191164 9.553961536048046 8.60596960617444
Ni 11.042039819308064 7.198420493599222 11.565142721681127
Ni 5.995938041482821 6.2719508219764695 7.729141603576408
Ni 7.480649459071208 8.656785828154966 10.588076392791262
Ni 9.705419645646591 4.804377856425148 7.462939879066972
Ni 5.074082159834096 8.39190681853191 8.649941186530262
Ni 10.504422145271228 11.909100972419287 10.976729143853687
Ni 5.28068510950082 9.084620520080648 10.988282008841876
Ni 10.337478413526165 8.34216854354222 5.540718660665145
Ni 6.978061854320993 12.002480832502883 8.084824615104507
Ni 7.890241796362989 5.281962991125395 8.856567830881923
Ni 6.364946204624003 8.245928096938304 6.528912730709248
Ni 11.19721684867737 11.453541108242424 8.770216278137847
Ni 8.209812592527033 6.608637831160279 6.2921216633264185
Ni 11.743995743939948 7.556761344012613 9.258653751532158
Ni 8.334096247384464 6.3374150807499126 10.95020745696622
Ni 9.621854007968164 8.105857410646712 9.987401915657802
Ni 10.718460183313066 9.264482010470472 8.08243619949078
Ni 10.238943304360228 5.658195641697817 9.698017603578691
Ni 5.03824110362948 10.881348191364404 9.376087133331012
Ni 9.500803956699441 10.465557453945179 5.156870325450191
Ni 11.975094797391781 5.641798655934254 7.907176782455644
Ni 8.680880831082952 9.122818812147841 6.992316676730404
Ni 9.08946008049243 10.32174281131996 9.28850240322295
Ni 9.263952438085576 10.112467349399564 11.642253564431156
Ni 12.647464854004728 5.784073339478685 10.305325758783347
Ni 7.147546046872381 10.961243026273888 10.401774730284266
Ni 5.803436779886735 9.615059348224461 4.779847830545593
Ni 7.985450780286593 8.611069677983874 4.813004805571393
Ni 9.308004081084407 11.550564855804307 7.256377812340626
Ni 9.969684306526048 7.079762808607133 7.719269452764755
Ni 8.827758476644567 12.638084581273764 9.45562094141147
Ni 12.271410000690274 7.881651065834214 6.890871483069236
Ni 6.456969319753367 13.063976256482784 10.18714488124621
Ni 6.60495749830338 7.453210003636148 12.324378222005938
Ni 5.177478313288736 10.343678068505913 7.014796980975102
Ni 5.4279174625776285 11.432366578681 11.760100964982625
