40
Energy = -175.51102762 eV
Ni 13.45029515440958 9.17584278012661 10.316110017313838
Ni 9.620800728906985 10.396806481930016 6.1702239548504005
Ni 11.29738318729783 9.872178456183715 9.628991594675874
Ni 7.722935874492853 11.089733452867621 11.225935026063837
Ni 7.53567546147352 8.725104966536215 11.361503704216949
Ni 10.406871717157443 6.345060840170827 10.64306220729086
Ni 9.927510878175624 11.944485292475887 10.12430637014773
Ni 11.77206960395808 11.183238421807951 11.663113200402284
Ni 13.978093747505191 12.99628759452265 13.001130510186464
Ni 9.285006385947284 14.086453796138457 9.124496661953218
Ni 12.842724184907496 13.13526039846635 10.938686119080478
Ni 9.592707163488921 6.719015114577136 8.249091061898177
Ni 7.1480669546192415 9.84137104510099 9.239615861503326
Ni 7.712099458304485 12.192534264452913 9.104728683153537
Ni 9.736243635865407 9.924263953098261 11.390070442771759
Ni 14.093895512402238 11.098755191742706 11.615147340042629
Ni 10.609130394623735 13.902136791216899 11.13001433033123
Ni 8.13573325942375 6.414899143057291 11.008861471916989
Ni 7.506095917110767 10.951207426675632 7.086550754587301
Ni 13.010213853519055 9.304572450451458 8.004734728063838
Ni 10.675089949992161 8.726708065236895 7.504481180541201
Ni 8.28836267859797 8.622151621504473 7.328835308032828
Ni 9.582359424994399 12.095957022868452 12.535515262598626
Ni 11.790612901344636 7.526367575568521 9.154419908107103
Ni 9.346236634196107 8.294753554441193 9.819170499271214
Ni 9.506634564630676 12.455951141170821 7.472487291902289
Ni 9.26877912593181 10.367909474412912 8.523703458499089
Ni 7.260016966943526 7.480793968014068 9.14391386816031
Ni 9.457014227071648 7.79331160162855 12.43854229711383
Ni 10.528296152996187 11.445625057599761 14.503264870521814
Ni 12.809195650239092 11.131665328809092 13.794801908069592
Ni 11.49094196479884 13.162782982513933 8.952530210894995
Ni 11.451975574316586 11.104496417120412 7.602889107730719
Ni 11.568052505349733 8.227639131054117 11.426803280939112
Ni 8.232329869794746 13.412653550292047 11.11967999488339
Ni 13.090326228900846 11.361604433382851 9.369446731939147
Ni 8.613958077646046 9.992264384758283 13.365132695605443
Ni 13.27332875991108 9.136250284265833 12.685138973146897
Ni 11.64698259757828 13.103162867703068 13.120220762928623
Ni 10.99537410210757 9.518164706986395 13.37206937959354
