40
Energy = -175.02927631 eV
Ni 12.329803765659042 10.662732798987907 13.731510695507751
Ni 13.915131532442159 9.652703407673144 10.08298825577548
Ni 13.553593317059201 11.255628540878249 11.754589717991184
Ni 12.830956342251726 13.444166229389593 11.15068204554467
Ni 13.015727686770944 12.901585970442694 13.44882379658198
Ni 13.22848413927643 11.87851066155443 9.3995116413579
Ni 12.448059615383448 9.856502881334182 8.240075505147772
Ni 12.116862542688459 8.081776758596474 9.886831487622459
Ni 12.725579426935946 8.985778151844782 12.080638725349983
Ni 10.631909807921465 8.295396054307178 8.01994918041288
Ni 10.534727599875115 14.239176027607636 11.551438044323083
Ni 10.036679114202958 11.4544688617616 14.137935023384848
Ni 11.64322646856177 10.392536992282547 10.452459363334068
Ni 11.215075854974758 12.058848220910034 12.175290205757596
Ni 11.007456087605087 12.714664539778463 9.757761720294289
Ni 11.716308538967247 12.07007766547626 7.548902731304356
Ni 10.797863968940824 13.67445213545229 13.836853183146083
Ni 10.855278421064796 10.1140590139136 6.4280962315773476
Ni 10.890197903241903 7.449479586239584 11.896871551546166
Ni 10.468056813628483 9.703294136625708 12.564943142373842
Ni 9.36164319453161 11.18355729181777 10.857460302360302
Ni 8.225566420293376 10.548000729490356 12.877900567300316
Ni 10.076380231736984 10.628361003347788 8.575439866823352
Ni 10.28654169746391 6.560317489267169 9.724162362645975
Ni 8.8809325791127 12.873154344276443 12.588781625046737
Ni 10.164836072494639 12.276459493696214 5.808486375009389
Ni 9.754741607239108 8.828764833496923 10.282547377270316
Ni 8.592372718560075 8.249270137767715 12.304805136586575
Ni 8.75530772712642 13.426546020934541 10.191899733151077
Ni 9.422622253699943 12.867265482057382 7.954163358581974
Ni 8.992679287968034 8.631249642544466 6.364105983837727
Ni 9.01713765090438 6.027545289338108 11.637472554639054
Ni 7.127661519693667 12.007892653733881 11.29144261739757
Ni 8.69499609567954 6.935975215891738 7.992614143246415
Ni 7.7625346076888295 11.48577098935838 9.071167542541275
Ni 8.534609859079634 10.920148962834906 6.836352064882106
Ni 8.364989956257048 5.212322606952569 9.543498301632802
Ni 8.095624756230379 9.178177658144888 8.469272943169377
Ni 7.445961425197163 9.705191322902174 10.714402117474458
Ni 7.819087802465662 7.417997948574478 10.161463041239166
