48
Energy = -214.01507061 eV
Ni 10.489706257292871 5.71914422378205 10.529035017924048
Ni 12.135876532779694 7.2381845781203555 9.440031331490212
Ni 10.514403023579577 6.2231908605337125 8.095284251076674
Ni 12.556916236034755 6.568460195097468 11.74015803554222
Ni 11.466630432946182 8.314359308901869 7.361785377230759
Ni 10.505859617197268 6.320224399595652 12.963798445956021
Ni 8.498203415822632 6.8612704399797195 11.706143101967514
Ni 9.069587566762634 7.362266047980133 9.465598918172464
Ni 10.720284380025696 7.853986703139916 11.289250222135568
Ni 12.908570707600685 8.868705335864457 11.066853808761897
Ni 13.323188298353923 9.231325865764969 8.756283862279957
Ni 9.066915715391703 7.951141586661426 7.2419844925775365
Ni 9.451813145466188 8.508130379426753 13.288707839788483
Ni 10.696481773832236 9.218855747938212 9.331153233683464
Ni 11.866700075470336 8.4673752507677 13.248920353399088
Ni 13.952720468243617 11.600764168731882 8.47157364136724
Ni 11.967404330260711 10.703790385347581 7.505690654972221
Ni 10.830220340038988 10.219077930356129 11.713109967980646
Ni 10.688283100324506 10.561642674072429 13.959594223937117
Ni 7.453780026877428 9.685107285435418 6.695033943688369
Ni 7.081907147911714 8.62993552942547 12.478657246925982
Ni 6.909567938830264 8.24880443536706 10.098882702247455
Ni 8.826001056445072 9.188245368781791 11.04713731318497
Ni 9.803628030941718 10.104468735504458 6.886948176465841
Ni 12.22634092801001 10.96342640477822 9.9392268250941
Ni 12.886150029320621 10.57767200994136 12.790778589614849
Ni 9.048400325349448 11.540924853203569 10.925467688435841
Ni 10.126225190076093 11.51204244665953 8.88365994189941
Ni 8.34782088554796 10.577813819734983 13.008873342841339
Ni 8.34423814689289 9.722399925522629 8.821518595480107
Ni 10.393204449425502 12.410741536893113 6.689499187628688
Ni 6.846254786894328 10.544765839418714 10.912644009295676
Ni 14.332868190261442 10.786716948998121 10.766058912960014
Ni 6.33525330607791 10.759553214450353 8.585137878842927
Ni 14.119715801007928 12.5031177251046 12.443364821311944
Ni 8.185467814912668 11.838040730450873 7.46360077597761
Ni 11.22799975250498 12.618136627390449 11.290127310612368
Ni 9.567790753125138 12.557822292810407 13.057241255518203
Ni 11.905725546824415 12.994864432585702 8.449847873733251
Ni 9.051071800944246 13.90266436463911 10.925388803508666
Ni 13.39633471340643 13.040093884146659 10.27176411923815
Ni 7.341546228987499 12.616469294915765 12.049924150224987
Ni 9.512063605436554 13.678221564953562 8.598059651970395
Ni 11.9171159148787 12.65293699602181 13.478274705819384
Ni 7.505314584226193 12.600940596554471 9.597777827577998
Ni 12.832870607824256 14.412431892027694 12.04576086563947
Ni 10.607372603453818 14.605209138911526 12.546578726404803
Ni 11.254838430341636 14.577898302270585 10.127761319378102
