42
Energy = -184.55872519 eV
Ni 9.15820357059364 10.569544372368274 7.91538114870749
Ni 11.233355342513068 11.68204760000582 7.939591090464911
Ni 11.556613413169387 13.96931654586689 8.448259384145546
Ni 13.496784880019513 12.202404415887916 8.294416919212276
Ni 9.278332781055447 12.916304786797971 8.60978701670977
Ni 14.736223264438937 10.304165285668583 9.292091396233063
Ni 7.694791964314709 11.229137718521859 9.52004304616735
Ni 11.003642780535051 9.333533994448084 8.428344355506455
Ni 13.153743892449024 8.449669575749017 9.091629287765011
Ni 12.118975985331893 15.485269954338651 10.376509685820805
Ni 11.965226201436916 12.985191221242204 10.50074769245771
Ni 14.271774811026024 12.193186644170385 10.62827429770608
Ni 13.775124599883037 14.179726148322299 9.45046798489756
Ni 10.071325631439548 14.395099990413868 10.305241603312965
Ni 12.460577998666778 10.726264337278348 9.742842867131667
Ni 8.212982725042139 11.01293782864503 11.753127360244228
Ni 13.777009757581775 9.267302708843713 11.21880649379498
Ni 9.012216886548506 9.19734616369575 10.347679719573492
Ni 10.1151997816345 11.279193367939733 10.053614111025201
Ni 10.390219300208996 10.113221934825587 12.25464241370418
Ni 15.572669561368247 10.616095649419714 11.678789593278927
Ni 13.523028249953187 14.15611093765136 11.85122947462023
Ni 8.3174712012915 8.962482564117943 12.805854118560168
Ni 11.374572738145899 8.776971414537453 10.584137067202574
Ni 10.148510208809808 7.685845126605583 12.182492558332791
Ni 12.515501694454906 11.29939534895173 12.246306893961737
Ni 10.2029485022903 12.525320421470388 12.1435748255862
Ni 14.535830253586244 12.313390860576053 13.01753936789446
Ni 8.944962823901385 14.755369794315383 12.395191880274645
Ni 8.966506296047788 11.020927928598654 14.01362806847946
Ni 11.246375339342901 14.683123590476587 12.43290434386403
Ni 8.174626248139283 13.159461716998141 10.782291281445021
Ni 14.124276830103549 9.973499185006535 13.474730198801671
Ni 12.782522349145392 7.141229510566053 11.224477239064074
Ni 10.229502536489502 8.963898819874045 14.29887635054001
Ni 7.878173483685399 12.868658157375254 13.154292225789174
Ni 12.408478921055234 13.187623423865544 13.735878578412326
Ni 13.486879079760028 11.589321492812308 15.052004498066404
Ni 12.21542374003151 8.635844061262729 12.942952339650901
Ni 10.010315883207253 13.379778948314556 14.240231830765214
Ni 12.465872264459925 9.435705367287088 15.092010048332394
Ni 11.249051156412587 11.234906014456183 14.334934272067033
