42
Energy = -184.21720436 eV
Ni 14.218023638267567 14.307457482710719 9.297777410518911
Ni 12.20719669021271 13.439258759665432 8.408058499303328
Ni 13.034216530308209 9.659848146265459 9.516957911930497
Ni 11.480506079384329 11.485660394500934 9.552544151481486
Ni 13.85605811967929 11.857751138813978 9.162413846215676
Ni 12.030511975918072 15.36175404933537 9.834263999811073
Ni 9.143776900233137 11.538208014343011 10.780179483795434
Ni 9.984030731055112 15.74345163044863 10.942701691478655
Ni 14.04651115573068 16.312730785800717 10.575404434987309
Ni 15.111614393976893 12.73082291164785 10.94387249720867
Ni 11.039469790252536 9.700932838984869 11.021081736500975
Ni 15.17000415130363 10.136862919036387 10.98597470432375
Ni 13.147056254687898 8.6424196058494 11.576345855323208
Ni 12.699922062874487 13.364417757809433 10.79634916394546
Ni 10.40214883429324 13.537959993192858 10.004893234965545
Ni 11.017464743017447 14.267728706827493 12.346040947088184
Ni 13.227498250219705 11.107799172311914 11.377584075487764
Ni 11.06432317343046 11.919796469488341 11.90675513221144
Ni 8.444497476108374 13.924281693168014 11.1174937977083
Ni 9.125572658997958 12.777971163891777 13.001308687367297
Ni 16.26710050067398 13.705615047244214 12.755939453141382
Ni 9.024972640799595 15.167172525724771 13.08164983506415
Ni 12.240002941830703 16.233079323717867 12.071805024751708
Ni 13.235827663653044 7.386751688324774 13.52670876293768
Ni 15.148746684206703 11.638743731083256 12.983974412885903
Ni 15.944070687711736 14.957449131670545 10.776504119512042
Ni 9.641859392708763 10.290953055746108 12.863787708061539
Ni 12.191949685561363 10.231139138941028 13.3191959117848
Ni 12.856188962500992 12.721931457413678 13.168229268952995
Ni 11.126833989468288 8.237333801771689 12.93216926099978
Ni 14.155337773007817 14.68833970331718 12.284573649414456
Ni 14.469225528992062 9.465696759639847 13.299978261348164
Ni 10.759365753320715 11.774170230022994 14.440569701606238
Ni 10.425445384125137 14.077326681245781 14.678242124109733
Ni 14.599493861042495 13.51025481180548 14.454622326218388
Ni 11.904440850619983 10.86704679095564 16.27382643618005
Ni 12.954656573446877 9.032318147163746 15.145704955589862
Ni 12.47932064747923 13.127694729643533 15.604500809969576
Ni 12.596960241137529 14.93132209657399 14.061474573551516
Ni 10.382224199165547 12.686288694509656 16.5639346339889
Ni 13.802444895176652 11.248557511403115 14.897624045694332
Ni 10.586648734263736 9.447222508833871 14.910504663428334
