49
Energy = -217.29151624 eV
Ni 6.867174659973625 9.37210357360372 12.61822424654767
Ni 8.618900386040798 7.947370170392609 12.08115664490572
Ni 8.512280014551719 9.119681351202356 14.318529684456955
Ni 6.6795589827659665 11.118879102231231 10.990359123725462
Ni 7.107666064540605 8.802268957712814 10.32333090396939
Ni 8.596168552457339 7.015054268100071 9.885376523178886
Ni 7.605239017145488 8.262390275459815 7.998980369581723
Ni 7.594652656785802 10.588562381709181 8.825981783656479
Ni 10.524426696063138 7.609710016764404 13.506659981457553
Ni 8.04874051638637 11.320868548961133 13.09574955295989
Ni 7.826509688963985 12.798710869342207 9.631541686152085
Ni 10.16190452643729 9.866952040101582 13.037138362280004
Ni 10.818786409086934 9.352402833590716 15.189309719255991
Ni 10.788022448806807 8.644013588230049 11.08892885341624
Ni 7.175541162087227 13.21654752218534 11.930881415790994
Ni 9.82583988539766 11.468600668054261 14.679323597220412
Ni 8.821805846830898 10.229222471243865 11.095689943904603
Ni 12.454244501045983 7.252439702906895 12.09127479861564
Ni 9.52459046427981 9.066657145182422 9.029555048198773
Ni 8.883694567386994 6.302303720940867 7.68871959782752
Ni 10.756494573935257 7.063449003145965 8.90968665146155
Ni 10.360250220330986 6.41876936269976 11.341906164172341
Ni 8.475142160345845 10.085744205554183 6.741006367313183
Ni 8.837477474166256 13.434876443566719 13.643329925834378
Ni 11.05550598172318 12.829890670899795 13.157631058118165
Ni 9.846274651292452 11.446877952111278 9.353402263090489
Ni 9.942226168166941 8.20664705429787 6.896240065895483
Ni 12.732549146123809 7.73955478882057 9.892880566784223
Ni 12.672056042916845 8.614973162307878 13.894529282107454
Ni 11.122945198801522 11.149702902278332 11.378476922638383
Ni 8.929961902323564 12.318695380738811 7.460983382062285
Ni 12.1587587784708 10.83511824768122 13.69114123602989
Ni 11.557466893094066 13.922747656102201 11.148180016737017
Ni 11.863532110909512 9.942241012382452 9.428551242723778
Ni 10.702442234307515 10.489537063838071 7.274935230459209
Ni 13.05933521822994 9.66743773185881 11.622624956388954
Ni 12.199982166414243 8.577692310431974 7.604451694417341
Ni 9.99980631547495 13.791205986282039 9.242885189646293
Ni 9.404179120658883 12.82053536686958 11.416300975427568
Ni 12.046377687585709 12.355446077120737 9.515184723420163
Ni 13.105809857071021 12.190617215344393 11.97310089129552
Ni 14.141130567365588 9.259069392404614 8.905876302647926
Ni 11.321671605522015 12.819474628039782 7.389550986487424
Ni 13.000817894539539 10.95663208616825 7.649949225254687
Ni 14.041606435755467 11.303669029991724 9.947674140124192
Ni 12.169789876359408 14.658896340704972 8.876846193190204
Ni 13.872702020828466 13.723121857743353 10.3359127006966
Ni 13.759365721666992 13.109930525847494 8.012099786873318
Ni 14.398841507370255 15.219970895017898 8.66231625732964
