44
Energy = -193.84811707 eV
Ni 6.1380817979049525 9.672217033165795 9.50113631927317
Ni 6.186538683758023 11.848663662028704 10.606588810844846
Ni 6.319938665216409 7.660752248880633 11.017398281818968
Ni 6.690840877856734 7.499582256563768 8.63230027443945
Ni 7.487358618534357 11.620207926076812 8.619046502308164
Ni 5.829343655668568 9.859273390407802 11.832860190256866
Ni 8.05145839734677 9.37946265491696 8.155787457159834
Ni 9.173318356034583 11.08632391077714 6.912596072976198
Ni 9.006617217058556 8.61221764642106 6.271790196176346
Ni 7.836509821695419 5.890945158744932 9.936098749692327
Ni 8.306155664476956 6.666613255628412 12.077643945932717
Ni 7.472270093915321 11.458119741065879 12.659084296016347
Ni 8.39180278615813 8.129706737116335 10.178023608487985
Ni 8.442327752752147 12.69834389037025 10.560129458063953
Ni 10.851352777210138 7.2330346175267515 6.617711969923826
Ni 8.038980680943217 10.383191880113399 10.718931295408003
Ni 9.440539861756251 13.109109698194628 8.318024082325037
Ni 7.824339579634912 8.900980089081514 12.578184344772632
Ni 8.950148252712616 6.826620509477282 8.057113909547859
Ni 10.340575965966597 8.544809141427741 8.632328741447628
Ni 9.759672981524632 10.994008752405424 9.168501032943835
Ni 11.075801264061324 9.624692187548005 6.616190700916433
Ni 9.586384362279786 10.40383909204658 12.869919165003218
Ni 10.275364449647606 6.8851173781570845 10.661419360099613
Ni 11.406643429482132 6.412544615919858 8.735566012780275
Ni 11.433861218227088 11.888294430136938 7.103456743334473
Ni 10.346790970826689 9.393751092704349 10.844777888354063
Ni 11.959269329191349 10.275970772343507 8.90970391830107
Ni 9.469838825077613 12.79783590835421 12.698960773940941
Ni 10.101277517039254 8.057891298880849 12.743721003277125
Ni 11.559124603743454 12.678578895858537 9.218399021234438
Ni 11.108072386929747 11.657457916517952 11.38118550555258
Ni 13.309499656520934 10.351016873152977 6.9586918476459845
Ni 12.658401098332666 8.187358924822124 7.827007646113547
Ni 11.195792083562695 11.609767480257462 13.964410099923478
Ni 10.430975194948932 13.908911404309768 10.76336202666547
Ni 11.9105231896907 9.660443177065533 12.57671355659868
Ni 12.342459095936126 8.276390004925869 10.277146559097627
Ni 13.297251571726514 10.54377290323108 10.832573160215857
Ni 13.707243733468083 11.879855936976268 8.784158949421466
Ni 11.716173171865275 13.570091240558435 12.752805362924532
Ni 14.215947266581246 9.477725448265778 8.993092860966446
Ni 13.120419424871823 13.007190661998235 10.864419863064468
Ni 13.193482986001662 11.71226532776994 12.82142982567973
