44
Energy = -194.47211768 eV
Ni 5.714393010427749 10.317269935394558 10.572582012602002
Ni 6.663265820550813 8.761656825124236 8.999535131262581
Ni 6.958469174115425 12.421701370789032 10.55325338942376
Ni 7.29130754350983 10.752956227438354 12.237110404862564
Ni 8.626179316056135 12.77375677966254 12.299202444561544
Ni 7.072482850613938 8.514088233054663 11.331492519910498
Ni 8.748706420036084 11.062416400321117 14.009126205445677
Ni 8.742300377323891 8.979186505341161 12.98191832943954
Ni 8.592186111951591 6.8279178420767765 12.039473054219805
Ni 10.840360590848528 9.90635976665301 13.693959990388239
Ni 6.375407528257105 11.160236971421613 8.4665357500574
Ni 10.748408818942014 7.764741892593849 12.618464180993358
Ni 8.124977975993216 7.005678797499839 9.687723374678082
Ni 12.882308473013529 8.902706447091795 12.889269721234767
Ni 8.062816826611794 10.438320599525568 9.926741401287627
Ni 7.522395304475907 13.189749568133736 8.37770397979236
Ni 9.265627027482982 12.64294870552226 9.887618026673616
Ni 10.889804730812436 13.121766028288313 11.602774542638025
Ni 9.858261178749812 10.880683546829275 11.710879544249197
Ni 7.127265620073316 9.610899986349754 6.862598979419211
Ni 10.639050180515914 12.343047126899124 13.741394589839183
Ni 9.441809471677065 8.668978103447442 10.65527936546149
Ni 12.308959629456067 11.257757332721665 12.457381652718013
Ni 8.678368661684171 11.21255131931519 7.618175446377011
Ni 8.950798823572743 8.721517893763192 8.087358000830275
Ni 10.401929345758912 6.436737356068385 10.56793417061161
Ni 11.228097933465698 13.821111218855 9.396535073710764
Ni 10.417425679743815 10.549429347835106 9.286338457232873
Ni 11.725434709984848 9.36751440148535 10.994355929580298
Ni 12.259867435439137 11.848218960109367 10.183660987873596
Ni 9.722556414632773 13.366852829258638 7.610432031855989
Ni 13.866001644738523 10.205972794093467 10.933297776943116
Ni 9.209073884857665 9.520951586693911 5.834007082300697
Ni 9.879952056365015 6.380421784862814 8.26902135398747
Ni 11.155160527700735 8.233307866646964 8.945733836345433
Ni 11.625923850148896 12.039295574194957 7.881565190304971
Ni 12.803807292369047 10.102949419257792 8.723328644966916
Ni 10.214461512336367 11.71735316434278 5.956933754013473
Ni 12.540821267951284 7.08958305725117 11.276412694230036
Ni 10.618018308026029 7.678152068130287 6.531021149033403
Ni 13.650660106022393 8.165011209865071 9.617579080067726
Ni 11.154059883965116 9.88522053451553 7.053505394138118
Ni 12.252745256830412 6.243568791807571 9.018459857114733
Ni 12.824068465048793 8.081448675186186 7.374504302035668
