41
Energy = -177.26619069 eV
Ni 14.42681695719791 8.278838456480539 9.482094944380073
Ni 13.789145326115468 10.400349715325651 10.15260701328704
Ni 13.892589727216388 10.461644657051764 12.616070374157312
Ni 14.463248083055358 8.571253851654578 13.820554333489397
Ni 13.608069088714858 8.270267227356564 11.703276635384498
Ni 13.016190134263432 9.634593466414454 8.099795967517917
Ni 11.49003838681751 10.90334707012728 6.8589659090961295
Ni 12.874900925913915 12.35579343051176 8.784207731162613
Ni 10.954397240924468 13.3036634569566 10.061172928549777
Ni 11.32076236635623 10.86738876802729 9.268354633023229
Ni 12.13668270078096 8.153300551230522 9.824368172906878
Ni 10.533537511886637 12.771417002214344 7.878609266623269
Ni 12.207048803724234 8.90972176327587 13.663353417789141
Ni 11.914980597379099 9.882848151968712 11.459365590359072
Ni 11.770658835524864 11.286728549737916 13.401988128864815
Ni 10.716821216785718 8.851275410715333 8.080108321476422
Ni 12.700447556260203 12.13924962301491 11.255341125954436
Ni 11.01255906355192 7.662104874056027 11.893799430030073
Ni 9.826655471365939 9.43016986203841 10.379220110821906
Ni 9.209736678048758 10.4858011695061 7.343101246265385
Ni 9.675238211354444 12.256497478284489 5.817532113023657
Ni 8.136243037145517 10.927004306447065 11.85163197616661
Ni 10.911783989907557 7.741358486537665 15.122756264970839
Ni 10.489996323748201 10.014666803721724 14.990684944082568
Ni 8.824804045750588 13.909568129485878 9.175722847101444
Ni 6.912437027387941 10.486245077583703 7.933327935334546
Ni 9.241504046657854 6.140978828358425 11.697915785394759
Ni 10.369057405554392 11.646510006937584 11.530512799838233
Ni 9.039298533526122 14.375583275547374 6.862932879592514
Ni 8.378423596183834 8.690645366010845 8.663838762205106
Ni 8.979498649713195 11.497438100686182 9.51464498034442
Ni 9.319423878415433 7.4947154077444385 13.551830315803523
Ni 9.915879623186752 7.221239298471506 9.72782437553521
Ni 7.1038413882417215 9.948880410061115 10.130050067243475
Ni 8.661735696104822 13.174998826685338 11.352896876936855
Ni 9.442933041824363 11.791251382355533 13.67935203185196
Ni 7.938167816775079 12.465705726474747 7.4160546496417625
Ni 9.869960081644631 9.611272369020476 12.837879056723096
Ni 6.889362933348571 12.398655811161365 9.640494560056752
Ni 6.898401510067862 14.39430279608492 8.083533765907823
Ni 8.216267008185287 8.272269571283495 11.471772247713663
