41
Energy = -178.67053988 eV
Ni 14.140327249597375 9.046809494948603 10.969320109262348
Ni 12.644512657538092 9.86816459594755 12.596720471628322
Ni 14.45732229537852 11.226975728474681 11.982250013942554
Ni 13.2015108922877 11.600222568022069 14.03635446697698
Ni 11.037470579850138 10.552589187140633 14.201126618314573
Ni 13.172583943714113 7.0142505756975995 9.978145409261227
Ni 11.75647373115153 8.659423358493985 10.725725031387089
Ni 10.531136918132741 8.741028443687126 12.777958013655363
Ni 15.053891400685881 10.75396280432412 9.688734481993487
Ni 14.570299313798982 8.603958821592942 8.735737778441454
Ni 10.93672903464697 6.672153759163513 9.109929263560929
Ni 11.167097559379815 12.883724674110223 13.992113465366472
Ni 8.846044209158038 9.481844500516509 14.13565672099592
Ni 12.806205712849982 10.937840211473006 10.306009848025768
Ni 10.270971175670908 6.902794220932946 11.271475846658106
Ni 10.636474959081156 10.891802140698474 11.649209143045715
Ni 12.347899104547029 12.47950663561186 12.040064697526637
Ni 8.363377421071936 7.847305322894066 12.324636753621473
Ni 12.291126931463918 8.430109815190578 8.379893995080383
Ni 9.1546893550668 11.733668051420166 13.457772461819378
Ni 7.968690342874246 10.234864034367096 12.110289615785419
Ni 13.324384298048574 10.534750565044725 8.070535744294299
Ni 10.846513202780592 10.35922374669099 9.092465066435244
Ni 9.394892332960323 9.102425637850326 10.58375063601068
Ni 8.578900921565271 7.242053115468594 9.562650634064138
Ni 10.04441542830079 13.275453832940581 11.92792837918597
Ni 6.898004588456965 8.64035909538437 10.66791461631426
Ni 9.897049331017005 8.502324881208533 8.006039869143173
Ni 7.710724243281671 12.60902338042227 11.810411828563618
Ni 11.453006514787356 9.83316495105811 6.7147867052119325
Ni 11.08517453509129 12.641269685179582 9.87078402365717
Ni 8.925201018675907 11.535202495902277 10.06619516530542
Ni 6.617566344704929 10.967884893482488 10.316106375151737
Ni 11.559015248117333 12.02230095604328 7.546429028141005
Ni 9.38133490299962 10.810442712076867 7.327000181680795
Ni 7.918063306656731 9.608514256815521 8.776677295792402
Ni 8.799302003892416 13.903804193735171 10.071554761742961
Ni 6.532910083169135 13.319476644297536 9.907575631054353
Ni 9.563443601473793 13.080468571921706 8.011595292140273
Ni 7.473530665135116 11.937586482726475 8.25790617191681
Ni 7.603065352632655 14.303433241350165 8.07136087271667
