49
Energy = -215.48278724 eV
Ni 12.164209375568475 12.17269918509747 8.164659657611189
Ni 9.844412431254435 12.074791920202312 8.459638605540011
Ni 13.380789492731841 10.270781932995071 9.173240559043501
Ni 15.780018912854027 10.715163733499526 9.361060284299434
Ni 13.345368394079593 13.838369868423523 9.466349682498581
Ni 12.302101399636369 8.439784811936674 8.311962676264887
Ni 10.942024677667572 14.054057990263418 9.399076851226512
Ni 14.511654080904943 12.243379896262018 8.233388767212785
Ni 9.253711093755733 12.786045854184295 10.606778446471335
Ni 10.947313137492483 10.074280087346656 9.133041953832574
Ni 11.535476045765087 12.02526302942919 10.355802499259232
Ni 9.166201325546467 15.16821907379666 10.6819265827809
Ni 10.34149288377941 9.770371782107487 11.541158554287314
Ni 14.11782040341955 11.941726907581915 10.616422044298629
Ni 8.802925664316007 10.602467031188715 9.982018238633838
Ni 12.288231840516774 15.457308401271362 10.750692916895103
Ni 16.484696085040582 11.319478060768956 11.444353103825135
Ni 10.69132823142379 14.404772536114821 12.145114607397357
Ni 12.319308065643604 8.616461402478906 10.59254549910303
Ni 15.856423364182502 13.250984754146245 10.086436722742173
Ni 14.392589684414576 14.562560034258611 11.512559624182263
Ni 12.58214641670289 10.567630543420586 11.906881936820504
Ni 8.884583600609407 15.84461891826278 12.999137284156664
Ni 14.71500080369891 9.654098343858685 11.240151530531387
Ni 14.689307500820236 11.595036568841161 12.901509994079237
Ni 13.864956181868767 7.647742702581086 12.054763972754143
Ni 10.824652180559195 16.734053024797756 12.03584624975386
Ni 12.751727804261918 15.365792751007147 13.063528796814149
Ni 8.49576759347186 13.56305421274039 12.660188263714023
Ni 8.444556931499108 11.088577912146725 12.269260646149855
Ni 14.042430148973384 9.41223729587298 13.579687595832272
Ni 10.460884760843399 10.099010773544638 13.961748088246496
Ni 12.702893923516163 13.102834769162053 12.147423257171393
Ni 14.126173212802245 13.627339787942638 14.023783900181021
Ni 11.921311015742916 8.579263415688477 13.007633052410407
Ni 10.576359881183482 12.032980067989731 12.585687268646616
Ni 12.536774238442868 11.573492203356059 14.009532657115303
Ni 16.084628261883946 13.381307716411051 12.523029389467776
Ni 10.844181378408354 15.939170594123283 14.31001486786065
Ni 14.457139982513315 11.113132994390602 15.28396967928037
Ni 12.788814547715663 15.07603682311227 15.423872866169779
Ni 8.221384399936948 9.920305026410084 14.226494997861979
Ni 12.354496462189454 9.684596310631928 15.343108785143551
Ni 14.465294778280606 8.861554561664702 15.76070208985332
Ni 9.004682442301835 12.066109297434206 14.44137831181406
Ni 11.321905768419528 13.602484007629103 14.37784846474303
Ni 12.996624675363137 12.80189754570173 15.992989081029076
Ni 9.158600976666623 14.35227258569333 14.820856118485679
Ni 10.915235554462816 11.625012965363839 15.73135498964007
