46
Energy = -203.1664966 eV
Ni 9.496263117667022 6.809661764352297 13.50573845452647
Ni 12.071244325335428 6.998762952302547 13.251703742950648
Ni 10.375181206934728 8.557315792682385 14.712538943671593
Ni 10.52471818454566 6.36461622896431 11.489467611736295
Ni 8.14189865377872 7.388891926404877 11.618043219933591
Ni 8.433062869646262 8.990850340951862 13.30562959664864
Ni 12.322801746164194 9.48048213549302 13.868582223706804
Ni 10.755154367769169 8.575864077219014 12.342368042551819
Ni 12.846630914248712 6.444000601594502 10.902849876552255
Ni 13.2740376563153 8.650159785516621 11.896871348558992
Ni 10.166661871174139 10.617534762965308 13.424550478563654
Ni 11.012047388350062 5.9100859554512315 9.2301478524735
Ni 9.48165072723233 7.555602832334881 9.757749285425676
Ni 7.248662062740873 8.297450249297773 9.522902481339855
Ni 6.837331643109591 9.468919502205168 11.52308270104358
Ni 9.136513890694808 9.564880618173651 11.015532179702136
Ni 11.737167929152738 8.258725109272536 10.104297236505067
Ni 8.02093282039112 11.252089935149252 12.530364529287807
Ni 11.89616105611629 10.625953390967144 11.823073034106757
Ni 14.210054804207273 8.256995947635751 9.815650640255319
Ni 12.900051468533034 6.937279325144312 8.449825872728244
Ni 8.419849518628938 7.298252212871043 7.723185771816068
Ni 5.932979324038209 10.206425684363646 9.344736854714302
Ni 6.020152531091223 12.578961932169147 10.015157741127846
Ni 9.945623100512368 11.894949721582167 11.351739651595611
Ni 10.789325084541602 7.951904206642856 7.809548748255939
Ni 12.770280401611226 9.30581330366069 8.148370428445604
Ni 7.882980400925229 11.302807278859408 10.097171971925626
Ni 7.088671506321072 9.35465076345997 7.315328243490833
Ni 10.98813379295941 10.43110352055006 9.593163409418754
Ni 13.399736693089285 10.47503644083417 10.078087198860294
Ni 9.212308065818887 8.808322193153533 6.192816324709301
Ni 8.980009626499063 9.660523214341092 8.544441569573998
Ni 8.025088255457055 13.324143384042369 11.29514993594722
Ni 9.608742357444044 12.123780592271965 8.578773037591825
Ni 11.999402124218742 12.46803914176494 10.283767501340522
Ni 6.98746252180748 11.718763326579644 7.952792910481362
Ni 7.839496307415386 13.71419387776731 8.982543808891641
Ni 10.03063952552042 13.901205749727016 10.062121181369504
Ni 10.851873513888709 10.286288326962941 7.122299871634753
Ni 12.430676803513464 11.69217390901515 8.09462030041383
Ni 8.721249919940194 11.051173176451066 6.483724483560415
Ni 8.271776256432227 13.283385698342325 6.668711192719533
Ni 9.69520317036474 14.653589622556407 7.830088114684898
Ni 10.666346929226517 12.675095784930672 6.64285882899536
Ni 11.769844313851625 13.901325691010447 8.432961971160452
