43
Energy = -189.08202036 eV
Ni 11.074778454909028 12.603891904990148 7.195751061124455
Ni 12.16443266484338 10.3881707962657 7.286897850731769
Ni 10.656799751084664 8.51715878721004 7.100074394175851
Ni 12.94922402123351 8.15917977480249 7.810151406267596
Ni 8.949081007943724 9.144960760102805 8.642231872687676
Ni 7.445019674204006 10.619634833566918 7.443074523534137
Ni 8.624645892353183 12.876164659410236 7.515708284925797
Ni 6.456019611809914 12.266835589747497 8.8165976415581
Ni 9.490898860571932 6.849750034911252 8.652793064934553
Ni 6.71543005362243 8.409184715272202 7.991868028763125
Ni 9.751532115613104 10.74061348236929 7.041476216800907
Ni 12.697002178115815 12.25126226142807 8.897858615988872
Ni 13.26739247471571 9.92386677557788 9.384739733559465
Ni 11.497976735363322 6.328373812459057 7.549969163523115
Ni 5.258178653837714 10.188392869802662 8.264100328384975
Ni 10.435986491200584 13.20443111835158 9.354472164402523
Ni 13.502590768488197 5.979321851890867 8.633498996406907
Ni 10.904929383862004 10.80813356290025 9.180901471401565
Ni 11.201379518197054 8.449046855378075 9.402065193355154
Ni 7.5782403415447295 7.526589320918453 9.90279642115577
Ni 8.110845843405489 13.720645343080125 9.79005223371489
Ni 8.678074472135656 11.538955033425879 9.316129813798453
Ni 5.355446477136527 8.553921631965466 10.172470496328367
Ni 7.067203859743423 9.948078363238881 9.933302408913974
Ni 11.528170049323215 6.232986076005043 9.944058801087087
Ni 7.041295176169841 12.01641255489245 11.166187199899456
Ni 9.39500553483269 9.9034335558144 10.916741923427564
Ni 11.749491822143437 12.283870494805116 11.127729748633987
Ni 13.468175620814604 7.688803357931027 10.146579267616891
Ni 13.99860708038471 11.571396204415127 10.806122084280165
Ni 11.766614531934593 9.926349436413973 11.275741240904644
Ni 9.677959670551598 7.443923207990023 10.980486222787665
Ni 4.9572682857886035 11.055532367172518 10.35360068615933
Ni 7.747675377984925 8.506869338419666 11.996348873641844
Ni 8.2618910446762 10.714839240324787 12.799873385847464
Ni 13.889763831273472 9.305051096574187 11.786886484294303
Ni 11.884282002183006 7.6576653595165824 11.888525718381137
Ni 6.043428175372672 10.076898770719364 12.130433222744022
Ni 9.388527503233348 12.418419932927609 11.416687823204397
Ni 13.018024204087611 11.344711430668477 12.891462913432159
Ni 9.93911123895204 8.800385605981084 12.92469983834711
Ni 12.161206265409323 9.296049430644619 13.57310638192154
Ni 10.614076201724377 11.123521322493698 12.959429719727478
