43
Energy = -186.733658 eV
Ni 13.807420963479613 11.456783178029822 7.250780746732904
Ni 13.550819867864423 10.629794204075456 9.373548497192052
Ni 13.402691379119382 8.454780489132169 10.141469993369478
Ni 13.126894520148555 9.031659419684967 7.770304511498361
Ni 14.438873757318248 12.44262902220198 10.388114302991974
Ni 11.658866426701945 10.928957435214656 7.912637656570188
Ni 13.836073357783908 10.319474617880266 11.667142851329656
Ni 12.215029987978749 6.68820532664124 11.088393307743969
Ni 11.96375898994229 8.815830241400626 12.074340751914642
Ni 12.47535753876148 10.189674393952284 5.760229386960237
Ni 11.656287198416214 7.465222414079707 8.805960141573268
Ni 13.837199138157132 12.535388965513127 12.64882884907507
Ni 10.334245465687674 11.099840928954753 6.014988364656552
Ni 12.562642307993164 12.873992826730714 8.885117401159153
Ni 10.891029799417181 8.868089899538193 6.98670144188604
Ni 12.069474723559502 11.73745257321433 11.00030714141744
Ni 12.192626548587763 10.82976028105242 13.335033032342162
Ni 10.703085823493646 7.057612127076919 12.927434303840048
Ni 11.243951089813166 9.58110096067438 9.874863925911942
Ni 10.130694345389472 7.52781477315268 10.68310163496943
Ni 12.800625810844817 14.032253084972918 11.017495514688326
Ni 13.16798207626704 14.873480911361925 13.131338419153408
Ni 10.332167135477839 12.804775950669837 7.83280058260041
Ni 9.365239275745934 10.391432571010654 8.02753146962655
Ni 10.393647844517881 9.299156267600022 13.912366746917696
Ni 11.687500149195431 13.130437704030083 13.17423115148134
Ni 10.190101865409716 10.59304091218887 11.961384210158151
Ni 9.337280545492334 8.049244308386386 8.559579859846593
Ni 8.81263605127416 8.359796521601396 12.40857883133654
Ni 10.715311566710826 13.959128458574884 9.91155697344246
Ni 10.058681886362715 11.715747234722562 14.1068641242583
Ni 7.761604923575956 7.534381362404934 10.398747661837163
Ni 9.896825028117727 11.740415255035884 9.873062646683062
Ni 8.780632413020031 9.607709590408472 10.212429507172208
Ni 10.994526440692633 15.090510169171118 12.089097800113016
Ni 8.226908846695444 10.370034072136134 13.458791068942226
Ni 9.782936673265693 14.168844722672794 13.961545739084364
Ni 9.710674351868455 13.084441931558665 11.85257796200069
Ni 6.864803353866224 9.391664449418698 11.617239685603076
Ni 7.9640828449907355 11.544147560877953 11.359200950859684
Ni 7.991483078211455 12.75330013403048 13.43298946633844
Ni 6.189397545234079 11.28935245258717 12.864646245066927
Ni 4.697992050907885 9.939617935944918 11.865895260155712
