47
Energy = -207.70808674 eV
Ni 10.468855665698923 8.416650173217246 5.779021463606622
Ni 8.760929261151913 6.639875033990533 5.732221729015781
Ni 8.049681455006535 8.767311848552298 5.225994560560027
Ni 9.510653020839097 4.587440849834055 6.8974772545477805
Ni 5.891917150803193 9.522534940833149 5.758202202142003
Ni 10.985520500021275 5.914190566363245 5.461836896656181
Ni 8.430083854810759 11.063835585054969 8.388273633728476
Ni 10.29501150642263 10.63129285411709 6.954236966162351
Ni 7.089613586988495 5.011178512417055 6.444355921044327
Ni 11.841026255495526 8.812856001611625 7.805053433312599
Ni 7.8358489476369195 10.852208338060121 6.186154564936975
Ni 8.702084660622306 8.7014613712255 7.533557329808589
Ni 6.470785837503879 12.131731853338394 7.8604533361939986
Ni 12.641861652891025 6.984251985425242 6.710865578113405
Ni 8.256008540349304 6.207794842786126 7.989758281481281
Ni 11.763145467159113 4.932481655848464 7.557508147530201
Ni 6.582671068067792 7.455391153974018 6.706057355412341
Ni 6.475620647081489 9.695382545049483 7.947624217989556
Ni 4.8090238841056845 8.081713414817182 8.62177121101476
Ni 7.8659267805443 4.028775558193071 8.561722246703718
Ni 8.856817499795183 12.844067147005278 7.090759789233621
Ni 4.7186699203841975 10.554081177521969 9.069662479922522
Ni 10.424306922713505 6.884128682375214 7.526204212730784
Ni 6.938881444532205 7.636202824110392 9.158249780226724
Ni 10.044983970329989 5.204972436511819 9.31884942029846
Ni 10.46401461620908 12.27923829844967 8.898232564866927
Ni 5.9434413620985715 5.667612847659605 8.503155962669297
Ni 9.378316778724589 7.536563462339185 9.654935098268608
Ni 12.316919835905635 10.805012817015166 8.828647103304395
Ni 10.233197562004072 9.75530232985475 9.18864226609043
Ni 12.003148649337824 6.70840391349685 9.17938663072856
Ni 8.201187140696671 13.184925177992701 9.444505887631713
Ni 7.999903245261482 9.43074414188089 9.94773266774049
Ni 6.616915408757396 11.404323732752442 10.169927129099339
Ni 5.5950193284692595 6.702813628008851 10.705232922878633
Ni 7.811541416309511 5.683217419151729 10.289195919981562
Ni 5.797744975167352 9.1356676568327 10.69767336148453
Ni 9.093906031870056 11.307864934530693 10.639452277853042
Ni 11.95144114915676 8.773588252966102 10.354619762407866
Ni 7.7491967334598355 7.7418505849429655 11.559421926838061
Ni 10.78159588716593 6.830775758727497 11.232612256927128
Ni 11.369612315488133 11.072528918066972 10.985093710715287
Ni 10.084590112557619 13.2445707106891 11.169381439349165
Ni 9.851456774584772 9.111242246731884 11.598465554452165
Ni 7.811327779436169 12.68005258874784 11.865467351698397
Ni 7.628836704140815 10.179942756676448 12.138513480220357
Ni 9.741586445342877 11.336776223352675 12.798662465520074
