46
Energy = -203.30927153 eV
Ni 10.462974570678305 8.452473272491112 5.1759439082140375
Ni 6.001045115183984 11.757603287307544 9.52692883967601
Ni 4.869603124863586 8.039776200264546 8.573547278680683
Ni 5.720955906811927 5.845623746657306 9.223382304129139
Ni 7.666892304518611 5.385187893409597 10.557757658262613
Ni 10.332071841703991 8.070249678813706 12.57240459439861
Ni 4.185661519280685 10.34357957117145 8.449404194607691
Ni 9.014011097533821 10.473173364519761 11.938115347457066
Ni 10.048324982821246 6.058393193829734 4.967522640741192
Ni 9.877477697464746 5.031307803921527 7.157997745423738
Ni 11.727129764980056 7.805312328779236 10.5683176825597
Ni 8.939348624770677 6.591357062918388 9.041089185959054
Ni 7.648745208458935 8.854196424754559 6.192701232405051
Ni 11.169806599243119 9.970120915233743 11.333564906287249
Ni 11.940078509550792 9.243689215794316 6.841518573781567
Ni 7.818020123920671 5.7337258964589894 5.854177051672026
Ni 7.068350712656099 9.01524013530587 12.108163974469285
Ni 9.590688844905767 4.410939495641885 9.47107341976711
Ni 6.615254654032672 11.320945227662232 11.83243145919574
Ni 11.305667817510447 5.980120963276545 8.918770955429006
Ni 8.86268513848994 9.97772900545909 4.46287804981449
Ni 6.871758292594812 7.694334106949082 10.058560067458746
Ni 9.89354248973733 10.587142861697217 9.37036650409556
Ni 8.310203937783312 12.243460968997061 10.380043795319903
Ni 12.201335192730637 9.862371507536896 9.228669710653012
Ni 9.280162714408018 7.273854770116736 6.7895985007332404
Ni 5.6037550754961725 11.808097686428459 7.205145951392425
Ni 8.040823500755657 11.504154259946157 8.119251055561794
Ni 10.678488786993078 8.297580376820026 8.502814427271353
Ni 12.92336172995458 7.703144818533002 8.44623231766614
Ni 7.343746481158475 11.071191481214429 5.901892691277028
Ni 7.5775158646068865 10.086874725128487 10.12248516284235
Ni 7.635939245628574 4.889340011803402 8.115234013276684
Ni 6.564258899422894 9.381425428373818 4.2090234581340304
Ni 8.278511653038436 7.586463020780606 4.342402586886692
Ni 6.830903913974805 7.120755171971341 7.6326161830264825
Ni 11.607743480010448 6.8193265555663345 6.641714784844011
Ni 8.458979302037196 8.849153738170278 8.402653491922543
Ni 9.63971241426434 10.170094572858613 6.810115585551253
Ni 6.378443444405104 9.773584646646398 8.1009658634363
Ni 5.33236586731951 9.557400819342574 10.438725390410783
Ni 8.16270074734177 7.0051107143458555 12.158497041866909
Ni 10.108400254945561 6.132647919590022 11.090708535090116
Ni 9.262021625512922 8.432994919328346 10.625752890093409
Ni 6.062206980820906 7.362302538198175 5.388155075898629
Ni 5.163290798476246 9.501414548782734 6.225650765156915
