48
Energy = -213.08199498 eV
Ni 11.5045523558935 8.166155208949116 6.970839774112405
Ni 11.517647540609198 8.017570665470986 9.297864864986533
Ni 11.559063760247763 7.1762898300960885 11.569729044353394
Ni 13.600126516966276 8.239468849115784 8.150142125427175
Ni 15.618850117180296 8.287514326769204 9.285813408280841
Ni 13.657742453867266 7.641925834555545 10.448980795488133
Ni 12.534724081094174 10.210745329951171 7.502300412056475
Ni 14.663502887952516 10.358687878158294 8.666498413034544
Ni 11.32840380498464 8.212960881420369 13.745177882118076
Ni 9.4547730613274 7.499271329735105 10.235993804219577
Ni 10.373219085228794 10.152648684386493 6.501950510326654
Ni 9.454559054105674 8.721613624390606 8.138310444801935
Ni 13.134617721775614 8.886775073097702 12.381495332713117
Ni 10.79879571609394 10.44037755755514 9.096183768973082
Ni 15.003225204249048 9.680780885049154 11.056632102354742
Ni 10.800797485022228 9.34216176931349 11.31770547134947
Ni 12.918468390597797 9.870231240879717 10.113465132034397
Ni 8.706896676648771 11.142263633769867 7.969742430609496
Ni 7.3784772292064345 8.203778664020435 9.1480970067418
Ni 7.411047407118838 7.4965611143495385 11.39895971201912
Ni 11.1234611886992 12.172091810759358 7.48772210650484
Ni 9.380410494919879 7.914039839265443 12.597622714552868
Ni 12.903993508911936 12.03054054506257 9.058816937788576
Ni 9.310933875776593 12.170127719494403 5.975620893148775
Ni 6.081773714965684 9.311025448961708 10.82042121113687
Ni 6.732836281825476 10.557323006615333 8.95190074854878
Ni 8.660319538855848 9.781071905576486 10.284331063126514
Ni 11.509671083710295 11.661668900335643 11.060076108480207
Ni 9.234330784397974 13.494664919575134 7.919267003381567
Ni 11.666255653594664 10.456977876660769 13.26616239602846
Ni 14.843413872141932 12.012614175974646 10.36352941979303
Ni 13.594546594370618 11.275684751042997 12.153249984565933
Ni 9.368023406370495 12.188026288600163 10.065079337965084
Ni 11.165160209262064 13.631220517638575 9.381458324310746
Ni 12.953955545051631 13.429779748219607 11.086913683246522
Ni 7.669528187467158 9.546018010387986 12.565753740307594
Ni 7.33965383824704 12.90165818266231 9.272188014257638
Ni 9.467928313156259 11.212407835875077 12.290814745654162
Ni 7.131366873461295 11.413040703910777 11.115711160581478
Ni 11.933428207659173 12.779085433225681 13.211844875664896
Ni 9.014724914086061 14.594327222596734 9.960874059964826
Ni 9.48895399129608 9.779305431787476 14.144977040252279
Ni 10.491770327389425 13.7763700633057 11.672506081357872
Ni 10.882713716612924 11.61172227174427 15.060079604557883
Ni 8.133160586220448 13.404287343150576 11.786610948951726
Ni 7.479311320151804 11.766952544510593 13.41857560623978
Ni 9.542002789697232 12.995575224253477 13.74897481029999
Ni 8.606495758770373 11.514225025011784 15.412650070568837
