47
Energy = -207.90113423 eV
Ni 6.283985477714395 8.715648315737852 12.769257687956115
Ni 6.825658358384058 10.961850341315388 12.31205585495667
Ni 8.534973332786222 9.266734050193268 12.947823180076542
Ni 6.391880387530396 11.757644093133678 10.070277364502871
Ni 9.057304469621096 11.588636769836391 13.04920474740578
Ni 6.400927762345394 9.380304891831985 10.506087091636491
Ni 7.934538305532879 12.86907248693262 11.388462688403859
Ni 6.59790440465487 12.620878702240791 7.838151871188134
Ni 7.779013890764094 7.57254870238958 11.395483707450396
Ni 10.422836980505114 8.034653828001392 13.433678807269901
Ni 10.418287886776714 10.259999316954557 14.392724203362578
Ni 7.112571011752016 10.299275090409049 8.367220716581699
Ni 7.28427279703794 14.050534116334374 9.479075233760547
Ni 8.52158346110771 10.30272107409003 10.818759530577509
Ni 10.120121766512224 12.127861548206901 11.05672392987094
Ni 10.039865952710251 8.063195224699514 10.98740938829461
Ni 12.451721730912592 9.275303052549766 13.65508938031741
Ni 8.277623019802895 8.451176979109723 9.252422256020155
Ni 8.627251491222871 11.979665811847092 9.066559687762396
Ni 9.529491671181427 14.224909036764435 10.113471088414407
Ni 12.459718018909108 11.25138931426185 14.954260769801616
Ni 8.301505804882233 11.667746226292627 6.661192208987896
Ni 10.827502114470839 9.973773943519813 12.045178339258905
Ni 9.187810361248353 13.710571548646811 7.766525013739342
Ni 10.558099475208396 11.655986066772657 7.23770695345427
Ni 9.190933180454472 6.317188718006808 9.78040274965424
Ni 10.44424539589975 10.40713198232474 9.366341961458044
Ni 11.629839427066312 13.875904874034392 11.216860127680533
Ni 11.51926018852014 12.17163246975911 13.034408149623204
Ni 9.239796452287166 9.669344249564054 7.449815869029869
Ni 13.730809815886817 11.1436553338819 12.98992521041123
Ni 12.196956480385365 7.610415016216713 11.995692108898853
Ni 11.640502487294754 6.528067897814262 9.93115691263997
Ni 12.384088671545754 11.351830251879477 10.879990039971787
Ni 11.166557301408965 12.929154083828061 9.041422614948788
Ni 10.44362235943658 7.9227709383504 8.518317413009196
Ni 11.603795729266 9.533230346628242 7.300875867996459
Ni 12.15321533039003 9.004363759944209 9.99951135260677
Ni 13.691277853214968 13.212506640236823 12.052588039676753
Ni 14.669838178569693 11.356779388814724 10.733210130122686
Ni 13.39676967088221 13.167431107031348 9.733292843082952
Ni 12.78534602327428 11.11979497930044 8.538829016984
Ni 13.887465316297755 9.595061902947116 7.04600770938347
Ni 13.826979574293631 9.278621161088768 11.637080215110448
Ni 13.873795162984418 7.307987267935835 10.326293569634892
Ni 12.925930740389878 7.732375463873189 8.185682274235623
Ni 14.386339554855393 9.465230700531396 9.304117097786161
