41
Energy = -179.310098 eV
Ni 8.669259245801555 10.896874534489594 4.151315752394505
Ni 7.52399348910383 11.077493852952284 6.148611274813981
Ni 7.20645302102983 9.061514139694031 4.7670325009558985
Ni 11.014647427778415 7.565494030948986 5.963669382342387
Ni 9.88244081562571 11.639036840685439 6.200568701814969
Ni 9.469343685912392 9.352334739219126 5.618247627648065
Ni 8.599370931155384 7.091981254938656 5.692234196426441
Ni 9.586476197156795 8.000260016758123 7.68816192784195
Ni 11.295330537897431 9.760158479790684 7.104001674310267
Ni 10.058941103331351 5.830142036016898 7.488516425790243
Ni 5.482161453902449 9.584436620494408 6.4469798550890385
Ni 6.634981975893765 10.646471075756617 8.264623219402118
Ni 8.392499003660593 12.445465624162356 8.06099552445382
Ni 10.89044338559845 11.746220633856078 8.473571974230657
Ni 7.649802005003209 6.526734174957059 7.794182190688895
Ni 7.51347773018878 8.834803104451943 7.0539322089150795
Ni 11.289540442248114 5.882642289012336 9.556726915068817
Ni 9.125410077857026 10.315971318807122 7.975565228558819
Ni 12.001253457810943 7.674435598325913 8.138105050509083
Ni 6.135077323804985 7.270373013632893 6.10156355747457
Ni 5.851590514901284 8.090887752434087 8.57960571898652
Ni 7.954982307258826 8.798170820505748 9.470449117203922
Ni 11.973218649048524 9.779470667742109 9.434898198425678
Ni 6.57950215203133 5.915117173619837 9.758353737704864
Ni 10.404576774174354 8.08953916297777 9.81770965926037
Ni 5.74375408518916 9.91316587577165 10.30431134130769
Ni 8.948579451646799 6.234332165321081 9.723228944460239
Ni 9.68956382471564 10.29406689563785 10.248374468287606
Ni 7.6316870039859435 11.43653881323987 10.191967023180878
Ni 9.576548877663864 12.698347959848514 10.196918009008758
Ni 8.837992263798775 8.131982079274621 11.598728163584589
Ni 7.461874946206964 9.921868415352339 11.93898172937413
Ni 12.52451257793704 7.697792436271863 10.563559807300154
Ni 6.49980492075786 7.839935047288911 11.012935480108299
Ni 11.52023931391223 11.545808198419676 10.919101560170441
Ni 11.049097705887654 9.21800456809644 11.891868064309037
Ni 7.881346796758329 6.038422787290686 11.80395387875761
Ni 10.646200614057893 6.652644365296633 11.728250738335126
Ni 9.464688354924732 11.332309330356688 12.234189929824833
Ni 9.219977319264887 9.357980468316367 13.488577215486085
Ni 9.250485868332564 6.941899271201551 13.536559659408567
