49
Energy = -217.61586132 eV
Ni 13.549152397120736 8.40439651891455 8.07644260932914
Ni 13.86273497045489 10.260877407450266 6.770799030751525
Ni 11.655335476599573 9.237155797915122 6.5645774661339775
Ni 14.473961291077396 10.305320163329034 9.23226993039323
Ni 11.39165380085854 7.943178046348012 8.70451190524466
Ni 12.85804245942224 8.766143031383136 10.39250638436677
Ni 9.94864933133338 7.6141119487506055 6.859390542426224
Ni 11.867619225015314 11.64676150608513 6.767266393266081
Ni 10.000633591898398 6.037294825034703 8.646574352610402
Ni 12.240125912267159 10.346283913553794 8.665137992693253
Ni 13.907478732723488 12.232651557787927 7.966156584770975
Ni 9.742535904006576 10.804580164759827 5.96826789367267
Ni 10.750840814292886 7.165729074819196 10.918755527438915
Ni 8.19916763623259 9.082381529483909 6.675488856199439
Ni 14.12884473106797 10.471264719869316 11.558891545739055
Ni 10.505042027282217 9.435778613066548 10.455128572162966
Ni 9.961072585019364 9.989797750602904 8.079702145555318
Ni 7.6163683900855 6.940906786396878 7.634781019236919
Ni 8.958566852569085 8.044685178472434 9.036528635408914
Ni 11.88693094092215 12.813016728719834 8.91395491774167
Ni 9.871556938699243 12.597838450423625 7.601624720787336
Ni 12.166139374787921 9.62058767788706 12.490908119916607
Ni 13.918795167569188 12.461403825342408 10.328409725988246
Ni 8.586980550817247 6.0281574891098355 10.47505826943644
Ni 9.28101524431279 6.427748793724772 12.677470104741928
Ni 8.568345475845366 8.27166527338435 11.39157081865098
Ni 11.975191016327402 11.261913086087397 10.837936126207357
Ni 7.919347632484493 11.186242017310544 7.711149384324982
Ni 12.134992232031186 13.86628032352233 10.986853976169435
Ni 6.61355433222261 9.190177654047227 8.394622943205505
Ni 12.754597763515115 12.159306090840477 12.718428797432308
Ni 6.778244767050801 7.371015155395511 9.885692730090634
Ni 10.14585049465244 8.64324897774032 13.069147240430727
Ni 7.9077746442575325 13.286074698117963 8.733838178501186
Ni 9.989073297438955 13.994210831489008 9.77330552603547
Ni 8.15032903213169 10.10464705107962 9.910007016743311
Ni 9.093894048798054 10.680701313826757 11.982233264296157
Ni 6.921919328203573 6.977663555407104 12.250918161815378
Ni 8.245722367121228 7.766044685971185 14.267275776038353
Ni 9.880432732760005 11.69788435705718 9.771725253359337
Ni 10.73032034327423 11.124639953216294 13.573116493011103
Ni 10.358054358392 12.823345027130935 11.954571830387138
Ni 6.426243593809515 11.523705471331407 9.610273095865123
Ni 6.055706998909916 9.408151397183861 10.790250800861855
Ni 8.728794890378115 10.141064445225405 14.343407556292396
Ni 7.13313214047688 9.249547080715772 12.918237561955044
Ni 8.175106751012192 12.816139046113154 10.967491973522085
Ni 8.516056198345265 12.363875908527229 13.414794649343682
Ni 6.762041637122818 11.330106262194388 12.00364312519666
