44
Energy = -194.54734617 eV
Ni 12.07675332 13.822303379223603 12.07675332
Ni 12.07675332 17.0828638230727 12.07675332
Ni 13.846028949779242 13.846028949779242 13.846028949779242
Ni 12.07675332 15.484842437236178 13.805789432669208
Ni 12.07675332 12.07675332 13.822303379223603
Ni 12.07675332 10.331203260776396 12.07675332
Ni 12.07675332 12.07675332 10.331203260776396
Ni 13.822303379223603 12.07675332 12.07675332
Ni 10.331203260776396 12.07675332 12.07675332
Ni 12.07675332 12.07675332 17.0828638230727
Ni 12.07675332 7.070642816927303 12.07675332
Ni 12.07675332 12.07675332 7.070642816927303
Ni 17.0828638230727 12.07675332 12.07675332
Ni 7.070642816927303 12.07675332 12.07675332
Ni 13.846028949779242 10.307477690220757 13.846028949779242
Ni 13.846028949779242 10.307477690220757 10.307477690220757
Ni 13.846028949779242 13.846028949779242 10.307477690220757
Ni 10.307477690220757 13.846028949779242 10.307477690220757
Ni 10.307477690220757 13.846028949779242 13.846028949779242
Ni 10.307477690220757 10.307477690220757 13.846028949779242
Ni 10.307477690220757 10.307477690220757 10.307477690220757
Ni 12.07675332 10.347717207330792 15.484842437236178
Ni 12.07675332 8.668664202763823 10.347717207330792
Ni 12.07675332 13.805789432669208 8.668664202763823
Ni 13.805789432669208 12.07675332 15.484842437236178
Ni 15.484842437236178 12.07675332 10.347717207330792
Ni 10.347717207330792 12.07675332 8.668664202763823
Ni 8.668664202763823 12.07675332 13.805789432669208
Ni 13.805789432669208 8.668664202763823 12.07675332
Ni 15.484842437236178 13.805789432669208 12.07675332
Ni 10.347717207330792 15.484842437236178 12.07675332
Ni 8.668664202763823 10.347717207330792 12.07675332
Ni 13.805789432669208 12.07675332 8.668664202763823
Ni 15.484842437236178 12.07675332 13.805789432669208
Ni 10.347717207330792 12.07675332 15.484842437236178
Ni 8.668664202763823 12.07675332 10.347717207330792
Ni 13.805789432669208 15.484842437236178 12.07675332
Ni 15.484842437236178 10.347717207330792 12.07675332
Ni 10.347717207330792 8.668664202763823 12.07675332
Ni 8.668664202763823 13.805789432669208 12.07675332
Ni 12.07675332 13.805789432669208 15.484842437236178
Ni 12.07675332 15.484842437236178 10.347717207330792
Ni 12.07675332 10.347717207330792 8.668664202763823
Ni 12.07675332 8.668664202763823 13.805789432669208
