47
Energy = -207.96636647 eV
Ni 9.608390722332896 10.673042428809968 6.252398159264438
Ni 11.973841911052505 10.856533824338666 6.202111367081087
Ni 11.004195654547878 8.8075285968882 5.7299014088205285
Ni 12.239336276519639 13.289447531103255 8.92450013951087
Ni 8.956845401332167 8.44877430715738 6.816031911693285
Ni 7.336949522836578 10.254282402326297 6.542632835231153
Ni 12.819666233332866 8.872192102789137 7.321930356895352
Ni 8.248175215931582 12.370670851896126 7.5383832966766064
Ni 10.64398518670855 12.218138669664265 7.628240274132694
Ni 9.768265457329115 13.699247038952356 9.26383237366112
Ni 12.710789233615039 11.077451424213208 8.381830997701218
Ni 8.646187343132791 10.38638474929678 8.588236615241165
Ni 10.825352373541804 9.658423510584674 8.240081338343835
Ni 11.678837811994933 13.126813331988243 11.129514387353845
Ni 9.033816252474063 8.122389303264686 9.158376430532716
Ni 13.713712513756379 11.861583530789755 10.299332905517568
Ni 10.968739678325665 7.287002862195828 7.519346054518453
Ni 6.947121528985624 8.370941513734026 7.998284245652048
Ni 7.857637461502042 12.299555119291002 9.895374008928371
Ni 6.372135125304251 10.939656328248166 8.577636094464172
Ni 10.349666555311746 11.587420954718345 9.895489034403441
Ni 11.320626281711576 7.848361822283583 9.837643448624059
Ni 13.910207693960292 9.256169449232676 9.40628624592553
Ni 13.149754515742638 7.037665064672813 8.805071298408501
Ni 8.84837126126832 6.184007513622783 8.119411019000529
Ni 14.252266489507196 9.88694504891584 11.678644131679581
Ni 9.347224449870254 13.035135354073214 11.608434421044866
Ni 12.95609792999804 11.651502409718987 12.49473108002902
Ni 12.126692881208836 10.102623818510972 10.612583209797904
Ni 7.091152574189727 12.925913463678581 12.09882289006084
Ni 7.2099276752419925 6.946655352587001 10.00290201908134
Ni 5.9257407591471365 11.191999426088541 10.914391134202159
Ni 7.139630353190618 9.298176809854464 10.13438233915383
Ni 11.086746960860047 5.634851017891641 9.107480438373852
Ni 9.870995530606578 9.48379869433983 10.818088416245416
Ni 10.68701961296904 11.293030825688252 12.349277908800158
Ni 9.411609770592573 6.3409314427296195 10.587333610260297
Ni 13.132024005392536 7.832100201609393 11.24248753999051
Ni 8.117199973472852 10.720712542188867 11.774989967231447
Ni 12.176379218453501 9.389005435413525 12.85307445763991
Ni 6.2115921857253555 11.193206153026026 13.31520396226526
Ni 10.749921037155033 7.6093278063299845 12.099003315047874
Ni 8.6753284500988 11.737092811780641 13.690446254194427
Ni 6.088278748647482 9.096141249177158 12.16405669065837
Ni 8.288964530160397 8.043411883088554 11.937238950896724
Ni 9.810433004453442 9.401392225044582 13.290808966577323
Ni 7.618045987337327 9.457895913577682 13.859395143682212
