46
Energy = -203.13211878 eV
Ni 12.69096290007761 8.916789866743327 6.698022016487948
Ni 11.118417941367479 7.511625413950678 7.825853627986297
Ni 12.91287043791109 8.504081438158206 8.975304816545812
Ni 11.459518438934543 6.52765528592669 9.958577258703118
Ni 13.598034296609054 10.66387037788756 8.129587333090754
Ni 12.185933441033887 11.135834602056189 6.2717206292036884
Ni 9.067296777351386 8.423115767925866 7.063208642969036
Ni 9.13067853446955 7.401296310696149 9.149058931425015
Ni 11.420214283105613 6.606801841451488 12.338863671237352
Ni 8.451158648994623 10.624562087846385 7.3389873790340925
Ni 12.916038112448058 8.14299388423578 11.296223074611625
Ni 10.829769527944936 9.906297536733405 7.7875936433325466
Ni 7.1333218873389095 8.671439777441888 8.556197436837614
Ni 9.382921067145704 6.36072760038326 11.238455587224529
Ni 14.26071830612692 9.966595102646602 10.324554736356271
Ni 8.891588505540847 9.808640887644824 9.48584355112755
Ni 12.157443217774672 12.552290440893795 8.17480526451234
Ni 10.140163240089693 12.094411908891168 6.7998740203576675
Ni 10.853763782958628 8.665505205197174 10.252287772643788
Ni 12.01739657511789 10.668005506526884 9.825120296358314
Ni 6.752392332879715 11.017549134962872 8.847589030092895
Ni 9.407528697991063 7.287236848062637 13.50509727372228
Ni 7.232559995993409 7.43777380371675 10.62941786428296
Ni 8.938954160857463 8.635244982552933 11.671670931661478
Ni 12.709208290886075 10.387276166768336 12.016643452388331
Ni 10.116748772049734 11.882470765574185 9.200579513157336
Ni 10.288768864598984 14.078206304106919 7.999029374329522
Ni 8.21211327454749 12.862908683984589 8.26583495147105
Ni 7.478257495289757 6.293618217436074 12.649614101616883
Ni 11.122802207725064 8.874155486506961 12.76999107317202
Ni 8.07850124147002 11.948333710887123 10.548220096054953
Ni 13.559242303913575 12.377186019271923 10.281219717425452
Ni 10.093447383047504 10.687546905462447 11.398181556839187
Ni 6.898984668658465 9.778802812396796 10.866716675420081
Ni 7.201153616880909 8.604201422490208 13.086516239881533
Ni 9.409646838217787 13.888436635070969 10.185151759964612
Ni 9.315082530186704 9.609190826158542 14.024882727746565
Ni 11.845272171582486 14.245155040196567 9.742655843478431
Ni 11.43154615280307 12.598390141526469 11.3342563892606
Ni 13.222942905339062 12.387590340727968 12.882009683195696
Ni 10.974828107960953 11.283851710522862 13.507588756852552
Ni 8.023033045160657 10.85794909350483 12.638197758167532
Ni 13.00629947716544 14.399183560723808 11.783694597590475
Ni 9.364691805808294 12.869051264275484 12.43950608354844
Ni 10.698230828270287 14.892849599139655 11.810361900024413
Ni 11.394736442864339 13.634197133775537 13.598660960604503
