48
Energy = -213.37092001 eV
Ni 11.0477489931619 9.920218452837663 5.5217028357172655
Ni 9.997953017577835 12.092035565617135 5.93212557735002
Ni 10.016555474187092 8.49811941401611 7.100661765339427
Ni 12.362023875647491 11.878770806758157 6.0289020156439825
Ni 12.007554116547958 8.403516345941073 8.433081212858665
Ni 9.998538350232444 7.180176820829249 9.118042751926147
Ni 8.839107494027964 10.545418194221314 7.1650530196983695
Ni 13.288608014769645 9.84880074166131 7.030190754910871
Ni 11.244306603506832 10.638725701918613 7.6565127720533805
Ni 11.08034532844536 13.186020488283265 7.682502999280075
Ni 8.463516681288429 13.036366587359277 7.642359601854513
Ni 8.50874072644077 8.150381875413457 10.731428805093927
Ni 12.161793796539278 6.710868678911141 10.104845157861373
Ni 13.761524758803766 8.180682972525997 11.32617292764336
Ni 7.993073289030099 8.686470846764438 8.466532154045924
Ni 8.217249886385883 7.200758882764802 12.847646129505407
Ni 13.183302740965363 11.97848722391978 8.231637298418395
Ni 11.593646604659359 8.807010455500123 10.881826804210553
Ni 9.997014579484112 9.501978622916011 9.307842845152491
Ni 9.707604394803642 11.83241809425542 9.011382010379773
Ni 8.823358725477608 10.646013698476702 10.960686177586888
Ni 13.623712300720088 9.812690192780936 9.483458319286576
Ni 7.412699792816997 11.067025172614736 8.964947608698232
Ni 10.232227709878112 6.737223299799225 11.505189087477271
Ni 7.563417319028126 9.737374548857645 12.69115498393886
Ni 10.457495523697498 7.11099810816046 13.925800560500853
Ni 11.785681789533193 11.150876689102299 10.017843694826906
Ni 9.838060993673231 8.858410190074455 12.611638340786678
Ni 14.043794633601559 12.125649283457493 10.380638919742493
Ni 12.342249820816345 6.650520983306312 12.479560515011398
Ni 7.973224741861624 13.038559493044605 10.20752850498604
Ni 13.308888097621471 10.469484716505546 11.862300896732197
Ni 6.5000553314461005 11.49556352558822 11.231708518885972
Ni 6.634748019536553 9.369626372361736 10.408535535301253
Ni 10.204519329626903 12.693456594057263 11.107766192693367
Ni 8.62914680069549 8.662917153568957 14.628972537039877
Ni 12.170950988320307 13.522785173422525 9.78377572456634
Ni 9.868203717498682 14.316567831674195 9.456781276900553
Ni 10.962021621379 10.782542399652815 12.187030399746819
Ni 12.286338659251639 8.84387375087182 13.226873895434496
Ni 12.442799149843193 12.690800732157614 12.096114129802055
Ni 10.876461221132288 9.247015899137926 14.993656248247165
Ni 8.230615448739215 12.252414534972948 12.607727071880548
Ni 11.198212824309255 14.704754222931879 11.630472203210255
Ni 8.88845131928585 14.4410057753141 11.914959994624555
Ni 12.001236558905337 11.197049521853902 14.11207656037056
Ni 9.477433280482924 10.863483713625152 14.026291891168126
Ni 10.417189495909033 13.030344189507774 13.39794485406713
