45
Energy = -197.48822059 eV
Ni 5.85637841562526 4.491388464993342 8.909519669780252
Ni 11.972699796165402 5.0872381066026655 9.291885370856047
Ni 7.951360329137097 5.21382794888525 9.764302039831728
Ni 6.968835786395018 11.321404932217751 7.62929248810999
Ni 3.7328296289226492 9.594107992930452 6.221114628225051
Ni 9.679142484454866 4.2901578766242014 8.265774442654223
Ni 10.059941119291718 4.742541238146035 10.697340796627913
Ni 7.2504427585377025 8.619560766592702 10.8677540031554
Ni 10.204393587399654 8.684979200025513 10.26426381800651
Ni 6.379230116638775 10.747405344784415 10.086968507675758
Ni 8.323421254246995 12.157654256401292 9.467145242190755
Ni 9.314081555325169 7.111186744775443 6.864112175234008
Ni 4.9290663748031 8.623208953051522 10.13062309964496
Ni 12.008917486435527 7.580508089338704 8.708888599301773
Ni 8.211892943426724 7.6236529265679005 8.918638970528429
Ni 9.378005016274722 11.309356684986925 7.318160136468226
Ni 4.552478972778875 10.363306264023803 8.388322994091613
Ni 7.6213894907827955 5.144066965902387 7.415186462831983
Ni 9.52822786240724 7.259838425392677 4.602405752281459
Ni 10.46184848172559 10.996809826359339 9.55230983967915
Ni 8.470264675879283 9.939068161049024 9.108203445542836
Ni 9.401085848818248 5.032185071639297 5.891397069421259
Ni 8.954701471864704 9.492779587786755 3.5941357104543896
Ni 6.604969645314306 6.41852476734968 11.326218761469297
Ni 10.094193078736422 9.554155007731005 5.5668581977549465
Ni 7.962366638628531 10.847666844225111 5.331167146063337
Ni 7.283696117244481 5.960535168743738 5.150015067597055
Ni 5.289444757814838 5.662608170637382 6.881205541468549
Ni 6.393834877638953 9.084642694547801 8.436739158809305
Ni 6.0384988654195135 6.753032349638544 9.148977421708382
Ni 8.736708602768283 10.474795936217163 11.261146210257827
Ni 8.251606163270786 9.224118410197569 6.897245051883552
Ni 4.454151801431918 7.9100876550592725 7.615710700861168
Ni 8.941022874810695 6.87733871948603 11.188243215609814
Ni 10.094942932777709 6.408711567071873 9.045981243909752
Ni 7.4241316334213705 8.300206577737098 4.751672610958567
Ni 11.508601590076806 7.852625324550671 6.3218766525028505
Ni 3.9386786725046314 5.953266497930114 8.794986469927498
Ni 4.978400574402474 11.624998429846656 6.452821076351806
Ni 5.991600263173428 9.609209774786965 6.083804166321284
Ni 11.378886545470596 6.745017181035263 10.956755656531952
Ni 10.486054849824441 9.213053489878435 7.928808107962681
Ni 6.86228036908465 7.365488726773273 6.921356865396743
Ni 5.195946835412816 7.479892016722132 5.294141459119593
Ni 11.325323800271288 5.699767807593021 7.132500901777288
