42
Energy = -183.66569549 eV
Ni 7.422287932059754 7.209797627923901 9.135357686675583
Ni 6.384724188942865 8.48976768259246 10.761160528179552
Ni 5.747553575309093 10.338880975205747 12.08565354229244
Ni 7.185721527659731 9.569277581761352 8.789762568019055
Ni 8.416046387700106 10.630995137107325 7.112751248473723
Ni 8.7555852936124 8.136790384723941 10.883511189312749
Ni 7.522120370431837 8.870142203738476 12.81967081238103
Ni 9.782260761771028 7.022606169363942 9.076858739549166
Ni 6.832643053067068 12.41217662189739 11.543983660318604
Ni 8.697834710115519 8.283833308160233 7.429302363306062
Ni 10.904467087661484 7.330552299622405 7.009594662507077
Ni 9.80991467507186 8.089051829022536 12.99038285911808
Ni 9.517520668558875 9.715499768559313 9.226259789907441
Ni 8.101994303305196 11.969884264438852 9.106087974779422
Ni 11.021088857748595 7.228478131660579 11.087046032028665
Ni 7.42574910120302 11.157367265034242 13.513902510226679
Ni 10.60650210341976 9.643194126425794 7.060572717123963
Ni 7.753729614500645 10.4492106204573 10.898116641476845
Ni 9.4347213172647 10.394865696446612 12.564237197763958
Ni 10.216026126150078 11.882369371967217 7.858603970812849
Ni 11.753582236865327 8.253745450562347 9.00250510844696
Ni 9.981155719623878 11.717900449839146 10.540444841301847
Ni 11.804390446382962 10.656395111022652 9.100601168027328
Ni 12.803123987462278 8.866083937601559 6.952768131884968
Ni 8.403754122508769 13.847882623682503 10.652347214636473
Ni 11.176098573963355 9.567453637181046 11.217806532449496
Ni 10.188353699092303 13.73815870034959 9.220110817774545
Ni 8.875749783623668 9.570733119927509 14.653263276196208
Ni 12.380443183618537 11.235317592236855 6.878846254129417
Ni 13.175296207586255 8.44368187364345 10.952919818193191
Ni 9.008530860398313 12.66058309988027 12.568239807073324
Ni 11.15685437665399 9.82557830401178 13.987009313242691
Ni 12.167396767177431 7.888278714505046 13.050369895237543
Ni 11.546811253154782 11.731298327702879 12.343531411935361
Ni 14.58140621229363 10.408823326041766 6.942344914145398
Ni 12.220410764195357 12.800937040293048 10.176710611856688
Ni 10.664328593874208 13.894848668464878 11.54240799159039
Ni 13.891447122617866 9.454592726210016 8.973400503446465
Ni 13.170485079823749 9.95713433785735 12.871242995631
Ni 12.087484414371803 13.332437867611256 7.893118004903984
Ni 13.421964231356935 10.89732157136256 10.832732867818802
Ni 13.833499305934257 11.851602951541915 8.669870900423655
