48
Energy = -213.08092278 eV
Ni 12.114775306127166 10.238739889648542 14.071532070498728
Ni 12.260482633404365 8.116888191208721 13.008995488351463
Ni 10.110458746299573 9.056502092118052 13.568783834478014
Ni 12.057355262297184 6.403221831402401 11.338556741987242
Ni 9.84382519486502 11.327413234868006 14.22739743976017
Ni 10.017741183203526 7.03316097517124 12.3545027446628
Ni 7.995419073818988 8.245905019558522 12.901728974464278
Ni 11.8120570237699 12.523555037106858 13.532145257236532
Ni 13.902289710527892 7.876551281163148 11.133365517612132
Ni 10.96464770762834 10.805393171246296 12.137200384753022
Ni 8.372902276975429 10.645853216927582 12.444841657925636
Ni 13.410809104579934 10.1206900468942 11.87311039337422
Ni 11.787849215165714 8.783615249755405 10.899665335601963
Ni 7.5693626252161605 12.603744151621079 13.266945862611443
Ni 13.113309676321219 12.400964742286012 11.577079967036074
Ni 9.517098783622624 9.029133342266528 11.216927130608777
Ni 10.26515092305294 7.041906252438655 9.940123818018442
Ni 9.743311821036661 12.84595286878077 12.40374479025735
Ni 8.060695260834452 7.096204003304829 10.775085590638732
Ni 11.903294032942169 11.171984051915366 10.004442343710613
Ni 12.50674764997563 7.271261098196875 9.16683695670417
Ni 11.630048693192997 14.195959965342238 11.876806828432992
Ni 7.880041074361159 12.875362828397988 10.9649513776509
Ni 8.510031057221928 8.997619295708658 9.119064933399217
Ni 13.954118063724698 11.821632738789694 9.268366257539483
Ni 6.239203321703654 11.306987813578488 11.637966036175497
Ni 9.52104267416578 11.239350900095742 10.167024934728808
Ni 13.447454292448763 9.461391604556686 9.298792963840262
Ni 6.990258442488355 9.183144991979843 10.982564652535006
Ni 10.023689356926404 13.696450529580869 10.243758966864373
Ni 12.589766860952082 8.523621117998738 7.2086919132239
Ni 8.482132526825033 6.556495810386175 8.501869177137152
Ni 8.41990439204858 13.027756965725857 8.655928634711726
Ni 10.587309800967184 7.311356413093758 7.609332175695324
Ni 10.710882343935761 12.533236229378081 8.347395906369481
Ni 7.229514241102448 11.172146828365205 9.454691833379501
Ni 10.832871515443225 9.331725542595128 8.840146074654676
Ni 12.36208152841162 13.589787760262565 9.715627392570422
Ni 12.791136826659226 13.005678579286457 7.4795986415623466
Ni 5.364568827997995 9.88754021408479 9.503758628135502
Ni 9.059123950589184 10.925004530449014 7.767665284573077
Ni 12.319728080651904 10.79660630667082 7.58223197242346
Ni 6.548113764256156 7.912981117792814 8.873509227975397
Ni 8.456573213234666 8.294057553001556 6.924436312141331
Ni 10.519832932151754 9.421270961796766 6.45006220946081
Ni 10.605041537800648 11.75134420814711 6.167384300493784
Ni 6.810269055863331 9.922358961243196 7.511095462850447
Ni 8.465245446522221 10.300057517122845 5.6838326344939345
