45
Energy = -198.22118732 eV
Ni 8.401740244007149 6.917871710353421 10.521417397961208
Ni 9.482241826984858 6.999243553488059 8.461969770412633
Ni 9.627679186478026 7.405916876433229 12.450274880275385
Ni 10.821619718518328 6.733665766385305 10.404619364619066
Ni 8.061412960637579 8.804384926701298 9.130942384491659
Ni 9.51983012130752 8.944900146958387 7.21076672969436
Ni 11.329617580864372 8.489271778538658 8.680435450968739
Ni 9.740534863514021 10.670355173670508 5.7823197654935825
Ni 7.866553695495347 8.999242726397867 11.613050897670364
Ni 8.049674995332081 10.883773604571283 7.627578956416356
Ni 9.830602519879145 10.496566470155301 8.958221967466143
Ni 7.698754893726518 10.90013775212441 10.157174207443818
Ni 10.933661246198016 8.013548745495502 14.338351968765974
Ni 11.552809291155215 10.617655339449643 7.37039866198526
Ni 11.188266917646612 12.354033634528228 9.293908781151067
Ni 12.73352342467275 8.140333998690519 10.561326091467427
Ni 11.498645811128684 9.253099226055221 12.44115481854876
Ni 7.750311434052263 11.169456201651942 12.553705348726028
Ni 9.969779381145957 8.894203498073509 10.646006541967251
Ni 8.719230269480615 12.726148760096807 9.139511280650025
Ni 9.936226639148519 12.429225977857495 7.170385010324194
Ni 8.278763211598674 14.92543551332435 9.703548432772553
Ni 11.978133661866863 6.914773251263525 12.473745693421096
Ni 13.34245587985569 11.940775965038972 8.29863134670018
Ni 11.980096457116494 10.408775400392596 10.345522018246148
Ni 9.840594029262348 11.294874640342378 11.286320666668459
Ni 13.40580529733689 9.594648894205909 8.677658197306037
Ni 10.273775394888386 14.45756535448534 8.46134938740087
Ni 8.888970184496669 11.635432205918203 14.56262792652588
Ni 12.469727564601246 14.097304001255049 9.74993032206374
Ni 7.44375878577558 13.22696824416513 13.62737044153291
Ni 9.333730601096663 9.589515637324743 13.389196500660256
Ni 13.716091072057466 8.553783387513317 12.766075219100056
Ni 15.29704135662129 10.984273480443953 9.100824143960228
Ni 7.952959020699457 13.163189311052648 11.293541415849681
Ni 12.013023884369314 13.438725704865146 7.26616956336377
Ni 10.43331468266883 10.050131364351687 15.440254116616892
Ni 9.670178077264623 13.122833890394189 12.904939317959037
Ni 10.14250144025095 14.010579637468037 10.763378143153707
Ni 13.745560454521941 12.092065292895906 10.551654229357299
Ni 11.798450843868467 12.670409420291975 11.706807757099202
Ni 14.420011968438384 9.797851210345053 10.870175636422704
Ni 13.223336260317007 10.932588412815061 12.565598874493206
Ni 12.587237432630697 9.74474156260639 14.510729249299391
Ni 11.090064622452537 11.365982772709701 13.584845141009106
