41
Energy = -179.86700197 eV
Ni 8.550948034862396 10.301491674270629 6.435680987700589
Ni 6.955648916956616 10.908340437459028 8.22069879370802
Ni 10.373432512697924 11.933623627201916 6.105971296496747
Ni 9.371690172968735 8.091942620583609 6.6240033561003795
Ni 11.062240658974344 9.72668760584221 6.288569026076923
Ni 8.576932854426587 12.469770571470294 7.356594069423342
Ni 7.537954180020884 8.644834568618771 8.102915912984095
Ni 6.934291107816273 13.355565718629146 8.754364107425202
Ni 9.193510852278795 14.009582932898685 9.066667417951859
Ni 6.181342908806882 9.41292286165985 10.069709126330713
Ni 9.840194684999894 9.870146990954815 8.281509640048933
Ni 5.957270334565227 11.829994003804176 10.152763552842643
Ni 12.534212764411794 11.50720326170711 6.839350469798787
Ni 9.427700081822977 7.332433841120305 8.832668473624517
Ni 7.392905666598107 7.228934067502373 10.174375801711925
Ni 11.480784946992406 7.86788299252202 7.731327684396809
Ni 8.430399530234675 9.45318884458384 10.114451253955012
Ni 10.779189012219495 12.17536410385538 8.451764993017342
Ni 7.805703095245372 13.332331564105948 11.051474944051405
Ni 13.296955691300052 9.20242582032934 6.987005836241899
Ni 8.599966668904047 11.760871563107077 9.624347329046246
Ni 12.288194129224358 10.266227577164804 8.752950887752059
Ni 9.442078854841766 7.790042917340571 11.304357719625635
Ni 7.398825759308957 10.95286971630499 11.683464834507605
Ni 9.344012192775248 5.6223411642843875 10.405970077746803
Ni 11.210905244353937 8.51659213877924 9.989167413649373
Ni 10.330318286294531 13.018750013058332 10.833236031317611
Ni 8.132266742253009 6.199393501629179 12.337361305848408
Ni 12.407760705757992 12.046973194598447 10.317827250534224
Ni 10.498469291188412 10.650825601841282 10.551359178363398
Ni 11.550430034356028 6.274953620344675 9.704890402216511
Ni 7.3737033502644636 8.57849969966666 12.174568322882715
Ni 13.348799047688923 8.08280188317734 9.160274795083463
Ni 9.335397747792088 9.91980926255967 12.63893090290244
Ni 10.92103589412716 6.331579759750486 12.144667513197481
Ni 9.413720710916408 7.754551346538661 13.602158701292794
Ni 12.907217764763846 9.809339076321484 11.038828895139869
Ni 9.16737941731408 12.200920652723736 12.634329637039322
Ni 12.927897171908864 7.366848685044902 11.356539257295745
Ni 11.430310090777358 11.260718334723776 12.488800474276655
Ni 11.360021925065238 8.745431862366805 12.450641963609803
