40
Energy = -174.53939174 eV
Ni 11.691710212214769 6.138131758455101 7.208203037257693
Ni 5.3627359828604835 10.290248968501416 10.92028644006428
Ni 5.6021683264359 8.961844323526758 5.025481140923692
Ni 7.790525564503183 6.501686826831356 7.142509919026693
Ni 7.8956412647452385 10.703255202670379 7.781148511680936
Ni 7.85557835322522 10.257324766877986 10.355876657680948
Ni 9.632447977702538 11.449649717959698 9.223824827424218
Ni 10.647588895417151 9.494496647718199 10.821584673280434
Ni 10.056131401701677 8.930860884009402 4.866211504178013
Ni 9.500983586821706 9.196272170791127 8.924357892413308
Ni 9.835748293069567 6.941464598836345 8.222566210051305
Ni 11.704236689087042 7.833047432685963 9.290306595562603
Ni 7.889252934047921 6.444142392419703 11.670607322129683
Ni 10.027224158163754 10.634230696792777 6.8173364746367655
Ni 4.156947139710006 10.36252161631883 8.795750063825388
Ni 9.392218741038626 4.771189683662073 7.403032132825544
Ni 8.452996577716588 5.325523489028485 9.572448290852083
Ni 9.77374704730525 6.507499030347468 5.677006009723107
Ni 7.799251729058665 5.149613367673035 5.387287799456685
Ni 6.222409767360581 11.66248004407573 9.098657240388322
Ni 6.79371207908343 4.702469936220192 8.037703751281924
Ni 6.466021942143289 8.231367908873741 11.194364389263255
Ni 6.1920613652462375 9.340756151246733 8.988614999038589
Ni 7.765558033805815 7.61242371170017 9.320322933812871
Ni 5.5664054842277855 6.778370267649818 8.077829863936268
Ni 8.96777381042177 8.547747769665692 6.764915815216028
Ni 11.623960479026966 10.197269973276399 8.674861163285982
Ni 4.507999061311545 8.020457071128169 9.749550385678269
Ni 11.341554325186998 8.581092009866433 7.002554363184779
Ni 5.65075500779411 10.657673698471154 6.874737939433086
Ni 7.787727225148071 7.66379324509791 4.876950680401255
Ni 4.373843688460927 8.569536412962528 7.18498358632675
Ni 8.689965895188799 8.683399412159444 11.878821202039678
Ni 6.177284505510064 5.9700350100649455 10.096865414389038
Ni 7.802176312160132 10.095966797551249 5.416080738926278
Ni 9.866223682268332 7.146283842627805 10.598963061884682
Ni 6.701190615129855 8.563714942791014 6.912524157969797
Ni 5.812056689755955 6.592228014628557 5.763777752934228
Ni 11.864722327325614 7.329321756844261 5.168551994939308
Ni 10.92608524724452 5.3272308666182395 9.379165481302326
