45
Energy = -198.03755241 eV
Ni 10.58724372141951 7.97351717972405 8.17255686990472
Ni 13.47184104317315 7.277700445471299 10.973977782675501
Ni 9.492783059461939 5.983489664607142 8.668188295886695
Ni 9.284096873002623 7.6795249239223855 10.316691985555293
Ni 12.703305309407401 8.41511262817501 9.091037262260652
Ni 14.735984550109057 9.156594776497807 10.073208965354478
Ni 11.324610794169104 7.815937864650028 11.941178546075314
Ni 14.507974175519903 11.299784855485562 11.417726488155392
Ni 9.309268329749765 9.831229466374333 8.484332006929023
Ni 15.319134581585052 11.22681052704048 9.063040180410683
Ni 10.95767987876721 9.501642177948101 10.358911516828838
Ni 13.03689202475286 10.81193157948324 9.576661843087152
Ni 6.875535333970935 8.563381603922478 10.091086857853625
Ni 13.022760669770712 9.449169402996906 11.715264866510473
Ni 10.950702762442143 10.125296399054713 12.855220550055314
Ni 9.226792473575378 8.532273942384764 12.606131777852235
Ni 7.471026033105075 7.199473176373697 11.89519111808528
Ni 8.76874339451802 11.994073616850287 7.777451042215867
Ni 13.067405474931823 11.220398230512851 13.328147621884428
Ni 8.589313807089503 10.04073124512147 10.824255359091264
Ni 11.42266811672878 6.621264934725376 9.915380850333513
Ni 7.432580089015324 6.294678363670547 9.743602796058212
Ni 11.10751795535726 12.615989795837372 13.457336186253276
Ni 14.020986463498447 9.774016524792149 7.715753554590317
Ni 11.915400259501371 11.675244321724957 11.345221110165486
Ni 10.377416387001265 11.645063685306049 9.52685873015126
Ni 14.197741377991061 13.063924967354035 9.939705077237443
Ni 8.079280566090395 7.914511519375699 8.138943294930863
Ni 8.692925885404778 13.018512571993886 13.767389992620567
Ni 7.086913255074503 10.308132715267456 8.468988809592402
Ni 8.740596840612483 10.64613599441847 13.557107941242922
Ni 9.580130477026445 11.96181961878686 11.788796949762869
Ni 13.19301133039364 13.347324532998565 12.126861815361233
Ni 13.368949241924197 12.107238230200535 7.73299915705907
Ni 6.972714416496479 9.478936431617353 12.418631019700433
Ni 11.564827575766783 10.222082945393389 7.850469437255769
Ni 10.063348810744658 14.77429273221564 13.272888960532159
Ni 7.2425408176720865 11.928433813071738 12.245352835750795
Ni 6.134612957033202 10.739952596901466 10.565480107949819
Ni 11.03396143718483 12.610726128321854 7.468502627149639
Ni 7.904481020971638 12.202792202852443 9.938222533196486
Ni 12.034820902300174 13.339995355110938 9.40285071218399
Ni 9.61563411082488 13.79788101344592 9.300577080138904
Ni 10.925525564405927 13.920712331768803 11.338040273750906
Ni 8.536788457710704 13.999006504212602 11.53574136265122
