42
Energy = -183.96756653 eV
Ni 13.266302327786386 7.595971634228771 6.292570234340166
Ni 11.05979512925409 8.125149196777373 6.611843816115514
Ni 8.765565297840233 8.575065087697821 6.706249899737943
Ni 6.423892976807441 9.166363813036892 6.818243301948584
Ni 10.382432352069271 10.31004247343982 7.208156398653938
Ni 12.765273184873934 9.919094607127798 6.777485280759709
Ni 8.079679662589683 10.58062440418977 7.680911924262772
Ni 14.148500259263049 8.408662601477591 8.281254617183587
Ni 12.172014731614622 6.765715073308035 8.263425277131985
Ni 5.874605604288027 10.771693846500913 8.570165485749659
Ni 9.782050082433555 7.3905908899515245 8.524364028387431
Ni 7.595488078838958 8.42141403592266 8.742313898301862
Ni 5.245663359983722 8.553957528676483 8.805803812531693
Ni 11.97559131924869 9.00535913857927 8.698348004757694
Ni 9.552699546342568 11.90681400772212 8.937198700155314
Ni 11.839301018562587 11.421918614044799 8.715188718985907
Ni 9.75684176910801 9.570867350711147 9.420859355835645
Ni 7.580807208551938 10.540439898152437 10.1626652476296
Ni 7.294313443318909 12.628713000997495 8.65195922155565
Ni 14.078020108330682 10.80372517458141 8.551571435682417
Ni 13.443032366318103 7.178248884298131 10.209463265389163
Ni 11.14296115493772 7.636233238306592 10.445053647516039
Ni 4.6524727417095395 10.168475138882952 10.44648433296458
Ni 11.038856270394595 12.803079359113042 10.546315805799901
Ni 13.29699245344288 11.832401993695782 10.589639680775598
Ni 8.741787505803636 7.931774225066907 10.759536010310798
Ni 8.43711015194732 13.058511321780816 10.656683775450706
Ni 6.081552572598267 12.151875648970089 10.690371800105742
Ni 13.993550906151363 9.439640450827198 10.43100544136224
Ni 6.4150105966192905 8.671612237796989 10.879903228737431
Ni 11.772011829306875 10.09563815396721 10.83828483483219
Ni 9.62592928391988 11.08718102722092 11.316902737873686
Ni 5.857152582580277 10.457824719177298 12.40116065002379
Ni 12.678037671821755 8.313961160787365 12.164722652985054
Ni 10.310176594897118 8.914781925469422 12.301134573826225
Ni 8.047807997404654 9.527044187815802 12.399952205728855
Ni 7.6923918954192345 11.87070677341056 12.55067692542252
Ni 9.740529179665728 13.061500508258138 12.647300881368848
Ni 11.678606812650836 11.710547536285778 12.591791700577131
Ni 13.623657573782035 10.448956438792042 12.541795259387646
Ni 9.66619939981578 10.821807321624618 13.666757357587025
Ni 11.81199803950497 9.742678413126821 13.891147614065789
