48
Energy = -212.32447909 eV
Ni 9.13530690361817 9.697085201658478 4.669278869080516
Ni 8.122219775702497 7.562727879654111 5.041034167416909
Ni 6.76599924117007 9.418125646727043 5.41885997184773
Ni 7.955471379598505 11.30313183474027 6.235397677001439
Ni 10.960190655063192 10.06971350036941 6.2518447295648025
Ni 10.478277280579428 7.84897151203781 5.70519220684761
Ni 11.311717070155945 12.398675113445066 7.122010059459641
Ni 9.436652221384525 4.52382660630868 7.743826786380383
Ni 8.65691416854544 9.114509798893513 6.8199760050163585
Ni 12.48330016344336 8.21986105139395 7.26302289799971
Ni 8.978980397943284 13.172515541853423 7.1522716140281775
Ni 7.164689008485439 5.224832446159717 7.524823024424081
Ni 6.641462240159384 7.616161411827232 7.0656704091625295
Ni 7.009276129623229 12.224503848778207 8.300568260179679
Ni 10.608423159849016 14.228852018689118 8.464729152517332
Ni 8.857839980178133 6.695200952187324 7.061641074750314
Ni 10.98803057897997 4.544090625961358 9.480022541419585
Ni 12.136962503563668 10.469901396643051 8.240901925240449
Ni 10.456738428474884 8.433307337725351 8.189030352543364
Ni 9.632363770347741 11.059804781125015 7.925749973764522
Ni 6.600411855240949 9.965562841340772 7.76953114797195
Ni 11.144896708521978 6.11718328646284 7.174139502448834
Ni 8.124137915801805 4.843367516121978 9.721870274309346
Ni 11.20985810942953 12.269400079808454 9.534057986277423
Ni 6.501524073350973 6.562231009789324 9.301403951088744
Ni 5.163280982585444 8.477747838700555 8.758675642497751
Ni 8.137495959336286 8.22936492187756 8.973291480717059
Ni 9.689986002369736 6.414170830796427 9.257850912158322
Ni 12.10684292340545 6.6321360734545545 9.180445429902603
Ni 12.59592947918716 8.804200030045605 9.766712455397556
Ni 8.99264413955013 12.875580072994513 9.496366164284339
Ni 10.496668088043727 9.965095856396232 9.931642829750558
Ni 8.059104090719448 10.568300082663459 9.634304229320426
Ni 5.7007083135878265 10.703691153001987 9.908477525325386
Ni 6.4671871237432335 8.537293700537433 10.633445810259992
Ni 10.8370126098669 7.6681644432749865 10.882628378645164
Ni 12.360063303908833 10.835158852242289 10.951402845503052
Ni 8.013081908098329 6.757771107636288 11.176628703224807
Ni 7.100925126696366 12.495077318477138 10.729716479460697
Ni 9.990042849268136 5.533691020690335 11.435267490424232
Ni 8.804195731913184 8.990225700569768 11.219295596420343
Ni 5.073535830856556 9.653876795775812 12.032368684126954
Ni 9.42690679668516 11.428466860740498 11.486026227851639
Ni 7.157277989668077 10.58061510669769 11.985586734054127
Ni 10.945842857910382 9.566834051433196 12.293814074782311
Ni 7.14623554149011 8.345743291557818 12.869973568925024
Ni 9.525357004884098 7.542493562914864 12.893004024166942
Ni 8.923197487785547 9.885923948590351 13.401386012831559
