49
Energy = -218.2084044 eV
Ni 6.9180287485340815 9.799594088962237 5.522049079635753
Ni 9.147790752165456 8.982574206212988 6.257798756579483
Ni 8.642450804381774 11.262234207124715 5.643597918717851
Ni 7.158919643430558 7.867531550659721 6.826044665759717
Ni 10.827390792717283 10.67867824841561 6.2445423122620625
Ni 11.11422825640779 8.431889411155604 7.436880567309367
Ni 5.418159290397806 9.567027511327623 7.240280097467403
Ni 9.322857050233715 6.709374534759083 7.199853505730718
Ni 6.610758738143883 11.85020058348525 7.120191754950272
Ni 12.663432798759008 10.260376584996994 7.631148954667602
Ni 7.737109247402654 10.052826570592426 7.811544558858221
Ni 9.01529036236513 12.272495323926583 7.63433222862796
Ni 7.074318699779052 6.18755689140469 8.37549412306491
Ni 11.379130149176815 12.298563498966114 7.965038433505407
Ni 10.02887439619289 10.265437670460239 8.40501533865785
Ni 6.376286861762922 8.377831801464133 9.044186488553782
Ni 12.679851281522721 8.55804022199562 9.33392974574112
Ni 13.66164976161571 12.16217614756421 8.690602407638092
Ni 9.025864182742286 5.5880292483981435 9.378854507298291
Ni 11.007458366058042 6.809738742986487 9.135543226848998
Ni 5.866202213058353 10.668715807834623 9.243377607539973
Ni 14.495739088630637 10.007328338108127 9.145626462835848
Ni 8.775036744348409 8.086309013695113 8.896220101917995
Ni 7.487342190966496 12.36055956190333 9.383082742749597
Ni 13.86257339960779 11.395589573534416 10.959530611466041
Ni 9.866532875768225 6.727801073638036 11.233173048758646
Ni 11.892192029465425 10.823989531889591 9.792484601797014
Ni 6.194652086715497 11.669336512605458 11.302855098455252
Ni 12.154010524078322 13.100237573795283 10.25489691300708
Ni 8.352189602822548 12.523447202598472 11.626652770533362
Ni 8.253140172513683 10.253998501936154 10.211788312973312
Ni 9.896699652119452 12.273649586331807 9.889206299687427
Ni 7.513731757576545 7.044317896822669 10.6130336319411
Ni 10.44706134712101 8.861824704431896 10.340815234313778
Ni 10.420252405711837 13.562689312365666 11.821991603463418
Ni 10.046326354410294 10.665095121567898 11.83032992731752
Ni 14.287776732406593 8.901837702599911 11.229121763632046
Ni 12.234635886296196 7.282498870221795 11.261992594484875
Ni 12.223587359470384 9.638005285310934 11.737134257500209
Ni 6.401896704423679 9.247993840042195 11.248906390290879
Ni 12.003639479900063 11.984990881923167 12.394218481801014
Ni 7.713308103216392 10.648928329939567 12.759400021702008
Ni 8.582236734013929 8.581018540176762 12.016571172387685
Ni 9.792936652030182 11.992108400000502 13.623714253036653
Ni 10.737696234750379 8.197987835866707 12.890552839021163
Ni 13.853730134305907 10.526159894218118 13.158609883768074
Ni 13.116942508290105 8.271199966092398 13.361823821082899
Ni 9.297916328780117 9.642448685754546 14.089468626977148
Ni 11.563532373541435 10.22112327006567 13.929860113811879
