48
Energy = -213.18786112 eV
Ni 13.77565589460516 13.771072582220356 10.704609915145117
Ni 12.272782070051665 12.96902575345881 12.252973788035316
Ni 11.110535630522637 12.424774246474517 14.196099122026569
Ni 12.745084293751793 10.823834650861524 13.272304248773505
Ni 10.164196484303396 14.075226819034961 12.741646493946366
Ni 14.04512825581092 11.469531469237916 11.412529340486456
Ni 11.613547626196645 14.776717196004208 10.76357933331551
Ni 8.831824417956664 12.10534270369083 13.412759356335359
Ni 8.097747886947671 13.598336263309411 11.676900481011678
Ni 10.564773211277135 10.127474032728433 14.243066122399688
Ni 9.322279373778326 15.35123977733036 10.802233231052844
Ni 14.075250698808436 9.098562661952633 11.991336012463355
Ni 12.044018947891976 11.652371926945996 10.21575141701405
Ni 14.35842087211522 12.170984818429488 9.132588898231802
Ni 10.10759107767753 14.378647334515428 8.825263374660183
Ni 12.345968422249184 8.567675669668334 13.638187482841982
Ni 10.550120151502316 11.2004027385103 12.184876670022753
Ni 13.673877262918824 9.919463166174317 9.633937054654162
Ni 11.97713414947448 9.503231945142469 11.40601539362028
Ni 8.617604826718997 9.78808181642882 12.85907536160658
Ni 10.142978240646787 12.990364377976372 10.695062480693387
Ni 12.363854570933457 13.51890011053103 8.816160963067889
Ni 10.121421955898406 7.955767220207109 13.422988241517825
Ni 7.51599255522235 11.395186187231133 11.424621608950853
Ni 11.834160317860091 7.17231094688272 11.799137605126672
Ni 12.622970734638221 11.276251883585008 7.875201357297632
Ni 9.790824740627624 8.539052029851904 11.166771732679823
Ni 9.350298828864767 10.746403038891952 10.164029108791391
Ni 10.456697275407763 12.079210666217824 8.367270681311714
Ni 11.199799589256818 9.60970857336945 9.14186487023531
Ni 12.612688768007859 7.788594850370034 9.642079550965882
Ni 8.221307774727128 12.676735349723119 9.325043918423193
Ni 7.92350121029812 7.511438700114278 12.599367395548466
Ni 7.4304442323094 9.062172638021918 10.89616952612585
Ni 12.896585433214211 8.973990644982491 7.542079341383604
Ni 9.71023752381179 6.153951670148043 11.91111642996187
Ni 10.452766972662147 6.787121460301793 9.744586557222783
Ni 6.987460438101538 10.576823002758106 9.203902368415704
Ni 10.785770808818327 10.097958003831188 6.90222430414652
Ni 8.886891287794569 8.781540146360687 8.866801655189557
Ni 8.64361317014862 10.887397237230727 7.611466855745969
Ni 8.12519895340264 6.871226255911362 10.286126869844587
Ni 10.887379553989849 7.763943110865505 7.663152109693215
Ni 6.694356030244551 8.098910629692313 8.788065950176735
Ni 8.732235513974622 6.655783571943782 7.988569620866461
Ni 8.903862958289306 8.67889906898554 6.553869724501443
Ni 6.780223213940095 9.60351408259817 7.005652579684201
Ni 6.980553059861716 7.322464236809646 6.578500762299695
