49
Energy = -216.52193504 eV
Ni 14.481563631459418 12.900440426582119 8.460459250774948
Ni 12.399491930413584 9.88304479898377 10.334043128816614
Ni 12.5366829256184 11.786304403310083 8.998362722435084
Ni 12.490827436339735 14.22422823838146 8.41889956907276
Ni 10.557671419565487 13.044999021064836 9.029270117856697
Ni 10.421499114980229 10.588957293088367 9.223819660916627
Ni 14.740041604735099 15.03808576027855 9.516228878289171
Ni 13.19234749198317 13.692965982191136 10.546848451874052
Ni 15.493276989071493 12.952340767265666 10.525491534546548
Ni 12.61216472150134 16.01491274002678 9.935797565316125
Ni 14.216409287231167 9.269832480708965 11.723525826290533
Ni 11.366648092106011 16.868496168158007 11.714500722960974
Ni 11.087422649222352 11.900224494351853 10.96244103898177
Ni 10.954999905695617 14.541333401801536 10.848367461239949
Ni 14.638323223153455 10.745930276243067 9.744300147494549
Ni 13.627338911113165 11.645767872192744 11.548209394380672
Ni 12.271639494262358 10.337424816286985 12.826391226803883
Ni 16.92712551218475 13.148013051848276 12.332749557863838
Ni 11.980751390397522 8.14765567163453 11.84493247422958
Ni 10.264398319117216 9.803783668413782 11.614911698812797
Ni 15.533423282402252 15.075961911744018 11.811184436423591
Ni 15.839144069825803 11.065037341923762 11.98100644872774
Ni 11.958742006541447 13.143307550952379 12.604449553919872
Ni 14.570085928593933 15.822279132865342 14.019982183788576
Ni 13.135157839036527 15.45343559968861 12.181400051592108
Ni 14.468917736266025 10.330165420315547 13.858896805855956
Ni 10.837244823437711 8.835156336222385 13.832815763751732
Ni 9.618503487469667 13.083305349120865 12.412865267889632
Ni 8.871705258563033 11.977595394857651 15.429812166765021
Ni 10.65224754499617 15.187317792793255 13.143723342431501
Ni 14.396167416768913 13.429938329366998 12.950116066618914
Ni 12.233913877216239 16.808383104370073 14.028506458318846
Ni 15.949235824305799 12.067212175000291 14.190111442759253
Ni 13.261625991211217 8.272479032070555 13.771167644694954
Ni 12.91301537354938 12.10551585829325 14.471469877347666
Ni 13.31453171719887 15.816500312343123 16.142362275614957
Ni 10.311471116998554 11.164025174285065 13.70604126493924
Ni 16.428073395399196 14.430125708829397 14.179679088485218
Ni 14.49804024645231 11.493180608244462 16.0624864442757
Ni 10.511204522090361 13.370782673752226 14.600447910154326
Ni 12.646901229798145 14.492321095767798 14.3501140284367
Ni 14.557914142695667 13.82235750111893 15.504611389771108
Ni 16.518256637104063 12.942033704228736 16.209919877981818
Ni 10.985731784037684 15.442722675311604 15.749716919751895
Ni 12.535224733621506 9.936970589024376 15.264717384619447
Ni 12.414278049761196 13.442992112829732 16.47697470276097
Ni 11.799767788927436 17.54801589790281 16.152557708116
Ni 11.066882762675899 11.510042280942455 16.040641120149967
Ni 10.042519128232957 13.526649768351708 16.853223710430463
