42
Energy = -183.85063861 eV
Ni 7.8573083119219875 14.269207488152508 9.922495267105305
Ni 8.260482874515263 12.061686075352997 13.153295782707348
Ni 6.786498819661618 12.68957907457024 11.364379585426738
Ni 9.656163626126263 10.170500418576026 13.086118804905976
Ni 10.813154524294026 8.881069222946648 14.595061922758738
Ni 7.617145624146086 10.324378968061284 11.768658778077441
Ni 5.97116900031658 10.773984873898035 10.166329367468617
Ni 8.592287117675948 8.18414685365274 12.071360629213842
Ni 8.875873487828747 14.04842378335146 12.016824091221928
Ni 8.977139477123764 13.752152589237259 7.954263031926042
Ni 11.260049671695919 14.483706592557823 11.963351568590832
Ni 11.829773055808039 10.984709365761262 14.036435168900372
Ni 6.704325768178179 8.513590608670938 10.629792640323386
Ni 10.479122124846 12.318645990064736 12.445506597755507
Ni 8.863861333010359 12.075210795950035 10.636926977177799
Ni 7.27308622516817 12.269020115111026 8.869454226513625
Ni 10.89682175248752 8.169104823185842 12.377267688609264
Ni 9.915041956974624 9.864106621580953 10.658777652998968
Ni 7.970603334811619 9.953498241309209 9.262216973791249
Ni 8.830279921283353 7.7747422807237445 9.801627376367833
Ni 12.727853087744688 12.727126694289419 12.448252146074912
Ni 11.919075861841266 10.310946168898825 11.845056433639785
Ni 10.220883603312537 14.051675780720752 9.943217932780719
Ni 9.506220300899772 11.54421356269962 8.388433851606461
Ni 10.013680820895681 6.329052167118688 11.322506939831001
Ni 12.754112212502944 7.062717007060754 11.540602457850317
Ni 12.64894729368609 13.679730031539535 10.109658977777574
Ni 11.257133762369293 11.87659518399909 10.118264377521248
Ni 12.868475225596814 8.801232757662113 13.45361261306553
Ni 10.131676862152123 9.2311883972196 8.376400118385341
Ni 14.026813365741447 10.807441363022837 12.966150821377859
Ni 11.33827133031352 13.144340349858892 8.071534192264814
Ni 11.20050321183919 7.829845344944058 10.005133341886525
Ni 13.94712391690987 9.074689618602717 11.318822990380706
Ni 13.347339764155077 11.874673273754961 8.434791437669002
Ni 11.510555675317532 10.885368942626199 7.398722047383028
Ni 13.71382555144564 11.57165389942194 10.699720335331484
Ni 12.250002489886224 9.858934857505647 9.420351825384557
Ni 15.727032712555735 10.606028669415787 11.3174091433511
Ni 13.49891460739836 7.887463234164032 9.342117965444904
Ni 13.385124115877026 9.468022854737857 7.453324264290653
Ni 14.734891992195761 10.006861131424488 9.258405953833911
