41
Energy = -180.04370097 eV
Ni 7.0431800767700095 8.165427691907617 4.5944838410299065
Ni 7.342842193763517 10.583802038534355 4.942128506943579
Ni 11.278363748715273 9.803639616135662 5.352882134789925
Ni 5.69656552203472 9.416625134461187 6.041348756649101
Ni 8.451352186920635 6.801583339557858 5.959553030574666
Ni 5.98888903714898 6.527806501569558 5.949663776090442
Ni 9.007570020547115 9.02769044499649 5.408351686661318
Ni 10.715130824366788 7.648494861133185 6.349690000703158
Ni 10.20115554639898 9.706017720991937 7.385128124363324
Ni 7.752127266417152 10.181137345426551 7.296774602174367
Ni 12.438861378862201 9.266092399576983 7.468137547220682
Ni 8.908615428281534 7.809381599951591 8.10181591710199
Ni 9.411927234028303 11.353748905510498 5.818631004720663
Ni 4.2854446913989594 8.101057048579971 7.370489770767039
Ni 7.521621861113681 5.663030678260524 7.781963623188232
Ni 9.95862433691616 5.775498498574272 7.66096559369757
Ni 5.510474950984452 10.039004866023738 8.334020788447178
Ni 5.181137160109744 6.114286599249373 8.233488409606137
Ni 9.223971585090867 9.877397785765558 9.445957209691882
Ni 11.54855261786606 11.556368646897726 6.961608443425369
Ni 6.600297567882989 7.942103096434287 7.553719212935353
Ni 9.401458715316513 11.875962473189265 8.157115884288043
Ni 10.971155655930746 6.193824464683746 9.80050603723554
Ni 11.368141603936404 10.902340004955647 9.270681502585736
Ni 12.19642678201508 6.92067785765293 7.983221705610141
Ni 11.197604848945558 8.507532164833881 9.38353276218935
Ni 4.9699341345865 8.102684631168932 9.711417496585488
Ni 8.791761001117207 5.3419248198121965 9.795219171802893
Ni 7.339925368398539 11.33529500361947 9.434316992212961
Ni 10.434118299874806 9.812438872929176 11.399763314829633
Ni 6.808254223733611 6.58956938360209 9.83919452749015
Ni 7.1777339192800085 8.921223299754244 9.598641595364832
Ni 5.666519516247833 10.180119612819311 10.782024674564134
Ni 9.096805847007877 7.623535507429624 10.493413411611067
Ni 9.477111451503266 11.873017474149512 10.571452371395937
Ni 11.302953033642877 7.701445376056135 11.65168715591414
Ni 9.98484808017221 5.831571932339498 11.914199576395076
Ni 6.63791871488483 8.17317033014071 11.728933609222246
Ni 7.727699360130256 6.130063835771443 11.918712891764397
Ni 8.034627009332748 10.114578250140147 11.538767884410808
Ni 8.999066323805915 8.159599010894395 12.66716457922584
