49
Energy = -217.58663712 eV
Ni 12.36526736839303 12.748968260670761 7.858607458519283
Ni 10.334487087218047 11.668342241331207 8.513693560170172
Ni 15.420713383636707 9.368735592316572 8.983156786138965
Ni 12.62481064352638 15.06244757049823 8.584256299451177
Ni 13.989014151335102 11.119631002588793 8.758623521130232
Ni 10.889993368291321 13.884097758116194 9.551584403534626
Ni 11.983154365733927 9.792940061004433 9.008727964821256
Ni 11.60845350704308 15.922957317047372 10.669539022929058
Ni 13.802565376348284 9.508543540043 10.592984018842989
Ni 14.161069191194779 13.47558523205034 9.202959712500034
Ni 12.046936070760028 11.874464077377107 10.026561833788778
Ni 9.21746237364657 12.530441285681489 10.447080469462307
Ni 10.224753738177537 10.363771046534445 10.534460174967593
Ni 14.200850060439745 15.640883752572496 10.277909556572398
Ni 16.074065113780073 10.682236859381826 10.757111128006008
Ni 12.787621139376512 13.939823202737793 11.073588391713612
Ni 16.031978496405923 13.167918018822785 10.512982403751575
Ni 14.174763550997822 11.916566739127344 11.038742450262985
Ni 9.419523092390929 8.665158676652888 12.022821762433061
Ni 9.894603674747517 14.57491431244441 11.650325983672271
Ni 11.64798999976125 8.560598978921265 11.116630113880484
Ni 13.228309283864075 16.232185517244947 12.34801390925674
Ni 12.294663692991763 10.610546899338981 12.21474764361638
Ni 8.123405209687224 10.67914296661739 11.570267323213276
Ni 12.204353133084473 14.393341789822264 13.337997555409727
Ni 8.66338713226959 12.681922008438647 12.728059842023645
Ni 11.029129631238169 12.619084212953219 12.035881137324214
Ni 14.85047370186986 14.382475993777561 12.225329402432793
Ni 13.639926064100099 12.490720897765497 13.232760163040718
Ni 10.003644437425548 10.666606738524518 13.067453352852903
Ni 13.444890481093683 8.390909362521404 12.711062556686551
Ni 9.99880513637291 14.150829788521959 14.083738744814024
Ni 14.757071520972296 10.32087849480743 12.804970096988965
Ni 13.002500180987433 10.025492937056658 14.435331451085625
Ni 11.27305462338675 8.627427631483593 13.535615492181488
Ni 10.905139212138167 16.22117010608639 13.062798905123397
Ni 15.404615070727138 13.777014925702174 14.444185162165398
Ni 15.988737864692697 12.275412176158882 12.709924436538028
Ni 11.55970012784685 12.103284983622286 14.29094757495885
Ni 7.8241398586952196 10.491843779269807 13.872610008768389
Ni 14.716766652824523 11.57843576195472 15.014924841660774
Ni 10.721327799089178 10.117268105455308 15.3361638226925
Ni 9.270100136526947 12.034061353940539 14.967102110840358
Ni 11.664568737250935 15.443342357236261 15.307997162719607
Ni 9.11149108526656 8.656590991514943 14.40869568324705
Ni 12.56136313605323 11.420769333901669 16.295657799725046
Ni 13.926777065932763 15.577315196367378 14.41711356171815
Ni 13.246979740373428 13.528612350668043 15.462654562302705
Ni 10.956227662230775 13.305911945523327 16.167272812259764
