40
Energy = -173.61099733 eV
Ni 13.41054396377307 8.411750120765236 7.480360198092087
Ni 13.918001533116355 7.340538986618453 9.628646540526216
Ni 11.155351416031944 8.840026356870101 6.854220641160614
Ni 10.791027776275516 10.980385967746697 5.8309765118482915
Ni 12.509491153483875 10.653631346689366 7.508062910155985
Ni 13.234447806577878 9.563174174232538 9.540896719447534
Ni 11.719139293388517 7.519535974314207 8.85046105065374
Ni 9.469050388666703 8.02618205813159 8.270528099748544
Ni 13.566553905871576 8.428357481509147 11.748650596969917
Ni 9.114915937749108 10.15924035486226 7.242981746591064
Ni 10.595766619467607 12.108385754190811 7.870394404540821
Ni 12.212175253819307 6.51073406890448 11.030875088995804
Ni 10.802303637708706 9.87033712153939 8.979986472487699
Ni 9.960663764496534 6.812677035437372 10.349716448532124
Ni 12.218849470548815 11.814000640207558 9.593104421349288
Ni 7.761191633738897 7.081719326170493 9.4445427879264
Ni 7.542335993549889 9.37374931134507 8.745128798596383
Ni 8.742986724856916 12.204178109050462 6.297893910498231
Ni 13.021829029058141 10.699689679302733 11.537202750900557
Ni 11.439757175951788 8.657267406010346 10.967887241029786
Ni 8.963358055455675 9.018282170688053 10.643934240069477
Ni 6.417703125607694 8.469107291795725 10.711738328542072
Ni 8.71386977835218 13.474477113439528 8.210412575633457
Ni 5.528680081194673 10.181835823692728 9.430053230799688
Ni 10.637216428405704 10.89539000400875 11.172054604014244
Ni 11.827021069764065 12.767215538360814 11.81112767756919
Ni 8.92813642807116 11.290901555238408 9.523792344429914
Ni 7.098679615465938 11.694629372139413 8.169207089544004
Ni 7.953345759998316 6.7470995910733995 11.691581170309815
Ni 10.259663817436252 13.19114180825818 10.047872969455868
Ni 9.918832117837118 7.902056398097267 12.570332659302904
Ni 11.623426067078872 9.618365800491379 13.136517768201088
Ni 7.801193021549046 13.209441499397967 10.288527515659688
Ni 12.962911312154914 11.582036782932965 13.63480384185554
Ni 7.230533582137267 10.786512307603108 11.139112121578911
Ni 9.231058617553476 10.188153606077577 12.91462287388212
Ni 10.687011867642186 11.798431281705911 13.622195232593755
Ni 5.747209689642448 12.330386507648239 10.051028289006908
Ni 9.021599178982191 12.348438192904574 12.012909604285579
Ni 7.557811285681298 8.764593224113199 12.667609017113751
