43
Energy = -188.06467697 eV
Ni 6.900200604214936 10.372921758755576 12.698664615632296
Ni 7.827242040964676 9.717090274313955 14.73351527371475
Ni 9.125316417760445 9.669829224577935 12.81523060729075
Ni 10.97302534531104 8.376767898467962 13.803614406353546
Ni 8.39031877407127 11.894848503169019 14.010158900397311
Ni 10.030425568480922 10.440946973467051 14.919672795370616
Ni 8.296034205343089 11.916627070320292 11.694743147343981
Ni 10.16240032448491 8.133457609712554 11.407131421590663
Ni 7.794372721313911 9.822143523646066 10.54183399651412
Ni 11.615044624515566 11.614637683353958 16.29525568698128
Ni 12.27517439346522 10.334691970935769 14.501539264407567
Ni 8.517299025693696 11.873985220703098 9.353621180527705
Ni 11.701377895620258 9.737842448804608 12.156241758007239
Ni 10.47220661745668 12.868374752074528 14.722582669415969
Ni 9.374826362671044 13.779620739134922 12.80015511854946
Ni 11.758711372725875 9.186807164140916 9.670660426064561
Ni 13.491305804005233 8.79758576992404 13.315109337156287
Ni 10.005338515004206 10.506313810019353 10.61945208695255
Ni 9.468839683807605 8.556549776049986 9.256846326027947
Ni 12.870768475787006 12.62166147213366 14.545728172040588
Ni 8.0686907184164 9.985934558048893 8.123074659937956
Ni 10.592243224618985 11.676746583193061 12.738408589843063
Ni 10.230310350996904 12.975602681112141 10.718951103358407
Ni 11.756716663604395 13.716669456925604 12.804274347651585
Ni 10.831132833812877 15.13689725790672 11.163725573431362
Ni 12.493283272837784 7.626989235893465 11.481654293365825
Ni 9.188201757144874 11.834258795807095 7.074666396117818
Ni 12.228661896666152 11.519520356306307 10.680926292008195
Ni 13.553347615843112 11.25403001261084 12.723298930212142
Ni 10.404408859855971 9.780452842486822 7.495570373764917
Ni 10.847351857061627 11.761402335437934 8.700854905365475
Ni 11.195788458612368 14.148891966890718 8.948666547147013
Ni 12.577738687539298 8.716652440150504 7.560379770450183
Ni 13.867779543765801 9.62594747954476 11.09773384537621
Ni 13.758667072498842 7.981034715238447 9.450350253023322
Ni 12.780254646602351 13.850646296217725 10.67389200499209
Ni 14.086733073454816 13.47254480746633 12.604209829216511
Ni 11.372957506781535 13.019686579031621 6.845414227413355
Ni 10.73838273652131 11.123709089421189 5.525556758971061
Ni 13.795342914482381 10.359263663893545 8.885761804746455
Ni 14.447270851364314 12.01596478527081 10.574812082230341
Ni 12.455481270856088 10.955927282483769 7.046091819965877
Ni 13.083641011926256 12.643138732918658 8.62458399903353
