47
Energy = -207.70528854 eV
Ni 7.2215873943404665 9.103839495125346 7.486790518937143
Ni 11.577977323502434 9.225306707640579 7.6269054242655345
Ni 10.433722038787979 5.678071026096607 8.647581424198657
Ni 9.534057394937921 10.157279981013785 4.38827952249146
Ni 5.718425814663681 9.295159119829222 5.804744394040486
Ni 8.861581479316046 6.652456595104678 4.483475095129261
Ni 9.507413152343632 9.955037292483867 6.684118308428112
Ni 10.312153142103169 8.099406331063003 5.6447423649199875
Ni 11.155971724073053 8.139659625949857 11.703689498666911
Ni 8.832369992992279 5.012072050081924 10.310162058530342
Ni 9.911796595245749 5.628629231114489 6.38699766877117
Ni 8.658226473868947 12.35384388392169 12.070320770168195
Ni 7.952092324243522 8.690624369493973 5.211780196487379
Ni 8.870513076302037 8.414047573622128 12.329190539120583
Ni 5.555198330158727 7.910552374332495 9.921064584362615
Ni 7.758165857065655 8.443930553296788 9.636815143952926
Ni 6.160748363258444 5.15051270538409 7.1430019695848594
Ni 7.93046467125584 6.825155594911136 6.952790985764627
Ni 9.8624990382459 11.974564776534105 10.08987794266911
Ni 6.1581959048032395 10.291437506295408 9.877456581116297
Ni 9.845167917739486 12.056938344231959 5.828413054094402
Ni 6.411928722291886 11.417502373276244 7.805091762581763
Ni 7.811255665004048 4.866696883746729 5.568948946404623
Ni 8.40146441945036 4.652001448602135 7.942408115359597
Ni 7.653800577001367 11.030583721370162 5.825695217252439
Ni 6.564950056405419 8.990236435096376 11.879230161364823
Ni 7.051193530657758 6.180239735829038 9.126111874113372
Ni 11.736754071559997 7.585747354050606 9.37155893001618
Ni 9.559975864976428 7.204099871959811 10.299602398542584
Ni 11.774557018266322 6.904035835755823 7.058000060149681
Ni 6.395760264455954 6.914386849819272 5.240963324008405
Ni 5.613430594864227 7.357020626887068 7.520891793080946
Ni 7.444035802843915 12.347850350458407 9.86152770719498
Ni 8.552242823210973 10.567416508216487 8.701430609860621
Ni 7.367869182156347 6.780938214380922 11.37425698764593
Ni 11.284425560134675 6.266417577890582 4.695044176048762
Ni 9.525842589687908 6.171727353188718 12.381253147771359
Ni 9.618893481121919 8.005175545548811 8.049091224617742
Ni 10.319519186658901 10.413647141276872 12.10217116331943
Ni 6.452185208425461 11.455039897434737 11.912193456463214
Ni 4.953303616359401 9.48411602448115 8.08661204986808
Ni 8.323285817942011 10.31032472707503 11.002798153963095
Ni 8.534824909039925 12.601386669974229 7.70331618220289
Ni 10.740204767984553 11.441897288122908 7.988811929858502
Ni 11.272557222636431 5.744734394676244 10.876953032871823
Ni 8.070050188941442 10.382233865415866 13.313506379412498
Ni 10.476605132386839 9.595262451652474 9.813577454041198
