42
Energy = -143.0175371 eV
Ni 24.86069018299011 15.304663225575256 17.844705236705988
Ni 12.237679812730635 17.444729890079035 20.633426373734736
Ni 17.68832963469156 21.961829670203382 22.686509870359327
Ni 13.939253999365302 17.976832956367637 22.230935889523167
Ni 16.53259681087888 19.592505274721066 12.246094979851978
Ni 24.169180744904036 13.768696646645974 19.16724382973087
Ni 13.97068112900824 15.05541533581017 14.437082528490944
Ni 15.828310681094816 20.7326703844146 22.97593558967955
Ni 11.402341927398778 15.375935962057035 21.051608986565956
Ni 19.451070058343003 17.999429088615187 23.037655397553475
Ni 10.093670145004147 17.03076938026113 20.375068649882948
Ni 16.309787984285773 14.691104039098667 14.361448910883338
Ni 15.577065762571355 21.54676571781331 11.54348884229433
Ni 14.291226840225784 20.185820355994363 12.807625703868789
Ni 22.1659738228555 15.699459193837544 14.54608926081409
Ni 17.255321109881038 20.638332163416536 10.446052070568395
Ni 12.572913187768517 18.784835905925007 13.001394599531645
Ni 14.095042257144364 17.48439374311769 14.133640377196315
Ni 15.613915679053886 16.352065632898178 22.62934649244962
Ni 12.153819252112543 16.35667735257732 13.681097067081524
Ni 13.594531176808886 15.785747678820993 21.71171010894354
Ni 19.314028920418846 19.35329628209045 24.71440602457028
Ni 11.979881155524208 18.15682676558616 15.077493203957111
Ni 15.315840808245348 16.044051222511992 12.783588672202765
Ni 0.07135587034414459 18.31289050597745 15.945193212127531
Ni 23.808050036610304 17.123698053270633 15.311862085044632
Ni 16.712333472800896 11.320548088093735 13.694767526231507
Ni 17.367585861542263 17.571631916417044 23.68097386258977
Ni 12.204655737244952 19.5202907337011 21.28832016558752
Ni 17.218825157113738 12.517472773257305 15.503757302156398
Ni 24.4452660894268 18.87058767437843 14.01794373167972
Ni 17.82829911973345 19.693973308972474 22.910316217138647
Ni 0.7130000397250958 20.118948102648584 14.681961987410862
Ni 23.152589279512046 15.372001650226014 16.522291909771
Ni 16.168152079401068 18.538648423867897 21.97317297360379
Ni 14.428187123798462 20.0562028508154 21.39007694063998
Ni 19.724346891918593 20.822407522986747 23.022520858289987
Ni 14.846995184020257 18.083327425396153 12.019527542436292
Ni 15.19594220688982 12.749779008773134 14.621677509885544
Ni 17.10141863709354 10.250202804596992 15.57539254328015
Ni 22.594730041868054 17.70805619478072 13.441351097993044
Ni 1.7534211785482718 19.644577900671077 16.629465488185662
