40
Energy = -174.59149364 eV
Ni 11.39248171937578 8.094837917759563 6.338132141401994
Ni 11.812815779847345 10.360370105845377 6.990691794304547
Ni 9.851388231825528 9.677002522057691 5.683825373202364
Ni 13.44867834133375 8.703934791651397 7.284965865963862
Ni 9.695374057146575 11.415248698362488 7.223365952252588
Ni 11.648540850859735 12.78952596321391 8.067644328853724
Ni 13.342408977176868 11.002198576538868 8.783045086120966
Ni 11.825116409881236 6.871025323134241 8.236398094962354
Ni 8.977750450892367 7.644284963944913 6.588330659587906
Ni 10.151383786302173 8.77700042745031 8.253966357956203
Ni 7.947217099654985 9.792839032661792 7.082470371271454
Ni 9.33326986415484 12.859516329255118 9.021711207401339
Ni 12.362568861240526 8.863084285975525 9.254488300031952
Ni 7.432673087999554 11.928832462112734 7.939031886754091
Ni 11.045335697620693 10.950553749726426 9.169335570226616
Ni 12.23355889896989 12.40099182865053 10.525983770598673
Ni 10.878438114005526 14.221630817990677 10.014221029845723
Ni 8.740564103543383 10.361747119275995 9.305403129510678
Ni 9.530840906839225 6.483773285907727 8.669427301707342
Ni 7.513864818965736 7.998331648461759 8.474061055473168
Ni 9.413414208764003 5.7142171662108625 10.9427856172852
Ni 12.877649434897986 10.164860848319877 11.039320315277335
Ni 11.111917884574089 7.251507040848313 10.514710538964502
Ni 9.762053882236952 11.757807453641867 11.113131713306947
Ni 7.368801516197224 6.089513341310385 9.787310979168327
Ni 8.783384538795332 8.010426112535947 10.409422490089268
Ni 6.47642107205178 10.063152483546695 9.193105722648607
Ni 7.393110917082433 12.13568578923606 10.312349157514799
Ni 8.781708578341847 13.882503519431102 11.160448409647742
Ni 11.692645373921058 8.797792312474913 12.690443676874393
Ni 10.850314536266833 13.446327043499744 12.24716708416511
Ni 11.50232484304245 11.199482676452895 12.590796534726735
Ni 10.525893146676577 9.489503900151286 10.879897329239096
Ni 9.64311801333746 7.58947400581298 12.529784618463601
Ni 7.568985496434397 6.481451765148377 12.117710017853122
Ni 8.11855163068131 12.036972299417904 12.675826025080681
Ni 7.683244054270755 10.097013628786286 11.397736346406612
Ni 6.497402473478891 8.152221064063774 10.749887356520972
Ni 9.492569415219144 9.983564861561565 12.97881016362951
Ni 7.531126479141335 8.581793880450254 13.086210230764081
