47
Energy = -207.75634046 eV
Ni 8.981175877925073 8.994550505228409 4.8877545743851325
Ni 6.603438831292068 9.464449253331416 5.028641019751142
Ni 9.70642797225037 6.617292249378249 4.784244958887302
Ni 7.499400869398206 7.198081929335281 5.71994153711941
Ni 11.2701155101436 8.468642467151902 5.395817656695874
Ni 8.254747512376511 11.178093138884051 5.788948914740118
Ni 5.680185449358767 8.3882274424127 7.040315973858224
Ni 10.157677023403881 10.116082509041014 6.809739576223304
Ni 13.275932212757832 7.776053474468407 6.348212157596925
Ni 9.567193914762724 7.663400910999036 6.7933354177100265
Ni 7.791074942726381 9.239804803824349 6.985075770392709
Ni 5.477085628690828 7.557175026092761 9.27284082489714
Ni 9.147036113882477 5.485188961450614 7.034858601795819
Ni 11.5948607590964 8.405668074577216 7.872504463596904
Ni 11.449519549769812 6.288779023355618 6.451667707035571
Ni 7.42621012408224 12.81945389267636 7.239864224788157
Ni 8.396783188977773 11.048929446976393 8.412158965892926
Ni 6.097734930364769 10.814147540871252 7.0166715194907745
Ni 10.152326973230165 12.356529323949093 7.939161281063465
Ni 12.953000113075184 6.575445762185027 8.313943318918424
Ni 11.078789718353601 10.405086586519488 9.053214042847955
Ni 4.804936397663823 9.883626517975637 8.791160117568168
Ni 7.510032469891673 7.056034112640957 8.137297076590897
Ni 9.252433942627816 8.796173523528818 8.70876090390264
Ni 9.480167666300181 6.332985007346135 9.33700607460485
Ni 8.351142914307054 13.177865035959012 9.35919836960518
Ni 4.072827096204388 8.77285648841265 10.724568119933332
Ni 11.135997632333286 5.0439072732358445 8.400581312343208
Ni 10.22403259309309 12.1758854959262 10.413092639582187
Ni 6.306166152437271 11.827520850976118 9.187753197378694
Ni 11.825129899066363 6.25252280251275 10.328393427147283
Ni 6.974129812231823 9.348624869415737 9.384977491090652
Ni 12.903873434383057 8.49162865584388 9.919228730886585
Ni 7.141773841948704 6.130963719697204 10.31705910936019
Ni 10.718673874060537 8.270526781834286 10.336247955986005
Ni 8.36445476592944 7.954074483373881 10.752778814508824
Ni 5.719244572374779 10.43786290101482 11.034145350746842
Ni 6.104311314759725 8.03393479757807 11.542869886865049
Ni 9.09674763557169 10.197582248396154 10.593695807439104
Ni 9.90424655318664 6.495076819846964 11.795130708761583
Ni 7.669934525437762 11.854836322671062 11.206496136096936
Ni 11.46934196247709 10.20891904308701 11.435717874775294
Ni 12.006611551533181 7.825321348447475 12.148550049641152
Ni 7.591339366496205 9.719459424853643 12.377051075919509
Ni 7.912104568003671 7.329175385907144 12.906516244591732
Ni 9.820300829195954 8.802042745133928 12.563945519696187
Ni 9.575424905722064 11.215608514831917 12.604962990445248
