44
Energy = -194.45198186 eV
Ni 14.615784899058768 10.111733564386123 9.664336456367051
Ni 14.103851700809502 8.69532968800674 7.808604901301276
Ni 12.956566630497154 10.712674879709967 7.948172469192965
Ni 14.226675119986947 7.763627120129494 9.987446349306422
Ni 12.840862965764497 11.589404123326622 10.24566738406861
Ni 13.411122948713647 9.41225610636962 11.67556705298982
Ni 11.89136120545397 12.719189476494549 8.429339102742775
Ni 11.98801655185138 8.844568717362032 6.650531238886806
Ni 12.40535972073802 9.24571657669015 9.646493148788911
Ni 10.802586176113222 10.96761855501961 7.015675458702235
Ni 12.430694506682153 7.145293352501389 8.460154213422403
Ni 11.399367536212416 10.710108373008019 11.798657884947165
Ni 12.151449200471603 7.198972585165873 10.93102229479579
Ni 10.576360322279697 10.828980249298388 9.372126207527856
Ni 9.645451045033512 12.905311910897263 8.069210199855602
Ni 11.563328692684378 8.446014542518284 12.835350973724516
Ni 10.526369948298273 12.868210297832515 10.49124264630158
Ni 10.565816949696194 6.848857817782961 7.005926078396597
Ni 10.493714758315903 8.687850603654516 8.37137030682513
Ni 9.47973098659061 9.01586636202146 6.370894796620873
Ni 10.299915066122288 8.75138775517523 10.780750662844916
Ni 10.332219403722842 6.569813439659482 9.49450448473095
Ni 8.443315089776986 10.965317862551405 7.303705282086971
Ni 9.880223000613723 6.820332636289608 11.879885309815457
Ni 10.51011473833724 12.555807209909856 12.85733852431097
Ni 10.888241629640858 10.480223063276474 14.024679572963677
Ni 8.359781630809907 11.798343933738495 9.642043959435547
Ni 8.428238143285068 14.112727549814718 9.761855075053825
Ni 7.13735408169671 9.041316582650662 7.14970498424993
Ni 8.47970740180419 7.380936670125707 8.08571801765961
Ni 8.470345967357074 9.492838529106255 9.275566820671692
Ni 8.096136236380385 6.389760691619547 10.171094646882928
Ni 7.214161929869006 12.970006007691392 7.998518118266606
Ni 9.019633355081583 10.62866963370206 11.528431525136389
Ni 8.428143496590947 12.938034125744213 11.810641873358733
Ni 9.32702172417827 8.931829058354538 13.193811769852523
Ni 7.951332771928815 8.30273449587864 11.360777351344273
Ni 6.399375179211817 10.774891516529284 8.59670261299857
Ni 8.668048996360193 11.295464974981122 13.672243984584346
Ni 6.401796528658703 12.69218502706475 10.336011625038521
Ni 6.564612296958799 8.253104703948539 9.35558516231437
Ni 6.679123681842332 10.284928048371254 10.862530050907457
Ni 7.070604603984057 9.6155114857624 13.105671421885058
Ni 6.552644176964617 11.838876599210163 12.597651067606016
