41
Energy = -180.0035504 eV
Ni 9.594520129085002 11.947494674676685 8.81967885680345
Ni 11.286679205027902 15.314521735921156 10.558235551281095
Ni 10.37939053254166 13.172494213507976 11.305846283031336
Ni 11.905758557589474 14.476495419569957 12.733714205382363
Ni 9.600323056270081 15.080337674962387 12.274598117403302
Ni 12.73598858090057 12.484520492782355 11.58355024388607
Ni 14.189897334164337 13.694133588576557 12.972410715284402
Ni 9.456486384510512 14.230387922792588 9.521834946999745
Ni 11.247816616187796 11.177594942466289 10.244377250307084
Ni 11.779010595836489 13.299652270778434 9.261088774097026
Ni 13.472303481700267 14.521282339492144 10.81437164531742
Ni 12.447592302654138 12.484829978525298 14.057208975784022
Ni 12.818494047569896 10.037236361816689 11.635522834749061
Ni 14.114588953435275 13.406627079853143 8.898828005627239
Ni 13.604785591561123 11.274022764368837 9.544099655803375
Ni 15.016540701634277 12.533461362944328 11.005142138789047
Ni 15.097807642302348 10.09822212349698 11.113358028386653
Ni 14.344857055488156 11.303525353673171 13.067320362328518
Ni 14.639551270295366 9.241062957129758 8.991281875847925
Ni 11.766997371407793 11.188072065465517 7.985708982602997
Ni 13.695109682382618 8.01680270778163 10.840518671353365
Ni 12.483299119193276 10.006507000323642 14.064664494994211
Ni 14.298455162358998 8.879587988840028 13.059522563247214
Ni 10.649956646600607 11.190965977525668 15.017943821482007
Ni 10.106570596536352 13.211356386708374 13.784892483412088
Ni 10.937569370306523 11.218967934435407 12.658266588504503
Ni 7.670847277527706 12.67994254832745 9.961645822102206
Ni 8.18427943935968 13.12200196908095 12.33287504863337
Ni 8.729074850650953 11.154253646506223 13.596662599562684
Ni 8.275031743319888 9.197043486422078 12.210170683184021
Ni 8.953832842978526 11.199421936556087 11.22109444191663
Ni 9.798208602385621 7.275180568577833 12.310669524518541
Ni 10.106429906360766 9.572089211335593 8.843248783767256
Ni 8.88775925259089 8.016150334929485 10.16642342381753
Ni 7.68692929835947 14.882412779401609 10.891265758562708
Ni 7.944783903612727 10.179909126936725 9.512669221129311
Ni 10.461493768045809 9.252791731631923 11.320587286367779
Ni 10.171568735581232 9.180068536999176 13.757281647393423
Ni 12.063198410743793 7.997741344654965 12.676272375814401
Ni 12.356280416757302 9.20982342237939 9.302807649548742
Ni 11.339532064184153 7.357997545381389 10.381940010947277
