47
Energy = -208.11658722 eV
Ni 13.586135746056437 11.71521943515675 8.638748474296488
Ni 13.39606073542609 13.20426042020672 16.09586098158894
Ni 14.873711494308361 11.070718444354029 10.6065216196876
Ni 11.499771746258796 16.625100048377238 15.707314760766481
Ni 12.654225165854928 14.941919489220602 14.654914935311943
Ni 15.184682894125864 11.90427701661446 14.95411176119532
Ni 10.651777804806056 11.777816539377882 12.370007649823858
Ni 14.570350480606205 9.033365442288751 11.931085601205783
Ni 15.073047000261024 13.225844433264628 9.757744321608541
Ni 12.349500026955612 11.99584884245434 10.599395461158505
Ni 12.008498612665298 9.865700887194517 14.835130486295231
Ni 15.787318346566412 10.977146665932361 12.76867120020342
Ni 13.409783256323143 14.121104570946233 8.352324780420044
Ni 9.331657426494605 13.989048947178865 12.635355085624422
Ni 11.393835937941995 11.746811695378552 16.17171627916646
Ni 11.434071025084585 12.88685952322562 8.628721665550252
Ni 12.70535191237791 12.093498412290634 14.18774453549968
Ni 11.189457503771312 14.211229321769384 16.257407762161954
Ni 16.683350763789587 13.007024128739019 13.44586618920559
Ni 13.596628332174566 10.82199195946318 16.2689605247461
Ni 11.010127166424297 9.770233894426585 10.79368871696082
Ni 14.647580093915549 13.963477828112651 14.102415574694529
Ni 11.501652709813655 15.213627915710802 9.402006616372718
Ni 11.971588519518447 16.873525002725035 13.35064544382331
Ni 8.308144894455719 12.07767237872428 13.506748350221397
Ni 9.8831994235644 10.646051446770192 14.377625399478157
Ni 8.301424599395713 12.44745771315625 11.217026356164832
Ni 9.863381200804113 11.47350977203845 9.865062762014292
Ni 12.756256487704947 10.393873614775869 12.39826691642882
Ni 16.76825324016538 12.398402599373458 11.148707389072664
Ni 13.232193356696849 14.357285053203125 10.647249243394143
Ni 12.387836445554345 7.977229327331004 11.377848556229845
Ni 10.841127206398985 8.983451020886495 12.971447362830581
Ni 10.73071336350536 15.683421767034002 11.715516521712331
Ni 15.555241785386876 14.325802415371752 11.839163882651782
Ni 11.526662367003059 10.499461480853569 8.562494609303487
Ni 13.215835904248088 9.661654494413867 9.963933131587464
Ni 10.37103834304365 13.609233305087418 10.619655768223156
Ni 11.90580308954019 13.838857731152176 12.612917976032543
Ni 14.304686947216743 9.893390489470777 14.183644527285045
Ni 8.988934742566496 10.244220579224415 12.060835471265225
Ni 13.71024421848317 15.514286645670914 12.623441390723963
Ni 12.973901062982154 8.099578994635396 13.59181510457133
Ni 10.371495717616348 15.355904982694176 14.15663157943555
Ni 12.659770755770747 16.69097906634527 10.940002446819094
Ni 10.357911388667834 12.984923391201136 14.483827502784512
Ni 14.087469848877943 12.556359070606826 12.258985377150966
