47
Energy = -207.95541692 eV
Ni 8.285320690772146 13.878039235439715 8.416204504258143
Ni 8.291664815776217 10.482308994047415 13.253812848508417
Ni 12.45868174384671 7.093214235507676 10.174666745917175
Ni 11.404597529881217 10.095346113287315 9.698875853090302
Ni 12.062492800072183 10.345447901165674 12.06419863425823
Ni 10.732461712421347 14.23857158908375 8.292945991278991
Ni 9.47712041024185 13.92042675043083 10.329303557305884
Ni 9.424488784258768 13.289876600578808 6.470682612057719
Ni 12.25465667967525 12.555941935556712 8.88432344543922
Ni 10.634029741302923 8.105035518548666 11.178201138142068
Ni 13.453828106933294 10.633000521880515 8.481792731729668
Ni 12.428128661426712 12.701433284949719 12.565306379338846
Ni 13.362747766086812 11.681025496484203 10.669220309214326
Ni 9.056526741687506 6.153788329125392 11.857738310639887
Ni 6.487437575704067 6.125643538634139 8.080990986006526
Ni 12.480877518763144 8.039342162307113 12.493306114273487
Ni 8.036987509767748 11.772162767874885 9.874644126533216
Ni 10.415783773806277 7.0704877013031355 13.561147927595705
Ni 7.148317737870453 9.681303161555388 11.051339225396585
Ni 9.588076020159676 10.923430013350913 6.28596325944473
Ni 8.942049736124288 6.486055060464578 7.9464972744529145
Ni 11.460033896247417 5.8638696181221714 11.885416199849086
Ni 10.243307582345038 6.003517322768824 9.857518171937052
Ni 10.405445047370183 13.92551218406518 12.47414397425892
Ni 12.965281385098368 8.390563627963134 8.298550594981215
Ni 10.009607376209635 12.025315034826736 8.533394977520416
Ni 7.774985092268809 11.83457197562067 7.50367464735782
Ni 6.182075943377785 7.918375856889286 9.601192285234873
Ni 13.453099304727505 9.24169368868794 10.499838603742294
Ni 10.40487178903903 11.658987066017135 13.264134917212688
Ni 9.53608118031575 8.545119450702185 6.627140386679398
Ni 10.827922469348689 12.094774911404556 10.891413632318056
Ni 11.400260774355454 9.94046988117378 7.359777975506408
Ni 9.05655832855567 9.844753397350237 8.572019362551345
Ni 8.591585065814009 12.426444219574645 12.004524282116416
Ni 11.909102156930663 14.118395171716731 10.567640560600681
Ni 8.572851328361779 8.321335128722138 12.51136313340383
Ni 6.843825131673728 7.130190088191078 11.637773095942244
Ni 6.688249090324043 10.120161426646009 8.728852432043244
Ni 7.401727774592081 8.159890717102064 7.633293301917424
Ni 9.450228217206952 10.190528101256236 11.165645838418612
Ni 8.529804193138727 7.9155504786877176 9.964073637153135
Ni 11.546817857852174 12.260599447533881 6.722444632342437
Ni 10.4676338288069 9.347948417916719 13.393879997613638
Ni 10.704572927748245 7.967067173015576 8.646078244286
Ni 7.800871044398907 5.710858422701952 9.919564228736158
Ni 7.497533544197469 9.92223466665097 6.256097298278381
