44
Energy = -193.72385551 eV
Ni 6.3160930972687845 10.134922793230992 5.002109115568701
Ni 7.941833330737198 8.321482764308096 4.675987305112109
Ni 8.741787372647934 10.637640659991183 4.978265853285376
Ni 7.245957370259175 6.066972703111309 5.098467279786767
Ni 4.980980802540839 11.724744232375214 6.100997638188964
Ni 9.704702964159077 6.478575916560937 5.228150603421803
Ni 5.933454023768896 7.869501542054613 5.919151508153863
Ni 9.88126522927371 8.776667806057628 6.012342861395075
Ni 7.276074939238148 11.829106837446009 6.63819953637051
Ni 7.618994755459353 9.579014395251084 6.7785711202441945
Ni 11.126820976060223 10.637440087972232 5.6542525290876755
Ni 11.70664554836541 7.4058710845492115 6.4561330345937895
Ni 5.1589849581336 9.759717469245608 7.3222964466926985
Ni 8.306286606410119 7.257907229169439 6.8566580984176815
Ni 8.479153262055348 4.95320823167248 6.733365670568297
Ni 6.366681011475429 5.794995926429089 7.496981412656843
Ni 4.443230290251914 7.4055518779396525 7.8121461844246705
Ni 10.831757076380114 5.248881581473474 6.959049204289804
Ni 9.486535031431345 11.038056774970388 7.222683630969368
Ni 11.323824437146836 9.443096979341803 7.753891192020697
Ni 6.569747872493947 8.037144385573937 8.178019292190811
Ni 5.6421951240303505 12.00041498476083 8.309942098360844
Ni 9.429331246462043 4.3862829954269404 8.71022820617631
Ni 8.18992164042923 6.47538453827605 9.106715868579355
Ni 8.184842851099459 12.025557772364138 8.930895998764907
Ni 11.548266149075301 5.268138362066263 9.251596435430553
Ni 10.353812950756714 7.045050907212246 8.357774598860583
Ni 8.961622643521395 8.958319603656678 8.667121526095404
Ni 12.516840332575136 7.556752981038389 8.80005775419818
Ni 10.33216843337444 11.06457656612059 9.346678951905124
Ni 5.682596900344839 6.4852628369132015 9.77238802465667
Ni 9.57365076144786 5.395799485882809 10.773217842168775
Ni 6.857910232289135 10.24940113913172 9.061699068215557
Ni 9.38500225313471 7.712843649750521 10.995847526145923
Ni 7.257363532109855 4.562456802247513 9.778039365001868
Ni 7.225559761071386 8.301758916651833 10.344118854179243
Ni 4.917511371727066 8.904719161642808 9.688349664794993
Ni 7.417726054006607 6.284890692967464 11.508759334509545
Ni 11.543883309046462 6.858887193091121 10.923547572850344
Ni 8.6839244009582 10.162835597926383 10.778399654530993
Ni 11.044579645079965 8.983482775427108 10.039204920057765
Ni 5.528881972050897 7.871501523892951 11.818891030491885
Ni 7.752954186553521 8.613898726631023 12.524046342657387
Ni 6.255103727311535 10.157741942211837 11.361220277942857
