44
Energy = -193.72708553 eV
Ni 7.841029035920468 9.870833261979907 5.1342884338876775
Ni 6.974922357831011 7.608698774081344 4.318169417687085
Ni 4.485274749471848 7.6138014888520145 4.9443983977271255
Ni 10.068334187165378 10.533457146827924 5.035366088931136
Ni 5.605786294119162 9.661290926162888 4.373734009496305
Ni 8.578893619417988 11.511140861998264 6.758533506655936
Ni 9.248578666932815 8.131062429416028 4.474639888417014
Ni 10.669590938554713 6.8739048448009346 5.761710145103479
Ni 10.894766736447131 10.948005224544096 7.312032891025783
Ni 6.061335041487417 6.160615675257392 5.991960861230155
Ni 7.685376309346037 9.559543341966217 7.5477364072113025
Ni 6.109306111620596 10.962925834476707 6.445775795633844
Ni 8.468046889830129 5.750463728331338 5.046290909092801
Ni 12.098867856863103 8.765138365484413 6.8476437759094395
Ni 6.146217504304109 8.481437246187625 6.295129106006538
Ni 4.085745338784438 9.610247784916897 6.252137640065351
Ni 8.347615396790262 7.2600210280993105 6.676265962561147
Ni 9.875153884033871 9.009549226247909 6.678408501095116
Ni 8.81902153358962 3.775188129527872 8.921733094810735
Ni 4.364907136765099 7.526431835014616 7.484095940944277
Ni 9.861058690877496 5.11668317054989 7.109339085819975
Ni 7.467748116430434 4.929969649709769 7.287769314424553
Ni 11.025111944798716 7.050842980848053 8.057644881626713
Ni 5.154209185955015 5.439954563948058 8.109541897590413
Ni 5.293009936117549 9.608095274231598 8.335940101926054
Ni 8.77590927309852 6.110626572107276 8.925218400549042
Ni 6.871378178532103 11.419584637372092 8.745277261573188
Ni 6.692434446328163 7.235847413991009 8.342028515037441
Ni 11.184450164137093 9.304235577457236 9.04900303349496
Ni 9.218914298355532 10.784545492307092 9.021906743506046
Ni 9.12941233617881 8.325991576870836 8.859814981001303
Ni 6.823186620144652 4.933778700918531 9.614121900201962
Ni 10.773073875836817 5.0634307170825945 9.46889652232526
Ni 7.182019321578286 9.12976748213136 9.80921208098174
Ni 5.483303659908357 10.34510850502684 10.608839294673768
Ni 5.0681165485444275 7.79945649246259 9.893275523738009
Ni 8.79696264715322 5.076376628388498 11.000051303199452
Ni 10.64825582403749 7.307549401796046 10.387399548921357
Ni 7.776139994630938 11.057261548879907 10.949150854395876
Ni 7.245029022607706 6.94588239530589 10.736198965289416
Ni 9.460175649250981 9.317017103093308 10.961392594508734
Ni 10.858298733301373 5.589524462683729 11.8724827998576
Ni 7.357672639992597 8.935999301383893 12.080555518167124
Ni 9.081981582095889 7.215335476447948 12.131510382864956
