47
Energy = -208.86325065 eV
Ni 6.734121459139183 9.270410237861912 7.749329188606514
Ni 9.158857106522357 4.989142503712554 7.588653022921879
Ni 11.172137655731259 4.992269315037225 8.943658236433004
Ni 10.26501639958327 10.197774392880046 9.479012272489449
Ni 12.65042805665321 6.904491408742598 8.52095806218186
Ni 7.364293752625059 11.58730803876577 7.645133514617845
Ni 11.296133690077339 6.766440132809969 10.458320514315163
Ni 8.079404541769199 12.163820087909269 9.870888601191876
Ni 11.051000623472614 6.167285614027818 6.954978082005181
Ni 7.211741296733426 7.637797508497081 9.485460428908452
Ni 7.105147569984037 7.704881159229244 5.5138979227370815
Ni 9.113191895735294 5.6672803761712025 9.89770122402906
Ni 9.286956436276572 10.791572842252734 11.557262779505141
Ni 5.785976978201832 8.794802863772226 10.853308698284655
Ni 6.919183583664892 10.778166338713085 11.62240100932789
Ni 10.83427135856438 8.262496514920562 7.923647973559147
Ni 6.058880295810766 7.072363997453888 7.547973641070295
Ni 9.460763232522526 7.993576803772712 9.782173001717048
Ni 5.0781194820408615 6.651351515258681 9.664000378122697
Ni 9.261670754541205 6.5496266805177425 5.47546039426902
Ni 4.657724346007543 8.886382613832058 8.717735362303914
Ni 9.743948136855597 12.000346892731136 7.990613728549932
Ni 4.957427495144164 8.69847115824526 6.20506958012484
Ni 7.126065796089361 6.319574656398461 11.256184391112253
Ni 11.290205981342236 8.111585675599638 5.666916120683511
Ni 10.592942158684522 8.760091365313347 11.674202277529204
Ni 6.935650253204573 10.125814480143351 5.632825605433511
Ni 8.56106128176805 7.2990716457229405 7.548168395894008
Ni 5.080809168135188 6.345446050345514 5.595700632635766
Ni 11.022465501339944 10.354166738311074 6.590704181706723
Ni 7.072699327876272 5.327608896285308 8.849057860792641
Ni 8.075021956513453 8.594038517255829 11.759236320663737
Ni 12.253147639102567 8.89036479524724 9.80041416145605
Ni 3.75302478643995 7.005579912550622 7.558406200163694
Ni 10.47046003126282 12.436615457835485 10.147003739140468
Ni 9.437432002462963 6.700266025743147 11.969771959495615
Ni 8.981616846387203 11.340006379757892 5.839672142481974
Ni 5.106705984597074 10.84174948941094 7.206929195632314
Ni 7.924042214561238 9.885282284483521 9.727359471219687
Ni 12.889492373306172 9.129966040342897 7.4470042222001505
Ni 8.974246156965211 9.725860007563917 7.540817823101762
Ni 5.085007367203598 4.9869155430058925 7.645057247809319
Ni 12.110306629796227 11.14023209228405 8.627731877202628
Ni 11.758679521656271 10.767899845825475 11.174147246440363
Ni 5.835813389115759 10.920423943637312 9.485779273571326
Ni 7.227344358289767 5.420381462874185 6.360225744144571
Ni 9.110061439160326 8.96369800986505 5.3697446051352165
