41
Energy = -178.46555112 eV
Ni 7.30935336302506 7.12818876260114 13.903706956217984
Ni 9.513361405803037 7.803822526740163 13.691877027382906
Ni 10.476963675584951 6.868375449295916 11.732756537061178
Ni 11.677402243355775 8.574222997743867 13.054591005030485
Ni 8.06422952539093 7.72964792467422 11.816525899012412
Ni 7.625578306275623 9.374750143535366 13.519140906116823
Ni 9.826160416513696 10.045661744575908 13.148622787039656
Ni 9.986252153586737 8.995158334798822 11.076966683283006
Ni 13.794551086770106 9.594529144307625 12.233349451863084
Ni 7.082263098329826 8.40072085283883 9.768312285763527
Ni 10.472729925788615 12.219421728964672 13.249453193389842
Ni 11.467307331222386 6.647935614878678 9.551976050674904
Ni 11.83679333349031 10.688671794977845 11.881782600275624
Ni 7.738572660297468 10.094212315479577 11.291379233398077
Ni 9.177786384623873 7.280996100110595 9.697784138919731
Ni 12.365108758321327 8.303863904111216 10.850291012024243
Ni 13.561323352885154 10.161118625781036 9.962773320665868
Ni 9.83501238111794 11.411876102488034 10.903420296991387
Ni 12.834911633121997 8.380459941973298 8.463754716296187
Ni 8.168451669180891 8.21048989217573 7.6686937067052705
Ni 13.73283609732767 12.034540934375014 11.371216613242305
Ni 12.793227502253803 10.80307176616619 7.721568493305773
Ni 8.85096476213144 9.999900939284267 9.073496330946222
Ni 10.513723783465643 8.03834598217161 7.928045866646614
Ni 11.967054398194348 9.086005678477006 6.375922425469854
Ni 8.169187731709535 11.726715270631525 12.920014402128508
Ni 5.924411834230637 8.945589763700513 7.821830499035779
Ni 11.233152027070803 9.841462805991107 9.291074662857328
Ni 9.931974942104077 13.34074712188687 9.67450175984865
Ni 14.236775264570039 12.192287352720902 9.037256522510397
Ni 11.620227852373693 13.228557124292367 11.559724386292713
Ni 6.608456833524952 10.720433386539971 9.257359124696057
Ni 9.723872454210209 9.820384949386929 6.657698625463223
Ni 7.720641383979344 12.38628245287001 10.612893846402457
Ni 11.309652509635983 11.297271944011037 5.8382714408107255
Ni 7.482222890642305 10.456237735096742 7.022107051694474
Ni 8.218205988582502 12.298676401125151 8.347682834895302
Ni 12.032079441355489 12.081323469695764 9.64347274068626
Ni 9.259424617717391 13.666318799176114 11.914975943067276
Ni 10.457104117442146 11.711110288350586 7.967114380892759
Ni 9.033339254693965 12.043260323899968 6.129262632896575
