49
Energy = -217.96799848 eV
Ni 9.704782134288772 10.301298702673735 5.101207557237358
Ni 7.401403218662029 9.24882450455838 4.343558988781587
Ni 9.283698728365811 7.787634529236678 4.799598416776745
Ni 6.968789116882323 7.143317566908446 5.801756956453756
Ni 8.728241632953331 5.433114723083247 5.511514218330817
Ni 7.540940790631742 11.276527505038322 5.740564251302287
Ni 10.678631727868412 8.763932731419525 6.723495319124005
Ni 5.833580618655319 9.333038165690239 6.316822282335623
Ni 10.93934578122012 6.42404228073427 5.960931895374128
Ni 9.747282908311755 12.551483521541908 6.118952437279121
Ni 8.168477616791222 9.040966964119187 6.426822979113689
Ni 6.6570925018377896 7.761671113618722 8.234628322227927
Ni 9.042378660238043 7.042284946627498 7.059907095932038
Ni 7.407357478893085 5.436859147636284 7.618973031145303
Ni 5.545519254156713 11.71693741480983 7.119516250467039
Ni 12.467155059146283 8.98400494656892 8.335984524911952
Ni 9.91118867416393 4.923156305371106 7.6833707461551795
Ni 7.883460781757719 12.658608245656001 7.734587838801592
Ni 7.130646912012802 10.393732261445022 7.961202168096311
Ni 11.595383129312129 10.968526204531722 6.942631914121907
Ni 11.156392322174622 6.993998919492813 8.297284029476414
Ni 10.44498485775307 12.510544620228403 8.531043950644552
Ni 9.356918336471749 10.775897312420515 7.4321904734124535
Ni 8.813037838616667 8.790984479148289 8.740983547535464
Ni 10.631758261726628 10.048774397026868 9.238447945767076
Ni 10.794544521411241 5.399834091352566 10.094262198516663
Ni 12.505561981875967 11.387232246944508 9.124220391948647
Ni 5.049008882125139 9.688710787982652 8.693554411033531
Ni 8.919786512397419 6.427135427578216 9.231913982644624
Ni 8.63798784587484 11.511368208436407 9.735807034761216
Ni 6.149521774822821 11.903848265562917 9.469227270822689
Ni 5.513598741233932 7.967177819926204 10.466418966327124
Ni 8.54520713556788 4.224419643643389 9.549752229122028
Ni 7.018263678322471 9.774905333967913 10.126763414146092
Ni 12.44878738234847 7.256012314000824 10.244024021850274
Ni 6.718392289249105 5.8622242134877265 9.946096357972174
Ni 7.889798702760538 7.775487336384423 10.718407240307473
Ni 10.30287463708423 7.983102052884187 10.507933180082992
Ni 10.774262760681898 11.519599574538852 10.94594757121996
Ni 12.37467071659834 9.600201775577863 10.687636428208824
Ni 5.060902431538742 10.348460224073616 11.083424001440548
Ni 10.962294784584614 6.571833305563519 12.195803807746397
Ni 8.798254872204112 5.697770707513392 11.497369238173496
Ni 7.170104830282804 11.453167141799064 11.679636422501735
Ni 6.692071032741299 6.681481354557416 12.296913079661167
Ni 9.042447963995455 9.897081049354796 11.474570930328445
Ni 11.004560316706225 9.027014874529435 12.461929483385005
Ni 6.801981571195375 9.099292692629982 12.373963176498094
Ni 8.93862861127434 7.784440367893404 12.770410340265595
