42
Energy = -181.05600615 eV
Ni 11.268219113951263 16.49978804451881 13.185222104834466
Ni 11.781054399103697 15.68090022252845 15.377281289245843
Ni 12.362298529810213 14.065635587720186 17.03432816968105
Ni 13.58128744214772 16.00153925873715 17.47066258564782
Ni 14.344890977159368 14.676476345882177 15.65896876610917
Ni 15.976752594050481 16.37924134784972 15.278358661174929
Ni 15.682969993153096 14.987092121939916 13.446127500222595
Ni 17.896411341502276 15.63149031342354 13.849133622823121
Ni 15.819133542399658 15.880674950875989 9.521140551070724
Ni 14.630484361894219 16.13891679391318 11.596713642817212
Ni 13.40297565431437 15.671057959525692 13.65245052573503
Ni 9.768295891512006 15.033232244091533 14.212983033126935
Ni 12.40230959113034 14.76568960498703 19.303565405442047
Ni 14.325295262055823 13.821802227918404 18.310313716929244
Ni 15.925740983884372 15.180822367279182 17.310457719729857
Ni 16.824377125080808 14.146687666805503 15.336874532448533
Ni 18.498567206772094 13.233630854192572 14.053880065156733
Ni 18.17364237159555 14.133442890112663 11.998584308424475
Ni 15.864553507153765 13.50117349329693 8.963297692842076
Ni 13.941567836228137 14.445060870365555 9.95654938135486
Ni 11.442485973203162 14.120175431478456 12.929988565835574
Ni 12.420975184231944 15.499006098147387 11.376112174207336
Ni 12.341122114399733 13.086040731004923 10.956405378554093
Ni 11.227218867528077 12.078877853506137 16.626384674499175
Ni 12.29011050423349 11.887621750434384 12.988504437109178
Ni 12.4477295558843 12.386188147407971 18.745722547213244
Ni 10.463096593078914 13.63842293078619 18.498078593032925
Ni 13.636378736389888 12.127946304370779 16.67014945546689
Ni 15.845887914052016 12.767857000136573 16.890750924076634
Ni 14.685575656136239 12.265323839546808 10.796200512636128
Ni 13.921972121124446 13.590386752401928 12.607894332174784
Ni 16.485808699180257 12.585962875755655 12.889581809038262
Ni 14.863887443969594 12.595805138758413 14.614412572548929
Ni 12.583893105131008 13.279770976344043 14.82073559806151
Ni 15.904564568473893 14.201227510563774 11.232534928602911
Ni 16.9986439843327 11.767075053765296 15.081640993449493
Ni 10.370451756781687 12.635372784860419 14.41772947546084
Ni 10.09322072668857 14.133420208171442 16.268278789859632
Ni 11.062148801911245 15.86344695936068 17.653926927495213
Ni 17.20471429637271 12.40341613892328 10.612936170788894
Ni 17.803766505205044 14.628440167497764 9.768784505251018
Ni 17.039644230756025 16.187985244777824 11.640478423784781
