44
Energy = -193.30596107 eV
Ni 9.030485714782028 9.422265451521286 4.6396529230462376
Ni 6.672355356764071 8.779816399244558 5.033831247859506
Ni 7.167366712768427 11.1750692635545 5.517995327346923
Ni 10.888744258898738 7.529652763052113 5.025771945274061
Ni 11.39748433082256 9.918615905829071 5.026875293507436
Ni 8.542662850998337 7.2233429914681615 5.670920039187565
Ni 9.560419097107731 11.254981600172266 6.2622285713707875
Ni 7.961017935731308 9.509538527611406 6.721703695054743
Ni 5.672459364266287 9.825384695102029 7.1292929761899835
Ni 11.771499055004726 10.516826084971925 7.307426022618978
Ni 6.533560504719679 7.501791559869448 7.109777842543405
Ni 10.215981588991532 8.905995538705513 6.651705085588071
Ni 10.59203209500533 6.485975797615498 7.31014891061516
Ni 8.174592610553038 5.587853378507027 7.497057348150872
Ni 10.555966426680968 12.394440214839996 8.098214157339878
Ni 7.251946829333921 11.470119698495035 8.022080635729099
Ni 12.35937435307866 8.076103172383533 6.976818270665628
Ni 8.752883623261427 7.689562248490928 7.93317927581489
Ni 5.105756743864802 8.264217277375796 8.947936562484312
Ni 9.329654971652745 10.441433817911989 8.54850885082489
Ni 13.247958846092674 9.190516611737955 8.860538805092071
Ni 7.176127017492906 9.246121054018282 8.91650561685957
Ni 10.971513944092823 8.758283706866488 8.892331059256891
Ni 11.89895848327504 6.863906303455013 9.486956389715798
Ni 11.921781032034236 11.03697289047212 9.594293640266875
Ni 7.057643057512749 6.766908000968138 9.400561486326414
Ni 5.600833721767306 10.481492074854721 9.999636702546232
Ni 8.92175366218295 8.226003794245232 10.065874645599607
Ni 9.578011732455884 6.06676402830987 9.560758724661286
Ni 9.936691536314985 12.256389345695375 10.361351573851762
Ni 6.3813038664748145 8.417344160706206 11.027992978886015
Ni 12.246776328057637 9.007283531512213 11.034329574553402
Ni 8.086283426747341 6.708672165591519 11.647199575260972
Ni 7.898979089250368 10.948228924724654 10.443210733140004
Ni 10.161091889034207 10.017729628769803 10.776317706120537
Ni 10.524827397710759 7.368532012755178 11.488286635609715
Ni 8.446454304429748 9.080519198904833 12.099799161113314
Ni 11.57013574821175 11.34550753370782 11.975001105315775
Ni 6.638441348427842 10.44811145992171 12.3985351808789
Ni 6.873797179997322 8.06009130733738 13.358177365580786
Ni 9.147626581730144 11.30314569206459 12.526141680574964
Ni 10.684003258613458 9.347047271304708 12.99456673369279
Ni 9.254947757408816 7.522696720670836 13.606753829764896
Ni 8.428840032850868 9.74977186113717 14.244779780572335
