41
Energy = -179.29296121 eV
Ni 10.255624960000953 14.428797352902944 10.707868455169093
Ni 8.109982485696115 13.127268924711466 10.771743533573675
Ni 11.828478165243357 14.204246336893354 12.542771758394572
Ni 9.775013567232724 12.885670476974164 12.473566297045627
Ni 11.553585139561294 12.202930113665149 13.890502528292432
Ni 8.860176847633488 14.095435673840607 8.74684368902628
Ni 7.47540410177768 10.850042837394508 10.765213442377986
Ni 9.141890932279955 10.028577750774385 9.353584155370006
Ni 9.698984742678878 10.711156361234718 11.666157922224688
Ni 12.612542224582008 14.18102943405928 10.246627641378243
Ni 9.746321610784284 10.679710069861017 13.939010656718823
Ni 8.094982683711208 9.206701961790538 12.443920149501528
Ni 13.38182380826448 13.566734820824191 14.209886857566755
Ni 7.976558556676007 11.953330003556625 8.568439833154162
Ni 10.049875984243089 12.26827659437224 9.861932852610833
Ni 14.114147965923465 13.913724286969602 12.004872552832357
Ni 11.894294124749688 12.194347136567934 11.393908382043156
Ni 6.8909426484247245 9.947075925943514 8.526862343442557
Ni 10.216887876950572 8.468275501659408 13.183602247638454
Ni 11.14590330752804 14.28361474875288 8.453357626290556
Ni 7.511889195482757 8.446370092591955 10.268708327396926
Ni 10.1499542334407 12.257974641927754 7.5431716751869855
Ni 11.45235807579829 10.170871931443235 10.10744527220215
Ni 12.216320680032032 12.253466423309604 8.837558784138336
Ni 8.50990095061023 6.911180395753054 11.917913876597174
Ni 13.703379218472833 11.72650612864415 12.7549870334647
Ni 14.072168766435295 12.205605196063699 10.362547318251083
Ni 9.946044853667452 8.34964213190684 10.858471548474496
Ni 11.815466766572724 10.15255582391948 12.765570980381526
Ni 10.831145224163183 6.392580210185931 12.301794472174237
Ni 9.116189330686426 10.102575977841118 7.120120538095111
Ni 8.030301999163564 8.049114720418018 7.892866136008585
Ni 11.457116741360831 10.233603875671877 7.766743837905127
Ni 10.334587376086715 8.229517011551467 8.36538167046057
Ni 8.875810457960931 6.635480520160831 9.492958236735975
Ni 13.669059570244205 10.447423727947578 8.761736250203644
Ni 12.57233836983698 8.388277637558861 9.196338499082785
Ni 9.60216195715122 5.019764107898919 10.93575677347407
Ni 13.571995813709815 10.000994465224034 11.107653783161805
Ni 11.216357983677002 6.5580980388194545 9.961490898102738
Ni 12.188268314881617 8.147701667611665 11.558123816271753
