47
Energy = -207.21560845 eV
Ni 10.306974580703486 10.110131492350686 10.77322866635396
Ni 8.981826620473862 4.539397986564685 10.010461735424515
Ni 11.365141692643427 8.691352352387376 9.23751518636984
Ni 5.419576551853379 8.764533121336544 6.729354163756612
Ni 9.18813227912599 8.206096890793793 11.573138603236357
Ni 9.56302098509469 10.3419455795094 4.81113075604087
Ni 7.964390180699694 9.720289815536272 10.118502360980287
Ni 7.433002978501945 7.403202094158035 7.1637352273106565
Ni 8.75514078916053 11.90210040399226 10.478528528572442
Ni 11.861156745434547 10.24400381468078 4.930425011179258
Ni 12.343615924311704 6.598690689468169 9.449525989174854
Ni 6.454789285026276 8.018306540985808 9.238339562472742
Ni 6.625389128198758 5.507154652124585 8.813123618776796
Ni 5.304120687746817 10.20218404733525 8.761103764727755
Ni 5.308375000912288 4.13783541192063 7.4307751829624955
Ni 6.708377535399022 7.197023126016479 5.065943770419116
Ni 8.332839797736119 10.340891287819716 12.287120244217473
Ni 7.792831326239676 6.539761079966146 10.594012475166092
Ni 11.608757898230172 9.383417191951263 7.084625842285884
Ni 10.152301294697272 6.553345525409756 10.174166370778462
Ni 8.859971142310005 5.726431726952534 8.049893157691795
Ni 7.377551760664907 9.673040686423503 7.7606376033684645
Ni 7.188009742017111 5.145239257268796 6.445661557396266
Ni 7.270482740613032 9.594144395723978 5.365764690731662
Ni 9.485503736269317 12.683323865625779 8.319124078501408
Ni 10.953667831981022 4.899474719779381 8.530562952927916
Ni 11.000599837799934 8.044172310405035 5.191921072645616
Ni 5.954186977386811 11.182728018976082 6.668903988042351
Ni 10.867913925205734 7.054439264148555 7.465714244794329
Ni 4.828843930741797 9.073453569968017 10.733351560015498
Ni 11.381882784085235 4.753755650188096 10.776695562350389
Ni 7.2166998390302215 11.793247895791207 8.710449730198572
Ni 8.759329629187128 8.187924031649361 4.254303244112748
Ni 6.826609295337651 8.42084397395364 11.741310934160673
Ni 11.52926029524148 7.969511793108757 11.40469842429195
Ni 9.15673341415962 6.478994604847245 5.811119730720894
Ni 8.34714796951966 11.488360644123105 6.5370932815145535
Ni 4.2687795569038505 5.594605605562716 8.939661346309228
Ni 9.545554198643464 10.401117171259838 8.4413684615756
Ni 8.97817928973909 8.06429002395769 8.849713753599744
Ni 5.226568164029506 6.442551033954584 6.966917336556947
Ni 4.239634107850041 7.952968409291563 8.697775731744303
Ni 5.356615456321951 6.690564965222028 10.722723511789114
Ni 11.653342615810633 11.052798296340756 8.884556738761276
Ni 9.315369033465158 8.854017374635845 6.555399129927865
Ni 10.723716050166201 11.49284028258598 6.629817279785873
Ni 6.313380362170003 10.978792292788864 10.91539880511714
