43
Energy = -189.20404563 eV
Ni 11.372139338506955 8.366968647087154 14.928233600386669
Ni 13.053440023497092 8.902163464513166 13.279240886550115
Ni 12.863090393703757 6.533130050756191 12.097069903671287
Ni 11.11700366859656 10.338975025255149 13.760926022791068
Ni 9.210019558558258 8.782781982594942 13.862419923989364
Ni 13.350040747822504 8.427881754747583 10.946123435495124
Ni 10.676096216503339 6.0089234581701465 11.337454862023495
Ni 11.094499363091092 7.878674059493883 12.695885211578874
Ni 12.262378648909005 10.448398527697801 11.630854188190906
Ni 8.746029021691172 11.158385172357011 13.409318145751458
Ni 12.220203964761572 6.5972026685220495 9.692921547578585
Ni 7.583531446249449 9.479574148372711 12.223875703912492
Ni 11.044153600472908 8.474279378487632 10.301386325289874
Ni 8.953055499650267 7.605555511582164 11.607143630020833
Ni 13.75762944615009 10.565781593314012 9.892430903797262
Ni 9.863545082782219 9.797591460878325 11.851977763673936
Ni 12.796064999900683 8.756094049050406 8.698648405746187
Ni 9.656746944678806 6.883513347750022 9.380366955946643
Ni 10.592352818951323 12.070002801340351 12.083316251025174
Ni 8.639173761795655 9.11739771716278 9.788717819980839
Ni 10.641679468575813 10.83416422326516 9.85294652045354
Ni 12.14433625175306 12.46048490896059 10.118845674794917
Ni 8.576205203857084 13.260074242736232 12.469724335300238
Ni 6.580537640022608 11.653670158174076 11.87898636028296
Ni 8.521008596405402 11.504192554515603 10.765050753148822
Ni 11.202942522927128 7.259116617593772 7.578161290744588
Ni 12.37378399581493 9.238171353530065 6.468629059285177
Ni 10.462384832505776 9.401348596334854 7.974756180528064
Ni 7.006223853174851 9.607029493312501 8.084726243467253
Ni 12.341213995719674 11.046117994305714 8.110163779910462
Ni 8.78975812086808 11.123372432733468 8.324581598787837
Ni 8.704733239074434 7.986119186655999 7.504988663690497
Ni 6.57536653137898 11.756433895619848 9.378390769248234
Ni 6.344388662064124 9.669260037275901 10.331523220462124
Ni 9.817793364707718 13.419887243113402 10.269281290147203
Ni 10.24151100638491 8.60233109184333 5.757094844042503
Ni 7.375054271208616 13.616587779212445 10.568660807437194
Ni 10.6016715386843 12.671941583205747 8.147679376559635
Ni 10.783608208782452 10.992519699566278 6.2966132040179765
Ni 6.9134355958975044 11.757260423433285 7.032880868365986
Ni 8.497450191041125 10.101132114694698 6.236919443752459
Ni 8.234927393682186 13.361530597571107 8.426040742803544
Ni 9.029002101301215 12.525504102705826 6.3401826233569905
