42
Energy = -183.90109065 eV
Ni 12.437121184145244 5.838727090257806 9.641527144992295
Ni 11.703040024111568 7.265708567646926 7.9678744987991665
Ni 10.981589789787115 8.682129841352577 6.2003530551351105
Ni 10.47089417086235 7.1837017542696255 9.964018281827014
Ni 11.601666161084873 10.951826935511006 6.198065491367506
Ni 12.945276633085836 8.155503437149934 9.804550676185222
Ni 9.75400765508518 8.693465371853524 8.193164227911021
Ni 12.273077297376474 9.55360056098993 7.991829077363743
Ni 12.12298657863768 6.947897582289246 11.669097293388946
Ni 8.068723657282153 10.42362954236726 8.589957598954589
Ni 9.336424976027647 10.403340116990112 6.54648874215649
Ni 8.662574939779622 8.694131944459807 10.311451275519152
Ni 10.999302664680274 9.494874407255121 10.226016342172988
Ni 10.429773029962524 12.788891992789127 7.046690825088214
Ni 10.408065741316339 11.01610829184219 8.48639887614083
Ni 10.158878942045927 8.206226566635594 12.1341231469883
Ni 12.700439685505545 9.241132786495346 11.952802633945948
Ni 13.166773019927643 10.598641846731551 10.004840261389493
Ni 12.571630559854244 11.944661524505182 8.133167825432091
Ni 6.836616704840108 10.159440614073912 10.707641692864552
Ni 11.845536216295159 7.953729240640916 13.779285259038026
Ni 9.945210089930201 9.301885565956157 14.27361638615537
Ni 10.68812527211911 10.628809806103712 12.41638758841362
Ni 9.073701071078835 11.06004386395745 10.649444609943234
Ni 11.633685922280852 8.919048842211136 15.890690394021897
Ni 13.321349235075868 13.051509866127606 10.166891981118736
Ni 11.467501196899198 13.905096322917732 8.792305376966304
Ni 11.254516647128737 12.076160486755224 10.477111246573944
Ni 12.337624021109566 10.279396663412328 14.10086972965665
Ni 12.948158461993678 11.61890025212212 12.176460686919187
Ni 9.211905540877336 12.98629964180391 9.197355501865923
Ni 8.346083960505975 9.723143183213766 12.521909731589258
Ni 7.057291612167921 12.279794493356638 9.804733760195987
Ni 9.060180697952234 11.519202517918178 13.975821760443642
Ni 10.709427555432143 11.06319484285582 15.633964240272528
Ni 9.682207408099956 12.945206050050153 12.182716131000033
Ni 12.470515592283009 15.301739575691345 10.322912382013243
Ni 11.330344927094293 12.444733146721418 13.822690253210707
Ni 11.980894142342795 13.810269966968427 12.051934644553832
Ni 10.264085459861302 14.632005470633635 10.643388518889607
Ni 7.508453279819761 11.981949682454225 12.176242639707967
Ni 8.015755229425096 14.049818431190095 10.975672502419863
