40
Energy = -174.76637146 eV
Ni 9.757612009575508 7.22324390821944 4.778174805881599
Ni 7.602501439266614 8.0901421771443 4.120092371740806
Ni 9.17070191694183 9.607144454105915 5.281536084006595
Ni 7.8280345553611665 5.825363441328044 5.124823624518692
Ni 10.430910262980085 8.164964230683145 6.85521239534367
Ni 8.141866197181965 7.74188304371124 6.347859804641391
Ni 9.545532779440611 5.919305198481624 6.9399197573146445
Ni 6.795226249982589 9.659422999332001 5.844172850021017
Ni 5.971775860175563 7.292276434556402 5.722918763401401
Ni 10.591316354115152 10.602416529981658 6.928131343351026
Ni 8.299319942354995 11.609286904989771 6.452548201344156
Ni 8.491711439651308 9.686945605864315 7.649521175239256
Ni 7.148163876933404 5.925012868937495 7.478092953445696
Ni 10.912839260193465 6.713693328588925 8.817912418172615
Ni 8.706341746474994 7.559362992372153 8.646874271449773
Ni 10.058380564988056 12.612889398776627 8.01074635487766
Ni 6.363214514872188 8.256155941663812 7.857349355875311
Ni 11.688005144275191 9.112361588672558 8.537757450938063
Ni 6.304911859688684 10.595844081364566 7.992273000822551
Ni 9.917983238183034 10.51486652792949 9.331953896981373
Ni 8.08157265483912 11.862056224728825 8.872033855884657
Ni 7.803304898039277 9.378103892948525 9.961916790623553
Ni 10.144560723499374 8.44492285079711 10.359633713262836
Ni 10.826791251970608 6.3582685045246565 11.27132518968649
Ni 10.587073959434884 12.307521626243709 10.504932198281956
Ni 6.653926408310941 6.810122811296084 9.667365708034067
Ni 11.859285917308673 10.214697956075208 10.735809677311671
Ni 8.484020278378125 11.350174460994781 11.218345355788864
Ni 5.564620999189967 9.019116549802703 9.984983224069595
Ni 6.272045508253653 11.331886021667703 10.225261359078733
Ni 12.017313090160918 11.490089939745413 8.70626490650863
Ni 12.416916902202944 7.8706575973331425 10.422694307817657
Ni 8.8314294510599 5.322439402558317 9.169501220615562
Ni 8.768082851311918 9.149490882241274 12.23332507103587
Ni 10.41056702229388 10.840410339002283 12.437809913220292
Ni 6.737034881782255 7.875550902705216 11.808550245923133
Ni 6.611781556081698 10.141623803750111 12.132570274537537
Ni 11.151840500307488 8.533707143258603 12.402251392259062
Ni 8.57188382598826 6.8056861269188635 10.97993229248304
Ni 9.385978719521642 7.0872719192744125 13.094003036781212
