41
Energy = -179.47360796 eV
Ni 9.714013519906386 8.806879044994677 13.612873562166971
Ni 10.173913100969507 12.887252144560309 13.21607640521273
Ni 11.163729935171357 14.768065976555405 12.287475216304335
Ni 10.93356334025853 10.690164547152136 12.806143607741525
Ni 9.111983989508099 11.000723872767601 14.286036005239792
Ni 12.034826468979212 12.629931295077427 11.753378817378461
Ni 12.658170966039078 10.432269132649948 11.120467284762706
Ni 11.527852126963495 8.494431803235743 12.053186088172493
Ni 13.23362236908673 8.214008166033102 10.430356403928677
Ni 9.528189231720791 7.103809650728184 11.94299099068152
Ni 9.465843344821579 13.642200267952258 11.085188842338244
Ni 9.281132583436724 9.445149322449238 11.41083398192081
Ni 8.45372786121528 11.657997656392599 12.134631475535217
Ni 7.563727902457468 9.658214809946495 12.982521980447798
Ni 12.287018604598142 12.064763295359462 9.364401262180543
Ni 10.355890523164538 11.466862527603784 10.56396716978769
Ni 11.452247114589088 14.12832304739221 10.027577569101398
Ni 13.112124648712653 9.909298311884886 8.7425504569281
Ni 11.10409238914703 9.236960948859718 9.770598951969879
Ni 11.307059270275634 6.806697637983305 10.35324410762076
Ni 12.341084984249362 7.602970872828199 8.32179369362082
Ni 9.128595726448923 7.733264924490418 9.642401188961664
Ni 11.019499367708919 10.809513507229626 7.807067683808752
Ni 9.329310205603816 5.462119941410417 10.181464919168782
Ni 10.417835016680506 6.172670327932956 8.217023239609464
Ni 12.299026819849404 9.222474217178746 6.610408448024611
Ni 7.34290171006643 7.977991866707012 11.273442761784526
Ni 9.966866720245825 12.84856939564466 8.665168265773666
Ni 8.967860363982954 10.161417208313951 9.047395494985876
Ni 7.222194791631665 6.299965739281065 9.609955279352539
Ni 7.078603541336321 10.285904292081378 10.660721908853898
Ni 11.335837123991265 7.103503841452424 6.233020621037981
Ni 10.131219470043357 9.881436489857625 5.766571274280399
Ni 8.232385990873265 7.014732153385392 7.604899778368368
Ni 7.994928676842074 12.296610348174006 9.93295592648147
Ni 10.174111368767806 8.497131074075085 7.597733675139388
Ni 6.977418424723635 8.629618725574987 8.940320467791594
Ni 8.901556506993026 11.509347379947512 6.935567687771954
Ni 8.064979439545489 9.285553679592933 6.922667069844332
Ni 6.922540794042387 10.97091422200449 8.25973455796971
Ni 7.737353950146559 13.239126618053561 7.874026162746207
