43
Energy = -189.03850565 eV
Ni 10.515593353891834 10.145139497196572 11.44508884341723
Ni 11.628143111452326 14.145338686042209 9.78541694473347
Ni 9.21993147899754 13.847467938064762 10.218545602709177
Ni 9.616247672836977 9.064840034900126 13.34129722836899
Ni 14.414559602121727 9.361340555463075 12.656726860719008
Ni 12.820561807725577 12.676564603516155 8.306114989378212
Ni 11.461741581269415 11.116517275088098 9.455987103933898
Ni 11.246649389942903 9.133940513895926 7.9003848035641715
Ni 9.393854265046022 10.625776795759958 7.786049171548661
Ni 11.628068997488148 14.158858993283172 13.105064199854334
Ni 13.285661112538032 10.222878848239363 14.540184512289208
Ni 7.512751609725328 10.04592064376231 13.73050382753361
Ni 9.404065640261873 10.62443267589254 15.112027539354633
Ni 12.05863411367586 8.792571380765768 10.140231873532121
Ni 15.820910178285631 10.841219107782248 11.439698373169811
Ni 9.08468184779154 11.523573611908612 12.982199284648818
Ni 14.394194399113195 11.719764377620496 9.830743635864039
Ni 15.403300697244493 13.242432020033792 11.442076327533997
Ni 13.278412522929868 10.221880585341486 8.34421503724142
Ni 7.503615204403132 10.066903523165365 9.176481501740255
Ni 10.249126904931778 7.836371485160939 11.448092205985779
Ni 12.821683014584472 12.677525517038836 14.566103355866112
Ni 10.75391463675832 12.54223560257055 11.452684647013882
Ni 10.351870419593633 12.820311015816054 14.574393054816426
Ni 11.550207775739995 11.239345426423972 6.953342598436065
Ni 7.628902369363796 12.346133212374365 11.444045745230513
Ni 9.601959932994648 9.065234558152754 9.559473587100793
Ni 14.065616513851447 14.132919378001587 9.659802807854108
Ni 11.561787416419914 11.245146294736099 15.932390453107486
Ni 9.091905777469448 11.525263825604263 9.915930693107859
Ni 14.405185730953724 9.362181310044878 10.231848366336877
Ni 12.944079873608272 15.36128550178496 11.441867319833467
Ni 13.072495314792086 13.048375659512708 11.448593750790305
Ni 14.407214729667283 11.720777876156125 13.058882700151537
Ni 8.138576001277773 9.818165769345875 11.451663346389239
Ni 9.2171210232181 13.84967612237285 12.669791125477959
Ni 12.888504526097073 10.668281951165424 11.452228884146617
Ni 11.452332286899795 11.102192323348469 13.443968625311912
Ni 11.260335529987184 9.127711893794375 15.004107158090907
Ni 10.350560980770718 12.817264826025216 8.30989902101078
Ni 12.06449375567933 8.788974003902162 12.755775812968384
Ni 10.54851253554234 15.369952026042116 11.442041524491952
Ni 14.070130962944026 14.139628753154563 13.22537804175759
