47
Energy = -207.46147613 eV
Ni 9.2291879682311 11.790400546534517 13.411338485498597
Ni 8.125329110611537 9.366037874367288 8.151786984856042
Ni 7.571261964927724 7.406611430370934 9.654028668311527
Ni 10.899798942766951 8.262576586993681 12.650548942441732
Ni 10.213704861754978 10.943886836262712 11.555639520059358
Ni 10.690240825140672 10.03145220652019 14.363713586316804
Ni 12.939482813280806 13.776304336590405 12.686477438489066
Ni 10.40185249994851 12.72160842144762 9.794530881534348
Ni 9.027479536027837 9.158408590923571 10.520438183941776
Ni 6.43799777402745 12.08326357099 9.924879477408238
Ni 11.93769672529752 8.556812263196509 7.998584348277405
Ni 5.9762786748184595 8.236039449817813 8.101401777349219
Ni 8.465836678165529 12.941807615690536 11.317013420685168
Ni 5.41692314675874 10.556702957429126 8.241584774281396
Ni 12.20260114152251 10.743820825187376 10.253964630669739
Ni 6.6534422389864565 9.730669903051355 6.405386848150869
Ni 12.522001078539367 8.354561977148833 14.265546439887633
Ni 12.279605283898128 10.236264814425358 12.641743535111505
Ni 12.602618251772741 13.029534084718394 10.52704495654137
Ni 7.562068585057308 10.810811256996878 11.761376747478183
Ni 7.991266912595547 7.227862255425604 7.289530070259576
Ni 12.914491569374608 10.550530992039128 15.067823473659443
Ni 13.657589890182807 9.083091722509554 9.598986582438693
Ni 10.687135153952209 13.317639785860846 12.053236313932224
Ni 14.364955337095791 10.428063624473483 11.450046843873123
Ni 11.26205145209933 10.508598129559998 6.592221394658318
Ni 8.243911765545054 13.479942085121476 8.959678546925028
Ni 13.284893292611292 8.280454105655217 11.880140570030788
Ni 14.464587501159599 9.500832862780712 13.599851356580942
Ni 7.353041400492376 11.698640144510222 7.612399048578322
Ni 9.421113224182879 7.0642438970986206 11.281477668162669
Ni 8.924220707289075 9.397342037890935 13.008872915283803
Ni 9.828078546222217 7.575509942350634 8.886770639276511
Ni 6.554905204040893 9.607248727802245 9.986588773088949
Ni 13.95339222535186 11.815136652702009 13.374648533849614
Ni 11.605731222406815 12.143904722234225 13.824539816245993
Ni 7.26566007607931 8.275243300781602 11.822358308958428
Ni 8.53987973050131 11.267785695024902 9.639310017025513
Ni 8.88502036908527 10.51400629109032 6.188692050251691
Ni 12.101911796948263 12.024496936905207 8.283653099806278
Ni 11.416504253399243 8.481762289407204 10.387388963993116
Ni 14.743762446814246 12.765552462345166 11.394706921218553
Ni 9.930197784059963 8.51545786712241 6.7505861186748835
Ni 13.470243285144802 10.27286538584977 7.531271801589976
Ni 9.751714921483138 12.164233059527863 7.588150467381404
Ni 10.417292291065134 10.136142096143809 8.737874939633473
Ni 14.211310495200339 11.566108335041552 9.38243607325122
