42
Energy = -184.95208869 eV
Ni 6.247366475639626 6.613468370322946 10.551732289360878
Ni 6.234986525496134 8.846259638557404 11.479450970821041
Ni 7.4716575302283275 7.10226936287526 12.585994117358112
Ni 5.9224026142410455 8.550072692526573 9.108548813030847
Ni 7.407809169046466 6.652860986781545 8.48935274016833
Ni 8.42207523503514 5.258505418658231 10.198439214023512
Ni 5.615938655049761 10.732648554168833 10.103010889737886
Ni 7.217980840291325 11.22526603734247 11.717488850294709
Ni 8.371395935303386 7.482179378654582 10.496750593666976
Ni 7.553176666727346 8.735600754660235 7.419427763063881
Ni 8.439203165109042 9.300188295700774 12.331091966327751
Ni 9.615130255922466 5.748182565929126 8.205037800962177
Ni 9.84797780676688 7.391910901302635 12.44379002498118
Ni 8.539531040009033 6.988746841477298 6.382287127739392
Ni 8.81929647655671 10.598236713672225 8.091056619165483
Ni 9.741051419777657 8.074491484391187 8.40757584930389
Ni 7.80914280339567 9.687253720121124 9.943989731342866
Ni 7.647435173138203 12.169575405247112 9.59571201430968
Ni 10.627027416942258 6.522524419311865 10.298046881083994
Ni 6.460910266831532 10.754388836975115 7.938045709220117
Ni 9.637470164819115 11.115884592516863 10.636053081324302
Ni 9.15915719036297 11.516920422946091 12.934523694045815
Ni 10.756063715967489 9.723195673019474 12.749610861628376
Ni 12.062833917694679 7.920214457772629 11.852467660055995
Ni 11.951023774002246 6.336795039829074 8.340491426593404
Ni 10.795680032967793 6.91071286720826 6.420749900494557
Ni 7.952987475347837 10.556530515781999 5.946220035160968
Ni 7.90156532601655 12.58997117485031 7.2230983957548025
Ni 9.812785997679153 12.713349310862425 8.663976010676485
Ni 10.219475537678791 8.887250897621401 10.60541756547002
Ni 11.0123883298996 10.281389269496213 8.657585828837579
Ni 9.980706451485366 9.233998854326051 6.323832630844902
Ni 9.574989438127819 13.300380555145097 11.001488066567727
Ni 12.275677638783666 8.291554696682747 9.569652069999188
Ni 11.296946480611352 12.016542884433193 12.214441410591254
Ni 10.038709289112296 11.710469459216007 6.4468079953624855
Ni 12.20832054988857 10.223647462406985 10.896900686320988
Ni 12.16133432678752 8.518227347046492 7.318221550741938
Ni 11.978126650004114 12.41913601587485 7.655966207969449
Ni 13.233467017034066 10.47403753103033 8.623042628123358
Ni 11.735797572091398 12.321419474090732 9.950492433724436
Ni 12.067704397014872 10.54635304019037 6.342578945282284
