46
Energy = -202.77780128 eV
Ni 7.620433332813248 6.08683851951963 9.81611708849653
Ni 9.96880164486243 10.088940832641594 9.349964128002034
Ni 12.178046722222854 10.902152769956816 9.025111052791111
Ni 10.647851707395425 4.800860589990007 8.03710839413364
Ni 7.757100567077159 9.79133305657431 9.605960450779396
Ni 12.424451061826884 10.471789081212501 6.601700925739718
Ni 9.116707269737779 9.229278722003553 11.547911857002292
Ni 6.1359157618425675 11.453362268897056 9.25347688989073
Ni 9.305548084336046 8.566479369593003 7.4116995003756045
Ni 5.340218951399948 6.762132886362347 9.46718407386583
Ni 8.351475634567326 4.137341368567325 8.730544554058953
Ni 5.3091095337965495 7.949892450754665 7.231324717806468
Ni 10.357389469406563 12.447589573924855 9.176976531596123
Ni 6.538776202895431 5.727657950022564 7.644533024725317
Ni 9.684386864957412 13.195078297766457 6.883080064141089
Ni 10.9147798356926 8.958924690184297 5.702217549665154
Ni 10.084588072810776 10.855347194491193 7.177896446897387
Ni 8.557636197500768 11.650920041617887 10.68701292498287
Ni 6.107435525370931 4.3878769561454085 9.672798778266671
Ni 7.347304091434928 10.054808853495166 7.276306193532053
Ni 10.956793033760098 6.874640655102121 6.871276468840049
Ni 11.47171527079356 6.758803630132275 9.22035813855928
Ni 8.205156501970887 12.048646639260305 8.303439266064974
Ni 11.827033652786817 12.558151888496738 7.260117662450281
Ni 8.219723804415036 11.766500244894265 5.7945583652989345
Ni 11.622469673449803 8.808926965063494 8.04395254142692
Ni 9.887945344700313 5.283241336707212 10.189127188193966
Ni 7.239190565179245 7.893777752182434 8.43913392698421
Ni 10.810892371242899 7.012162004061095 11.570446314496651
Ni 9.964124352286236 4.942556342043646 12.464044699608513
Ni 6.526363859998687 10.389158235499576 11.387815803766337
Ni 5.391093217111304 9.160916277826525 9.434385349442614
Ni 10.533624059294647 11.323015684341401 5.061032251410251
Ni 6.24192215045744 12.163496134175668 6.944430536047581
Ni 6.201939490099158 5.876134481388635 11.601918720948369
Ni 10.894313134695732 11.106709179769853 11.155979367064948
Ni 6.186130326142522 9.49116743036516 5.4296341003787925
Ni 8.680078257892873 9.555967994038197 5.293489817743259
Ni 7.461578659329749 7.6101056359830315 6.136539568787181
Ni 8.530215051317173 6.690326807468052 11.922440602538003
Ni 4.991227918719357 10.278451184074598 7.407395427624864
Ni 9.387724760465353 7.744508881383285 9.712700781049406
Ni 8.000532534110743 4.293424896696592 11.257698792494248
Ni 8.866855194823446 6.221144050251682 7.7114569129350095
Ni 11.596344510954843 8.896176995070762 10.454090338892053
Ni 6.907118061178993 8.08334548912674 10.983674199328687
