50
Energy = -222.16593905 eV
Ni 8.991713578198 9.284224811557834 5.583761856470126
Ni 9.964378143976798 7.117310870562005 5.951700662390588
Ni 11.421880076243626 9.032741227209895 5.89853878193575
Ni 10.29101550810702 10.894097426579977 6.737193122533002
Ni 12.677714912220853 11.153052585835797 6.976763900871261
Ni 5.96832588213663 8.485316960218862 7.540660086049876
Ni 7.888508274121678 7.5366277479063415 6.898760005423532
Ni 8.746007259490987 12.631300861708175 6.763375515863666
Ni 9.66277082367517 8.699692080571893 7.787390338579338
Ni 7.889204134336491 10.386559884707994 7.463394751042449
Ni 13.559926725827804 8.791018246697197 6.927649814199888
Ni 11.732439174368471 7.225338076878986 7.4946289589986534
Ni 11.089830903017504 12.980936030402782 7.677816053629762
Ni 7.0940143067390995 12.539974876407186 8.502625380068626
Ni 5.236026740757449 8.19213125502916 9.717076442969374
Ni 11.780213935624962 9.492600038933197 8.247491537500135
Ni 14.031520879209811 10.158539777714322 8.850786976294655
Ni 7.647875389699902 8.723235645316532 9.216019650021558
Ni 9.4897507898379 6.435380253687118 8.300114382397132
Ni 9.026160678842148 14.00992041179105 8.707547782288914
Ni 5.825716530619307 10.45565778538446 8.759202588930725
Ni 7.015306431983309 6.572240292919409 9.021834639486734
Ni 9.530073114437636 11.751215133251536 8.794920693260043
Ni 11.101997428440013 7.521381363649568 9.762303082512583
Ni 13.427337597694098 7.8113376345115 9.154524718866625
Ni 12.356336181231345 9.51551441921478 10.466188404738563
Ni 6.7816758812888445 7.453361490504818 11.409587260153755
Ni 7.767505307102783 10.905933352104613 10.017336250926228
Ni 4.055191473337734 10.257001836727639 10.198096173551413
Ni 12.155769166639054 11.655135317962646 9.343372152496068
Ni 14.575734838599132 8.906027378274894 10.943530770469886
Ni 10.596018386671886 13.112133728276346 10.338570016171595
Ni 9.981535391597347 9.741649048894626 9.880195296328449
Ni 5.773853142642345 12.03295138848993 10.560029619982398
Ni 8.003651454165183 13.114828935353213 10.706387598804634
Ni 13.911443488698898 11.177994259844438 11.056975648213854
Ni 5.987422742081009 9.72955828199862 11.2877731812553
Ni 9.454467021606142 11.47941438884503 11.621035691856981
Ni 8.88950479232631 7.029237014934796 10.515806339716987
Ni 8.346120662817036 9.223640443463935 11.503380032365264
Ni 10.692942858615977 8.95827362441641 12.034750690525732
Ni 12.99346468268694 9.490688749122794 12.737872177728924
Ni 12.76202062540675 7.431915826538452 11.54544596087709
Ni 8.976315063293512 7.591385570335923 13.038072816576522
Ni 7.297927100630982 11.338767532434119 12.41909511712158
Ni 11.680151798142498 11.313795694517822 11.751357793636874
Ni 10.675227949427306 6.437106138991383 11.869576941341048
Ni 6.992974700954536 9.017972761848503 13.344069332174902
Ni 9.165355009471059 10.04045446400015 13.521331926819123
Ni 11.55163955172974 7.677385564244217 13.668039574354493
