52
Energy = -233.38758164 eV
Ni 8.504497925384102 10.32574986497571 4.962058352485916
Ni 6.204266179602684 6.726402630781778 4.971914312195451
Ni 8.323932028368516 7.8489541067025765 4.581450702045734
Ni 10.447475834411678 9.007300161671118 4.411196167309029
Ni 10.409738080586072 6.76962511426015 5.423038086605093
Ni 6.31634184874425 9.154289835862373 5.233965943494144
Ni 8.68787885419633 12.09841737786024 6.734121368842671
Ni 8.222096852425015 5.601280294538056 5.71827706394397
Ni 7.342331069488962 7.599580509562572 6.77427373468105
Ni 10.691168584272706 10.80417891371974 6.051067177051325
Ni 5.002371768180569 7.7367234090539005 6.826881252426665
Ni 10.24505667453388 4.648189315849212 6.630551071029307
Ni 11.850691998438094 8.60257781097935 6.346063065935443
Ni 6.560538148280793 11.541208984526877 5.712757099986165
Ni 9.510580072648697 8.739631931944478 6.493310427059084
Ni 7.51835428099794 10.020570975401217 7.149033592359582
Ni 11.753061251235513 6.365279091656763 7.475572943491422
Ni 5.179910138076389 10.212670467239898 7.189775982866591
Ni 6.625699554592217 12.048549782239071 8.111202823689478
Ni 8.21932355075511 4.4573347870342594 7.937943420025463
Ni 6.156236663903711 5.534708162158193 7.096970553303822
Ni 9.398485763158849 6.541081817700108 7.608043271166014
Ni 12.026210332036648 10.364117060016104 8.121098958810167
Ni 9.690414212775698 10.476703462383876 8.223545670884025
Ni 6.1110983603523374 8.658448174453916 8.7028407157588
Ni 10.810112752032072 12.457328280803262 7.850942360789944
Ni 8.523206584472987 8.469437156674095 8.623047633980608
Ni 10.934487501435504 8.301160754605997 8.505178711146206
Ni 5.006121188401547 6.606662402226957 9.049169686835354
Ni 7.349226422353679 6.478987614290471 8.988170059585974
Ni 10.43421357867099 4.934196851771721 9.04332289596582
Ni 6.215929731227932 4.506361935557806 9.3232052527793
Ni 8.808032668626703 12.499972918628366 9.222801264686547
Ni 7.6362843937066875 10.41869287158444 9.586337558924386
Ni 5.286615895943966 10.628413795623544 9.662979948139485
Ni 11.851861973848575 6.74870900665702 9.983681560620612
Ni 9.483579481700561 6.901161526642905 10.11171028961888
Ni 8.367288757603953 4.8093627398932535 10.376489113267374
Ni 10.895817476055447 11.443555163264405 10.072554365498123
Ni 12.046892198604027 9.244716316249061 10.35687253428098
Ni 9.704629608005808 9.362702024710766 10.434458495315441
Ni 6.789112521042881 12.329245676013212 10.53793828871562
Ni 5.223211801616047 8.376712324609532 10.839803933918692
Ni 7.588922566418222 8.177728263320752 10.781437547793848
Ni 6.322194057300656 6.1838504306721545 11.103621352602197
Ni 10.513264175893342 5.366717087898337 11.413421311948667
Ni 8.829675554398486 11.398927988107957 11.448756717535039
Ni 6.633469585606907 10.21132401200405 11.742284438673867
Ni 10.737784505553611 7.827215170513148 11.906777772494953
Ni 10.836889363063664 10.251831478311255 12.224213855869563
Ni 8.697688184127477 9.219200177339355 12.611093359374472
Ni 6.55776242045134 8.044286965063701 12.794810907799814
