53
Energy = -237.72650649 eV
Ni 8.01598094761246 8.484130976885515 4.508777278466829
Ni 8.740528939086989 6.581247709707201 5.807697067514317
Ni 10.357988497491116 8.363045068003803 5.111872933305949
Ni 6.903843758657393 10.134723281070013 5.834867120161749
Ni 9.128329329746729 10.551884786286186 5.135024459061886
Ni 7.4370599301708 5.699011179097437 7.691428087665976
Ni 9.62044699887316 4.7976089086145945 7.215539734706695
Ni 8.681069882798505 8.792198484539718 6.721417463774983
Ni 4.1635128489731885 7.449217138290142 6.548207256499625
Ni 11.182689902076815 6.498958117644796 6.475216353012945
Ni 4.740766354378743 9.54273954964767 5.788953369085127
Ni 12.64118250780736 8.279156131930703 5.821089972642837
Ni 11.411072554714265 10.442988447493693 5.72902563828081
Ni 5.585715928874211 11.397410597333513 7.391937754436376
Ni 7.856955687818958 12.137933736511078 6.702966476240904
Ni 10.099875152432734 12.570782602041835 5.968424406418465
Ni 6.502360864758885 7.674134257941683 6.263218407555207
Ni 9.508451581854814 6.93009280713638 8.075826164411765
Ni 11.144575592237302 8.82771618226234 7.4393877877187515
Ni 7.445874064765533 10.30498635687602 8.206916135012468
Ni 9.867029698242176 10.923939981391396 7.499379582436654
Ni 7.312078431193618 7.895197281089539 8.590543524693743
Ni 11.306400615524366 5.517617161641159 8.81435679682687
Ni 5.26085079367559 9.053403183521926 7.9684843934656815
Ni 12.835487266505755 7.281003974686008 8.084888104702447
Ni 11.341337956807944 10.334735627151133 9.336171086825539
Ni 7.092625027963021 12.479642302135378 9.063432379203546
Ni 9.339836293778895 9.121300471982593 8.94423660750888
Ni 13.098973122319148 8.910843634573375 10.138332699172047
Ni 9.294941054114833 13.115434630434171 8.291158106325469
Ni 5.520877825156165 8.160050266361928 10.224084559640145
Ni 11.141139867463558 7.8015094423406826 9.666381677467875
Ni 9.167231176850379 11.319075007897462 9.818365456751161
Ni 5.352435049972376 6.6529399963420905 8.343147912516084
Ni 12.86897371847544 6.499305493253335 10.396388926874685
Ni 8.685993243878654 13.360289314351098 10.681758073883215
Ni 9.007534240686878 5.065034561954511 9.557134820317694
Ni 5.628839024922309 10.632754924292868 9.773754921650434
Ni 11.928471116787529 10.447805967950535 11.643029061340233
Ni 8.848715205229393 7.3125303239482795 10.427452709459825
Ni 7.579357025233311 9.417368108756047 10.492891389195451
Ni 9.925291965572805 9.391432310634062 11.193176619119939
Ni 6.8268292707216185 6.060323334727209 10.110354920091916
Ni 10.6580500530975 5.957619178438085 11.197188693940632
Ni 9.596804635836083 11.551455103128207 12.146171995653226
Ni 11.762044646165302 8.035486708457706 11.992816140662672
Ni 7.270999385988854 11.596856062823504 11.382178996658332
Ni 8.397765266587218 5.548932091141596 11.882278671439293
Ni 5.863820772922193 9.711985513494493 12.02980812795407
Ni 7.100017133928568 7.610731670503441 12.05718932888915
Ni 9.459346075650883 7.561766067481966 12.739577681197247
Ni 10.489403272500534 9.643342371338994 13.397109203075095
Ni 8.139419499128666 9.705522670472625 12.816184023098792
