53
Energy = -239.39812558 eV
Ni 13.313844246601041 12.488109857345023 7.82621934346731
Ni 11.236970986709295 11.236721027900442 11.021525075255681
Ni 13.68948938357422 15.186324174638639 11.131937016932751
Ni 12.46695698485295 13.228167533367394 11.04894536764343
Ni 12.518300175918938 14.505081323303498 9.09532334103673
Ni 9.230005140967503 11.236019868171764 9.803643390609441
Ni 9.15825186597922 9.982936484220126 7.825680582027277
Ni 7.917326271207329 9.202505748549598 9.864738094455161
Ni 7.945598544180673 13.260160129146495 12.340786194469175
Ni 10.005579736557973 13.228445279034938 11.048808147261958
Ni 9.978350004720605 14.49722968335355 13.122080518195592
Ni 8.783485077609685 15.185899151586456 11.131703066703603
Ni 12.494176508473132 14.497353694356036 13.12212960530676
Ni 11.236177843116758 12.521008850331182 8.96760528628824
Ni 9.9543431367811 14.50494523161688 9.095211965418375
Ni 11.236540541504208 15.292184799441959 11.096918167371333
Ni 7.250634044451583 11.236216554717789 8.687704289180422
Ni 9.158439439614384 12.488234794521578 7.826124829139256
Ni 7.147446710367382 11.236669199476628 11.105147300950554
Ni 7.917170122496785 13.269963755285826 9.864599047639238
Ni 11.236211574383374 12.464693441007308 13.062066466057274
Ni 9.208148691456294 12.48850971699533 14.359863925084875
Ni 7.301538366973477 11.23663366953502 13.528664833516258
Ni 11.236021258957745 13.666030938880395 15.02969904396897
Ni 9.232064645520602 11.236473614958989 12.281527397691514
Ni 7.9453565239402755 9.212754738894823 12.341044119395603
Ni 9.208098073609476 9.98482360662556 14.359864730431616
Ni 12.517950671098522 7.966354434363728 9.095219340528725
Ni 10.004833026649827 9.24280128089777 11.04879976733827
Ni 11.235907785682103 9.950641481693697 8.96729466743381
Ni 9.953851524934414 7.9666882081899315 9.09517885319043
Ni 9.977724749258481 7.975439986738662 13.122596793680827
Ni 11.23583986330882 7.180082191477839 11.097137789313956
Ni 8.783270126677655 7.286790637629935 11.132344818521954
Ni 11.235895069401188 10.007226450147789 13.062617057242152
Ni 12.49375353208775 7.97506125498442 13.122567824388062
Ni 14.526823994244543 13.260057197020346 12.341190122890126
Ni 11.235595458740727 11.23639588188773 15.132387755437966
Ni 11.235618255357753 8.806719838450096 15.029957377586689
Ni 13.263816770844501 12.48819730809108 14.35984690145053
Ni 15.170697721861705 11.235964610674962 13.529128881017433
Ni 13.239558398839362 11.236038841159603 12.280992637634995
Ni 13.688750410887483 7.285682309481296 11.132465981660891
Ni 14.526633597888807 9.211919551960092 12.341329855634708
Ni 13.263329387274654 9.984476233112991 14.35965124899923
Ni 14.555377117332927 13.269929587302801 9.864968846609543
Ni 12.467082050578242 9.243005049440198 11.048963091136702
Ni 13.313744313946803 9.982549271043084 7.825946764690331
Ni 11.236093556057114 11.235929839151236 7.067843633299863
Ni 14.55487859709796 9.20172319192885 9.86508430187066
Ni 13.241435298593418 11.235637886885037 9.804250079707888
Ni 15.221372462854728 11.235645827686236 8.688033712860602
Ni 15.324714207946093 11.236018481280249 11.1057150504327
