51
Energy = -226.50117463 eV
Ni 10.540003270339227 9.939636815304405 16.838325428320093
Ni 9.494528556342534 11.440568550594275 15.393065594975257
Ni 8.369854527139857 13.093019862321597 14.112306630380822
Ni 11.884681538875302 11.444825891458962 15.582071157190995
Ni 7.421708405259677 14.79956945724051 12.822706656296823
Ni 10.805925899822956 13.04855149494076 14.230429530415023
Ni 9.754707228346028 14.790134310671036 13.07908082676534
Ni 13.180267878115508 12.895315730942315 14.233863535242019
Ni 9.585959666927788 9.121525039333903 14.790257550810132
Ni 12.017098608215615 9.14305190957394 15.274354944911744
Ni 12.076470571037914 14.835259022978436 13.41436455226877
Ni 8.313692133941023 10.780277608647618 13.423993125867412
Ni 7.347018005509679 12.59395863088513 11.919648186747935
Ni 10.879967209515387 10.562447830031322 13.525955096052977
Ni 13.370709225228811 10.59425282863138 13.767445432441086
Ni 8.809060364475982 14.310672023099585 11.027810560700814
Ni 9.61629929603541 12.35366820423717 12.20211229167589
Ni 15.154199037700028 12.115301010464995 13.099003120985302
Ni 13.617312778948456 8.22422641008637 13.820921609226222
Ni 11.99719200714554 12.22389335822929 12.189809335002675
Ni 9.160885300547875 8.804566722732265 12.441345644431001
Ni 11.327082722977835 14.45676906867208 11.207359268778761
Ni 11.243114725938879 8.075553413648668 13.355537809143138
Ni 8.20253838198834 10.585768547776125 11.02637262908268
Ni 13.80613240524025 13.884627506366188 12.163247824031327
Ni 10.558844437269915 10.245222643315572 11.16203166410374
Ni 12.110250683638222 14.875284655301463 8.95426283400486
Ni 15.405820142052809 12.926554110158618 10.671000717015433
Ni 10.676819235947344 12.469448872953675 10.030663330426595
Ni 15.05403273135204 9.522756388141548 12.470651107831886
Ni 9.861021583902637 14.433600657316521 9.003499472338653
Ni 8.330161905905275 12.535553677032787 9.590560160768224
Ni 12.834329904722217 6.886436676474601 12.06963972531857
Ni 13.99641191487845 11.298792835584251 11.364924578766345
Ni 12.716206383303495 9.294924773660162 11.787618245119273
Ni 8.97394880205741 8.563125595293608 10.043231741307858
Ni 10.887596983596099 7.762909984975016 11.057798480756663
Ni 13.098265437290557 13.108996445033608 10.100981015621583
Ni 12.331780221645067 10.704513959443524 9.6579920398106
Ni 12.214805594313932 12.683761280389165 8.01049651759974
Ni 9.834585863007277 12.488342763880082 7.630694837311573
Ni 11.02939099359352 14.420158610725727 6.900412691836674
Ni 11.097340328007208 8.787255114334664 8.902567806837904
Ni 14.578334620680616 9.481278295999898 10.099757828880135
Ni 9.556081943504278 10.583070392136536 8.981936334505324
Ni 12.987538657725548 7.823433557765708 9.915421893516212
Ni 14.387872128187576 11.526867468659473 8.846143937753322
Ni 13.449268097839244 11.265952698461028 6.647366458528978
Ni 13.319382347584614 9.340374869611349 8.059984194481215
Ni 11.310057493906827 10.56526537840264 7.347719893046915
Ni 11.467888435343749 12.346796802321121 5.819601358817521
