54
Energy = -241.49343306 eV
Ni 9.856868822799147 14.359530257314415 10.263274749894054
Ni 13.371304509333022 9.721455746777055 7.597825069053053
Ni 7.766514439173581 13.587900255215597 9.199606047631368
Ni 9.996631655476866 13.005987043641927 8.446218156742702
Ni 12.096401792818959 11.316827000540219 11.982770114087172
Ni 8.046971824470573 12.295354883839236 7.030254301370652
Ni 13.115887345120042 10.715142234667953 9.873133047869421
Ni 8.0242454977571 13.791782031679992 11.597550469361071
Ni 10.145257949597765 12.716595940729158 11.870018376776958
Ni 11.947697338474345 13.061304187653805 10.077289878580906
Ni 13.583979764887365 9.257800992193921 11.816636170585124
Ni 11.92826889841375 11.652038039784369 7.946799578607611
Ni 11.161790521771874 9.784011460559569 6.361641852664419
Ni 6.663204942781597 11.56434559025488 8.78147349831187
Ni 11.37933739500376 9.45505112521913 8.654586542586907
Ni 9.3406008569262 10.74594024742773 8.116942808295825
Ni 10.293988734418814 12.039757034382381 6.2748847400638486
Ni 11.520643141266099 9.081427344933667 10.998068649100487
Ni 11.647017028122473 9.438366035541863 13.341881541321246
Ni 6.341955882567965 12.241637199540284 11.00412662054282
Ni 13.265168856398232 8.261271373656141 9.562781576782161
Ni 6.574146591904935 10.340303906289643 6.740969008245143
Ni 8.034489224501948 11.68928402929485 12.71590611945748
Ni 8.5033085123248 11.690084553830536 10.288938046032468
Ni 10.287217187192967 11.37769602392761 13.8518225454939
Ni 9.727731204644565 10.284530691621901 11.987032561954027
Ni 10.739930110674274 11.200890056810419 10.029007190001067
Ni 7.148176783021425 5.679129054943058 10.681657020019172
Ni 10.577517824334224 5.849912061757974 7.592283641419836
Ni 6.446686618737421 5.905239733290662 8.403505242368192
Ni 8.36404215583689 6.096404128749068 6.952967649421554
Ni 9.51717784068786 6.12805942272204 11.067105643207375
Ni 6.116011355784619 6.45941879481142 6.111733453907572
Ni 11.001433686102612 4.8948819532386425 9.802958754936306
Ni 6.086893442417001 7.750204787201852 10.018235711751547
Ni 7.848775598143462 7.737489220803622 11.61047661953438
Ni 8.292658185986651 7.074839433332862 9.180054756687438
Ni 11.999633380576421 6.770259056428454 11.284561757907436
Ni 8.74032553930608 4.852088494306916 9.028012712759201
Ni 10.043861873375548 7.440009823565859 5.738800636925032
Ni 5.592077079889321 8.122195055109433 7.704513203842708
Ni 12.039124934234682 7.708483556797712 7.253977400362511
Ni 7.610968635913171 8.197507742251965 6.272957638190063
Ni 8.844609601297318 10.133530617499549 5.902729134898187
Ni 10.790108691860661 7.280987108389501 9.407602363867195
Ni 10.046677128729465 7.934461297684546 12.43779059129221
Ni 5.233106654959509 9.858748029309654 9.35866851406849
Ni 12.748827345429623 6.07841662948595 8.897717380259639
Ni 5.472797552161244 8.651310406483633 5.455948712372768
Ni 7.0455771526401865 9.903691918808377 11.087791225458693
Ni 7.394371474744035 9.282017265725504 8.663306566582687
Ni 8.14602343633023 9.341667112628384 13.274557218182881
Ni 9.286377502348584 9.10866168039976 10.042680714898978
Ni 9.511371208082386 8.389843038700361 7.661739185218066
