52
Energy = -232.13908663 eV
Ni 15.191762199054297 12.705443863055123 10.978823844195931
Ni 12.246124169762568 6.831915179761298 13.54231716936964
Ni 13.980660397477306 12.83771217102441 13.0580806619666
Ni 13.177453295242723 8.766209726664208 12.652319417320127
Ni 12.692811451274821 10.899618313728297 13.794770190619356
Ni 14.16393683654681 10.742584814833416 11.849178632111911
Ni 12.456765136999723 7.078879570411492 10.993973736744438
Ni 9.907067481055387 6.998416914377666 14.100679111886803
Ni 11.3040198413679 8.997322540307351 14.304670031011332
Ni 10.234918080014252 11.00685484341668 13.538162927995327
Ni 14.326265750581017 14.73389944556609 11.630109733032722
Ni 13.228009424184801 9.224617456910348 10.205025519218774
Ni 11.583566008456154 12.948361093684774 13.266892744332159
Ni 12.220047326785448 7.709039733980835 8.599244075670882
Ni 14.009485634870668 11.398194874795267 9.495344655345146
Ni 12.635864527440514 12.534346806166623 11.182803654436867
Ni 13.564685419392552 13.846395298973784 9.51722749526103
Ni 10.812792110604219 8.15747139358517 12.230050943891786
Ni 10.637770654509858 5.76429632896537 12.203222995604605
Ni 12.883024370937816 14.92785835658224 13.482975774648578
Ni 11.696635917194639 10.37765659078053 11.73599149466998
Ni 8.809744224418978 9.050166732724191 13.613813374972414
Ni 11.58085646997422 11.151309468917637 9.44004385799753
Ni 12.648368727980195 12.42329911328811 7.784089121563838
Ni 9.8558879935347 7.475672000950521 7.965687932296039
Ni 10.266836390756373 6.639115554486276 10.089326744351728
Ni 12.024580242231714 14.768519120361624 11.294034372990884
Ni 10.831900385847069 8.908316001100374 9.930783642712349
Ni 8.706013123030086 7.249805965714174 11.940757579083494
Ni 13.03381449572567 9.978981109694473 7.8947584335723455
Ni 11.609118218439932 11.082376790593417 6.11102312357836
Ni 9.326987243312946 9.878164797215666 11.485282775404766
Ni 9.231514520596514 10.60302239289142 9.233425027409442
Ni 10.773758041510101 9.586612925564866 7.611118682612714
Ni 10.212122512711428 12.199330944429208 7.671346005641392
Ni 7.946192717133008 11.222506636313911 12.852354730664707
Ni 10.06209288839203 12.170276705322214 11.242155991985445
Ni 11.154694424859594 13.5390219164392 9.414498682640811
Ni 9.223093963652692 13.184073161411039 13.338796110777917
Ni 8.476106710909223 8.23772933584707 9.79307147426255
Ni 8.26067012593724 9.155410720163774 7.531248442126663
Ni 10.568511505778853 15.119332916656399 13.153608965538353
Ni 9.785619430710202 8.602798836110583 5.809810674200081
Ni 9.675471370393835 14.538494641524075 11.046164019606522
Ni 6.717280275536392 9.659373651138878 9.206277770671292
Ni 7.168238512138349 9.157182617516694 11.641928712096092
Ni 9.17558759981279 10.825623082871173 6.157224006567033
Ni 7.6338811507670234 11.540798474718207 7.921430183207102
Ni 7.442445940954295 11.348786430378988 10.52994445022901
Ni 8.770067925688327 13.051219928463793 9.394552749367238
Ni 7.699319739549566 13.355855375797944 11.592347481488362
Ni 8.27236519844226 15.27057595536059 12.806598635121977
