53
Energy = -237.19601053 eV
Ni 15.41662471820661 10.29563776200507 8.353625786129978
Ni 15.619445165432191 12.36129676642219 9.32620417366692
Ni 15.301693766482442 10.449859669256528 10.755211401884743
Ni 14.629309358357485 8.358965101992348 9.368373964229308
Ni 13.907782388118397 10.785046248848145 12.823904931819868
Ni 14.481895810508476 12.679105232545982 11.45018963607983
Ni 13.852712341811337 12.038650121903213 7.584880851484959
Ni 13.30990902654226 9.251265063351108 10.981547349051676
Ni 13.420678778567495 11.464599720742504 9.77464151878034
Ni 13.18093808592198 9.725562302295279 8.115008249273986
Ni 13.919737393916526 13.884721101318096 9.278413468435218
Ni 12.333957100787641 7.166926372798559 11.669790049326613
Ni 10.535341248858579 6.589751952443014 8.085155974831352
Ni 12.141659731288312 9.112759725964837 13.122950069593985
Ni 12.212119333338768 7.85909477170706 9.2670536887293
Ni 11.921868478180885 11.056998704276284 11.65158546296513
Ni 12.762825043050675 12.895317774276098 13.09968864400664
Ni 12.019441558296892 11.088095398465702 14.452182498210515
Ni 11.23893011929261 8.788128114749092 7.211219460429959
Ni 10.319382348201755 6.675717612689845 10.459621454129572
Ni 12.293153520698645 13.44466162982188 10.871133633086817
Ni 11.875710149391784 12.954898160597267 8.599094213682541
Ni 10.19018754027773 7.683807795569756 12.782047085986468
Ni 11.592429111297843 11.187298828980062 7.006666996866588
Ni 10.965233437556224 8.919406575499757 10.992948878022604
Ni 11.141796462634558 10.571934658930207 9.243479096695905
Ni 11.114077643379076 13.526260012451814 14.645766094179505
Ni 10.055522099519086 9.698040433676075 14.163612008365353
Ni 8.284918672394985 6.819693084368175 9.031160575015237
Ni 8.982210505493622 7.887170616693782 6.875740112189616
Ni 10.331501207749135 11.992128894342931 13.128786863341608
Ni 9.76107484208623 8.599007510869496 9.025770589196817
Ni 10.676918647874345 14.17389506056175 12.336568196957412
Ni 9.722030897008779 11.761077540783697 15.341068244638322
Ni 9.37550069944182 10.254302975412386 11.938878443436455
Ni 8.523278554188282 8.14683653741498 11.071146857084063
Ni 9.696268553214876 12.337912152340763 8.183028270510455
Ni 10.144027461977535 12.28369486252743 10.662309504015365
Ni 10.29561962117664 14.40385106574348 9.842704754918595
Ni 8.060290177084479 8.709377305595586 13.292288085544003
Ni 9.324570232582058 10.23048171750312 7.3418774734420955
Ni 6.439715954362598 7.958194660276233 10.201425451936704
Ni 7.47438633394093 9.004226628361137 8.30777453169364
Ni 8.045319682827566 11.024108087066 13.786999609405525
Ni 8.544276100422097 10.645695754826484 9.760107696228184
Ni 8.744242324400487 13.499572884732167 13.778069950606378
Ni 8.017470124675915 12.291264069741734 11.828003589560094
Ni 8.533520703592162 14.532567769266723 11.53848807940284
Ni 6.983630405874369 10.045516370406933 11.542817402295267
Ni 8.152520870105755 13.265477481358666 9.592816615929733
Ni 7.285041088353142 11.505276080757064 8.06985722720976
Ni 5.822439961009186 10.053928808890523 9.438360511284287
Ni 6.32252136561673 12.074788399074325 10.27708709829448
