55
Energy = -246.75143073 eV
Ni 15.264970600296314 12.358894617126866 10.98932263550615
Ni 12.378080157294146 15.162429625491212 9.719958293597992
Ni 14.484940298040302 10.660183609778825 9.420904258050063
Ni 10.023590443551164 14.876409335192289 10.177085087453305
Ni 9.028150452855678 13.043426002747236 11.385227750437632
Ni 12.641613875525625 17.877413864960747 12.784123553450335
Ni 11.495897586668791 9.784462223393893 15.285577610936462
Ni 13.499069490813744 12.944034451085017 9.507974911100868
Ni 16.02151812694227 10.004545860138943 11.144218156386923
Ni 12.761838926878811 11.394449394337956 7.856882376915408
Ni 9.911563790945571 14.891468094756116 12.657491640706699
Ni 8.424100971381202 10.977307548410991 10.165205942515229
Ni 14.056644860254774 15.985413372764265 13.032177242638568
Ni 8.899398062204707 10.649094107718714 7.9198024710850365
Ni 10.532759932993473 11.987228068237437 6.916314951215216
Ni 12.253987249655838 14.83625221060829 12.11681644117469
Ni 15.203516856223786 8.635713418283828 13.225834262452365
Ni 17.382741379330888 9.553636165144615 12.98327853546523
Ni 13.371127747032638 12.767746292123944 12.368656457566907
Ni 13.849159945562935 8.90692370492024 11.171397713371226
Ni 16.525322461846855 11.768262704662659 12.928785523095279
Ni 13.147906536921015 14.156611526608836 14.301513228442404
Ni 7.9112079850397485 11.207721572115966 12.45646977331261
Ni 16.05440162055935 10.319303252670188 14.710751887262482
Ni 11.460154851872788 13.552066248779802 8.343394158155183
Ni 10.023825064190124 11.897680090654545 15.737969346836985
Ni 8.832461267921193 13.052397112803078 13.830356416518656
Ni 11.122555288435965 16.660451920021796 11.412988745039033
Ni 12.126025968233929 10.613888547328484 13.120804733187713
Ni 10.365942740883348 11.03146377941096 11.484347833483083
Ni 13.474107153515321 16.827689002651848 10.91408446784326
Ni 9.794581361830435 10.767780530008713 13.775479484600181
Ni 7.77414561300412 11.241248589222339 14.916202317780932
Ni 9.240290135966264 12.90180352503394 8.965502639981429
Ni 10.78818342011586 14.077773379475547 14.913302174852342
Ni 14.360252781984034 14.606634619135658 10.983522672274319
Ni 12.29776812930036 12.057703530877717 15.030489031121622
Ni 10.368450617731243 8.527765432662848 13.57579875428102
Ni 12.788017784954251 8.408905454569632 13.366209869338777
Ni 9.98499871673128 9.158906451690381 9.534658302066124
Ni 10.892380656355671 11.274207404853303 9.16186424018509
Ni 11.020909886159922 9.702481453814322 7.3820938955653235
Ni 11.445791789023856 8.87756470794155 11.429610377400895
Ni 11.40859649557486 13.092462970962995 10.692979766372918
Ni 15.345291540100312 13.90592426761904 13.00390715631815
Ni 7.9668291300557925 9.154924414922679 13.759236825037299
Ni 14.61454696189569 12.22814185538712 14.478903936773094
Ni 9.233609905963123 9.52175529177324 15.697816639550249
Ni 12.719774924724792 11.04392521027326 10.828606429480514
Ni 9.001953206945547 9.126137400236917 11.678754547928918
Ni 13.75799170877438 10.014494489810374 14.875399808533952
Ni 12.434232929361327 9.306842483650156 9.231840505009252
Ni 14.47400145319222 10.697808297162103 12.646857707462171
Ni 11.06452014398125 12.784317239666159 13.04820902980874
Ni 11.64688651240183 16.088510774320277 13.905624983074075
