5
Energy = -14.82867332 eV
Ni 10.20863743197601 8.620844301981654 11.257220723170953
Ni 9.970344756509807 10.45253349412942 10.039176357667042
Ni 9.11847111315056 8.37099787982358 9.335765504763728
Ni 8.629047092087122 10.331080180755352 8.157962741984695
Ni 8.186390187432115 8.332326383571845 7.326980721040442
