5
Energy = -14.83953339 eV
Ni 7.976164104744345 7.543375556854488 9.615597112512521
Ni 9.21636530950388 6.883402259477072 7.757741181324419
Ni 7.644181294268941 8.607738887507496 7.538913742410446
Ni 6.723631536395012 9.36002056207655 9.409932256624328
Ni 8.602586207697893 7.659520221050749 5.778553305266163
