5
Energy = -11.8814359 eV
Ni 10.942537573075121 10.707332333370598 15.583817783512997
Ni 12.633967093120011 10.417328255027071 7.3796152092730285
Ni 11.124717004879432 12.605253445655054 14.485156632904465
Ni 10.987765694409292 10.786407347811407 6.138335753969938
Ni 10.008221959015453 10.9198075331964 13.601248659254015
