53
Energy = -236.64948013 eV
Ni 11.203616056347133 9.839524336042626 6.904822009047162
Ni 11.532580343445737 7.700591034820268 7.88462419014613
Ni 13.479251125622438 9.142493747005176 7.213105360964571
Ni 9.37897691962935 8.148698612864175 6.994280444623366
Ni 9.248620701666315 7.053927738492055 9.208139371231185
Ni 14.948788373064623 11.006086410779583 6.934179257658138
Ni 11.49997145152641 7.522701957788014 10.215807316586965
Ni 9.074659950266929 10.562055312872465 6.788025129043347
Ni 12.763552867615134 11.426494849454086 7.577573188579034
Ni 13.637460525462734 7.995103886304887 9.293599607832709
Ni 12.092566968244808 9.662619714531314 9.157584331779038
Ni 7.612030682999525 8.877298738535826 9.916463408261382
Ni 7.91931718524493 10.857539990275582 8.776641632086251
Ni 14.425393482954675 10.341213501378329 9.110845118246806
Ni 9.919220139572241 6.053594359923621 11.281810437968634
Ni 8.46684189894719 12.726429572817501 7.365694860964318
Ni 11.30464649298545 7.478448396752043 12.558545365304251
Ni 9.757959702462477 9.298295726343001 8.920119405386583
Ni 13.746273495620446 9.606649254929494 11.211212964417543
Ni 10.768530715040098 12.463963338515947 6.700398613623876
Ni 14.51511045734487 12.642216697991023 8.578175939667998
Ni 7.683198364582193 6.870219935097447 11.237467549302648
Ni 11.47934585263165 9.723732916911551 11.477180053990212
Ni 9.530238555917897 8.417456144474055 11.227846817251306
Ni 12.383445625330431 11.655261604689041 10.307603815538299
Ni 10.425733183981867 11.562454263913894 8.731768789775078
Ni 9.010090927506274 7.218104493647587 13.226595339665742
Ni 14.515917259824638 12.04451903957535 10.925411283631664
Ni 12.677089354745123 9.111620419607315 13.449902908392607
Ni 12.23684527028203 13.430994183900527 8.6578082525282
Ni 13.855475368946927 14.264519386710177 10.101808854675896
Ni 8.280392832542766 12.90451419124675 9.717209343042473
Ni 10.004766942430297 14.093512467677842 8.505495781378226
Ni 9.364191926984102 10.81305423449028 10.846207881205965
Ni 7.467078784848592 9.109495669086323 12.239583857363305
Ni 10.15270748287913 9.3980927108377 13.464329737755293
Ni 10.502963524955293 13.032479439029288 10.60498895276716
Ni 13.092397025089925 11.328798990465037 12.731898451253006
Ni 7.114789615619853 11.19150603097209 11.080732326400858
Ni 6.718449430196778 7.313956219575176 13.446425087384135
Ni 10.728631473392907 11.751694526576983 12.635816935308899
Ni 12.601406675294944 13.487789957813527 11.855276077924076
Ni 11.545204304140398 15.066728428337427 10.31864472616472
Ni 11.712514768582686 10.85018860782967 14.659872097804866
Ni 8.056866128682842 9.002143326754188 14.52050340062858
Ni 9.144972951932997 14.938710577909372 10.640188897976158
Ni 8.556194440372963 13.012172394425699 12.054177831777775
Ni 8.362892360809274 11.0341637149317 13.231152037904325
Ni 11.952917321654093 13.159711296829913 14.096193062711084
Ni 9.44798078789838 10.790450741333599 15.297485575266268
Ni 10.498098737746982 14.376465202430985 12.54883391489634
Ni 9.55638692631901 12.955286221113024 14.262488335546156
Ni 10.884586827224457 12.47171015034642 16.116780025528605
