54
Energy = -237.87230803 eV
Ni 13.723896514733731 8.747964964895042 14.29970449372145
Ni 10.208309792575252 12.421173479846125 7.957448297136003
Ni 7.433418479708344 13.409910926493433 13.03578345497428
Ni 15.27432060010015 12.352699187292108 11.275525575753555
Ni 11.743430980591093 15.323446363115085 10.379569340586897
Ni 8.405619969890283 10.649754129970287 8.277175694216195
Ni 13.982795714459773 12.160876515741073 9.19142615443591
Ni 11.379141722811616 8.529718275560922 13.089577074213176
Ni 12.02914313590053 8.756748676061015 10.532613455064634
Ni 13.34322975294437 10.996319187274873 11.215614994404909
Ni 10.298529952083864 10.50634175298796 6.7050635511598715
Ni 15.174293982731763 7.34042343985138 13.002170499726946
Ni 13.81596778355108 6.741694180363843 10.985734195282358
Ni 7.412819407843244 12.180737901550039 11.015797066591603
Ni 11.187702347105574 12.435753013717973 13.412894000979259
Ni 11.88887798739007 14.592683687555633 12.643302080009823
Ni 13.47888612481071 12.7564549347075 12.831779003908707
Ni 11.632428805831466 16.88625720858195 12.117012001503232
Ni 12.623072082265836 10.596987323398704 13.481989682647068
Ni 8.198568488233041 8.142547682666008 9.443012253173563
Ni 10.698925971728189 7.243589675884543 9.116853068720026
Ni 9.571577556100564 13.519148873952249 11.940944483675667
Ni 9.44548324076534 13.754449794616313 14.251764524652422
Ni 9.866699645941138 14.207251187227008 9.55809683815055
Ni 10.170419745171689 15.836633301577038 13.64725477874892
Ni 9.73721376671756 8.057867840233472 11.266739458937312
Ni 12.112980921263796 13.558226317266278 8.818953569816426
Ni 12.432982688099937 11.490331159200537 7.366553833339543
Ni 12.286040755713547 5.44409839539729 9.62173498110776
Ni 7.383712623894607 8.122478452802465 11.792382041084391
Ni 9.447767858840667 8.501222193314689 7.472129188928755
Ni 10.499459798870097 10.357098680383894 14.370967373653917
Ni 10.053884668286194 9.56515803367519 9.42836974470921
Ni 10.757248437024858 10.532316794311432 11.76327465113486
Ni 8.93669739973568 9.235134986548324 13.103942233366816
Ni 13.070281715625335 7.458589649412288 8.849189474338067
Ni 7.756814496644865 14.527726945114372 10.756761746731264
Ni 9.665020957844488 15.772664211175837 11.423765265187672
Ni 12.976867753959617 6.781698258077108 13.219344973465029
Ni 14.901369270332555 10.704569394269251 12.989052570993552
Ni 11.779721527539198 11.092509526485514 9.471735555266957
Ni 8.242825536433342 10.035982094383694 10.870332475876827
Ni 13.755648103744424 9.74703616362541 9.187605771668828
Ni 15.510825023781514 13.836143772016332 9.508484789266655
Ni 7.983539772341302 12.99924871732702 8.819173503505652
Ni 11.810328273578893 9.17789100660344 7.8776970507599735
Ni 8.902283674814923 11.596164447862412 13.189844714853024
Ni 11.647408191161647 12.837412823008915 11.04478229907833
Ni 11.503092576078725 6.6192463569010185 11.440125775304029
Ni 6.881509455680449 10.548863696796497 12.662399845902863
Ni 13.821652078547539 8.862120633459243 11.994366702666198
Ni 5.749170897914224 13.638294090072183 11.490219523795451
Ni 9.566751972953787 11.887147978022007 10.151387340565591
Ni 13.641898186300647 14.052628098061616 10.790050991962692
