55
Energy = -245.6717446 eV
Ni 13.823959398857294 14.109046543707692 13.720844108258966
Ni 9.911020206620531 10.449835298476584 12.794840372965261
Ni 13.643925929250395 10.42472421708279 15.880968739050429
Ni 9.798360288968949 14.08501929533808 14.854164005104117
Ni 13.86594434557062 12.880414715793448 11.582445864385598
Ni 13.707595116657144 12.876669237247201 15.845402140672325
Ni 13.824189598532717 16.572520234683182 13.856131198223558
Ni 13.990259092828548 15.55055190462436 11.755426826154928
Ni 15.693093594407465 16.428944572714077 15.265332931894642
Ni 13.826288220659487 11.63944324844035 13.715501291814332
Ni 14.006775653996502 10.182490044049556 11.75595638521008
Ni 11.64182929304374 14.08195549596803 16.413878123602085
Ni 9.796907967590421 11.661906214813818 14.852300268354165
Ni 15.759868253165353 14.13142359283183 11.021090454757475
Ni 9.682297371777587 12.874777313581001 16.87745035219456
Ni 13.823456454868483 9.175198525824944 13.859732228727525
Ni 15.759068445183116 11.62911933392456 11.025094317766339
Ni 15.774911923937585 11.678144552220179 15.237789797090569
Ni 11.804655880304754 12.87363032140645 14.266092174768126
Ni 9.886170568032702 14.073070564295918 10.716832611057905
Ni 15.692658321214687 9.329181719480525 15.266436218036484
Ni 11.79212245396013 15.360618544739673 14.381046682898647
Ni 9.892660178481671 11.68313342953578 10.712760519595472
Ni 13.646295562288044 15.330449776969319 15.881002661198213
Ni 11.79245603584314 10.391396020837082 14.375514734598047
Ni 11.933324143656955 12.882092249595662 10.15038158371402
Ni 15.775532868415674 14.079826457701792 15.238996699833569
Ni 15.876198375796966 12.877659032759228 13.123316950262383
Ni 15.22811869464933 12.875559753759982 9.04564770195544
Ni 10.169516655922928 12.881055319868269 8.628758525704495
Ni 15.850479477855137 15.295341896295817 13.153310558445302
Ni 12.67285019228474 16.579726438873195 10.1443224465097
Ni 11.426577754632243 14.958425293925567 9.035262533862248
Ni 15.856956304740876 10.460933492225905 13.155612504043008
Ni 10.402666111511396 16.350687939907292 10.669279570518642
Ni 11.432838635174825 10.804267741594796 9.027855388249506
Ni 11.899762016518494 14.210311947885415 12.147614231232456
Ni 12.676631469064956 9.177506417948063 10.140015233122547
Ni 11.313998684247442 14.048892408745067 6.9321689889297495
Ni 11.933018805620721 16.60890563056157 12.403963902364405
Ni 10.409808493560426 9.406347797297038 10.659435343867221
Ni 11.305587881812283 11.714850188201346 6.9256508624172435
Ni 11.908441359328648 11.534767863100464 12.13711223242699
Ni 13.719799865973057 14.498924496410245 9.677417721395761
Ni 12.973210468364941 12.875144522678035 8.074652858375012
Ni 11.936936982534853 9.140799827391406 12.399620773862242
Ni 13.717608896434967 11.260568693966778 9.69122097677689
Ni 15.548258040482354 12.877840964916878 17.342368031779653
Ni 9.837008899133066 12.874890764010134 12.765198556892244
Ni 11.639552373500006 11.670495283155116 16.409391411673113
Ni 15.503671797129869 15.233255407809752 17.3109855640165
Ni 9.908775755328096 15.302086862967196 12.80290080264483
Ni 13.520894540723349 14.065068733736984 17.909561559694243
Ni 15.5020803278623 10.523667272795109 17.311869898570727
Ni 13.51931338116399 11.6926239907936 17.90826098794615
