50
Energy = -171.58722702 eV
Ni 17.535881819745804 13.643765735717 16.29160816081179
Ni 15.260743336496358 18.93300784417451 0.17148828246039938
Ni 17.399987698349683 15.103002743890679 18.073697370650326
Ni 19.85470316338342 16.360997421147303 18.63697470499062
Ni 17.04114550162551 13.474267494719632 19.856392253167826
Ni 15.40012920734073 11.865282971118583 19.749876993917166
Ni 18.25874900031962 15.303576518057351 14.905131321686566
Ni 15.888284496313036 13.214553512699228 17.89629593512873
Ni 21.40325621719206 18.649374841145505 20.720532295205608
Ni 12.905353805807376 22.443667049189898 16.37090035353569
Ni 11.177650764354329 16.696797643173955 16.11107885651938
Ni 15.39476138074679 17.531070087986386 22.694782241916872
Ni 13.796725644349479 17.37865018042247 -0.03490987755478605
Ni 20.618673992096785 14.780685456743809 15.007719984734374
Ni 19.46196063581015 14.737055666797385 16.986993845713965
Ni 12.224085646741589 18.736926713447136 15.504343353831706
Ni 16.18615512209126 22.454420599931723 13.4073011485064
Ni 22.727948643524236 14.399072342277004 13.673923005196317
Ni 21.225562337391835 14.412989869433233 18.59074514117887
Ni 9.081295704814336 15.265223096838335 20.121295380312525
Ni 10.875235413356604 15.158233410138111 14.477559110336637
Ni 11.421659535990184 20.669622387283038 16.459355617965297
Ni 20.85181044101906 13.684471541474759 20.732952651240932
Ni 22.58005633787539 -0.4260124206663115 18.31142192000223
Ni 21.504515254889803 15.986591313607667 16.954232490150428
Ni 22.43924473825008 20.645366837434803 21.421728010467184
Ni 19.317904223106737 16.24489627982335 11.739934400572148
Ni 13.100693652777853 20.70667622663219 14.850994185869585
Ni 11.775949144405434 15.602327857476102 12.426564883957054
Ni 19.062753824371867 14.385375139365893 19.485814577791828
Ni 21.48802532814685 21.945563040165865 17.80949142643599
Ni 10.042205843026263 12.011771430015598 12.831081725262926
Ni -0.32718064659580404 14.1694892163398 11.870134436293476
Ni 17.40706245547789 17.171889885237295 10.857353511655857
Ni 19.282361817843622 14.234955641255882 13.074639738901409
Ni 17.30455887115723 15.613533335129347 12.702930719621651
Ni 11.007121524896526 18.639395312353972 17.52271985930536
Ni 22.248399500737534 22.36842943675231 19.94035192218663
Ni 9.352850276497502 17.120335054225496 17.354142439432678
Ni 15.234772535224074 20.587014026903386 14.137090536376448
Ni 14.331158903489955 22.661447371289274 14.628288090033461
Ni 21.507223807967616 17.883615896547287 18.551897720181227
Ni 16.81293339084158 11.885086564950344 21.52888862733534
Ni 21.855436191601083 20.18544586247137 19.159408083931226
Ni 21.756989358233188 14.171228429805751 11.538905085924686
Ni 11.355922060468867 17.33632084184403 13.88383218999884
Ni 10.547472416222046 16.0762237042269 18.82658251371706
Ni 21.048641472401965 15.770857369907782 12.931471811209065
Ni 18.882873737469183 12.451375701317383 20.829637377549847
Ni 10.098074130647808 14.090886723576597 12.552145487388065
