54
Energy = -241.40361269 eV
Ni 12.611491847037374 12.895861680436775 6.4098604963522146
Ni 10.2942657203049 12.994035024648898 6.061830031474408
Ni 11.194554862816316 13.98891942915713 8.078537021881075
Ni 13.378324891247996 12.743840008858498 8.781476376957563
Ni 11.306200097574367 10.842197609893043 5.847632900651556
Ni 12.190663389756477 14.458333064100486 10.116975145809661
Ni 13.475093102756281 10.871764802878165 7.22113255871317
Ni 9.029030484833369 12.817641713296416 7.995124193429113
Ni 9.780390250461739 13.88849819822159 10.08128551617462
Ni 11.364089367703645 11.695848522681693 7.976797641116487
Ni 8.783274505273507 11.119829934976673 6.133668665345411
Ni 13.578633536067551 12.846620472714951 11.181516604581256
Ni 11.516252641748594 12.175358687252652 10.235797797177268
Ni 12.93053781150829 10.237406934329519 9.452599822511312
Ni 14.871182253698382 11.25673509816941 10.123578840575197
Ni 11.760425021071672 9.24958202174947 7.6427161480279
Ni 11.229054717777954 13.578116176423775 12.07893662658331
Ni 7.455069690174515 12.946564733052677 10.029547815310872
Ni 8.840023962706635 13.143214749688259 12.180842472244764
Ni 9.941953146585066 8.9226883311083 6.078616086150388
Ni 7.386255340758885 11.072912987410778 8.271022877189367
Ni 9.178551885547751 11.542212626792166 9.956243619403223
Ni 13.09424732676686 13.0449651658964 13.426261613158577
Ni 7.848900316954151 8.994139681916359 7.174702519662838
Ni 9.634119546992386 10.230305926168457 8.02679758732088
Ni 14.583294856068084 11.158752458299531 12.612300040828243
Ni 10.739558154131805 9.804390904430806 10.15021593242392
Ni 10.856347716454827 12.260557805020387 14.011116774588384
Ni 12.824245624055655 11.016130484723245 14.407445699914879
Ni 7.5632115029534255 11.176533672790258 11.784372212175871
Ni 10.195879555210395 11.282918090742784 12.03049461704309
Ni 9.882549016712384 7.874241869572906 8.28465602399831
Ni 8.318442738051909 9.300087606596865 9.801437611771979
Ni 12.465968318678746 10.769801121890877 11.971925231423684
Ni 12.038342407534307 7.8395818041900185 9.535757426897987
Ni 14.072419396301768 9.19951020479445 11.18505938868665
Ni 11.876655780142187 8.400745745668399 11.814638609297482
Ni 8.796155449106333 11.097033300045752 13.891354694033213
Ni 10.948821276565221 9.703578639712376 13.73579603032801
Ni 7.7647029630816276 6.855614884676562 8.104411003008527
Ni 6.308197892693334 8.665796189876385 8.979867084573216
Ni 9.864639669608744 7.6615166685947775 10.70223531966937
Ni 6.014695306994697 10.871038918789822 10.090216730051633
Ni 8.991319081636014 9.276050966944494 12.180299190615482
Ni 9.511340295695318 5.795290768159934 9.422245186838651
Ni 13.383642896287824 9.04381548519113 13.441864984460585
Ni 11.407317699420696 6.102791807189269 11.251222405014246
Ni 8.919785178389084 8.76201625108342 14.535891360202687
Ni 7.571599700744929 7.0391603909039135 10.408299479069306
Ni 6.965830884505112 9.598007871892165 13.572792870594423
Ni 6.577267643004682 8.96277686278838 11.370938361009928
Ni 10.22879369453149 7.360471469551425 13.127660885266206
Ni 9.082597770747338 5.735489449317808 11.768084558584386
Ni 7.774973285177181 7.418445942541441 12.839052995082005
