52
Energy = -231.21884644 eV
Ni 16.859006286822368 9.860929464157431 14.301408968088092
Ni 16.12934488763816 11.527073633051131 12.795752129116538
Ni 16.06976218373852 9.321657438007632 12.163079904050933
Ni 14.988323350175511 11.181245938327793 14.845221855461052
Ni 14.911035603969152 12.563791147416802 11.045516368868569
Ni 14.596616623314924 10.152803756857216 10.392009649130738
Ni 14.701751514022442 8.900354662441064 14.065395915547622
Ni 14.237443056019858 11.937349044929679 8.842073444007097
Ni 14.214705773480276 8.041641101147121 11.754504402400519
Ni 14.432384058929236 12.982689459994075 13.39097481949519
Ni 13.86356502898615 14.220727339553177 9.577289017854536
Ni 13.734937102904427 13.627428887559947 7.255741589217294
Ni 12.433290801958794 9.259126886276349 10.948858575814064
Ni 13.90606510496227 10.556780004042501 12.63601904775623
Ni 13.137461319901055 12.64528439243494 15.425978842860873
Ni 12.470660496499558 8.48378308354274 13.265296079298324
Ni 12.476465880550585 10.281380666568998 8.847451054826513
Ni 12.743115281446123 11.659751684855914 10.948473569744035
Ni 13.075894210309395 14.008712881861731 11.76181134449421
Ni 11.133179543820459 11.437437693449702 15.864736536464864
Ni 12.691442192993485 11.568344884852962 6.948064745359358
Ni 12.23911803791925 15.228611969698267 8.062090228212659
Ni 12.776987789658675 10.334343172974581 14.713341257455475
Ni 12.051343744948742 12.866447238586478 9.005421945235662
Ni 12.812794922339625 14.572141996781241 14.071262557871513
Ni 12.050584047554322 7.0496302299994476 11.338513237419987
Ni 10.761061005716604 12.92613948764361 11.240005273417758
Ni 11.382473696033479 13.49638245214701 6.700026888601637
Ni 12.09135467076607 12.38695113027942 13.31155471977088
Ni 10.763942713033904 13.586901327829572 14.772851945625773
Ni 11.101627988024068 10.447030661653107 12.540735720025614
Ni 10.620613220606826 9.340796199359641 14.582014234841498
Ni 10.969627147555544 14.850568557552455 12.610536130216412
Ni 10.451921375771851 11.596490072695907 7.853321071371204
Ni 10.526977917419616 8.42929717279777 9.864279264608616
Ni 11.582751803758002 15.040533014122486 10.284197425665788
Ni 10.600071577577145 10.780342006550113 10.1674803111565
Ni 8.939813848759876 11.354989265216519 11.816693019814691
Ni 9.63385982812134 11.546051212537497 14.156157429357465
Ni 10.278495000165199 8.238125712330222 12.324576577341842
Ni 9.24675304628999 14.61674684997685 10.809972716929046
Ni 8.876436300830909 10.080035895299723 8.804942448270065
Ni 10.14563991520251 14.133706067544104 8.609048144536015
Ni 9.08303010781263 13.507852626169845 12.997401131152637
Ni 8.615070341001937 9.567553325135455 13.363181835387376
Ni 7.432221823549002 13.152801948297997 11.33472757337471
Ni 8.592485090119235 9.187517396649554 10.973141545884094
Ni 8.92181645423574 12.42714592957956 9.564949603217006
Ni 6.6512878345419635 9.888319602050688 12.188711759438364
Ni 7.3155553365227455 11.826939648421154 13.392326488660233
Ni 7.148597628789198 11.005773386063229 10.202289599183176
Ni 5.554881597322402 11.869147461071293 11.731743477134577
