54
Energy = -205.36542838 eV
Ni 11.225287318425073 10.880056806546225 14.507107619559344
Ni 18.07364853889206 14.974130076170434 9.601824048481499
Ni 17.676476250740517 14.495506834534954 14.24072881521096
Ni 16.94844601688336 16.38430228935044 10.954264577123505
Ni 15.941454114357494 14.840758891818309 12.584115215686166
Ni 17.279916216650765 17.067536179360726 8.807755868505946
Ni 9.307364905884317 6.898248380489353 10.537095027444558
Ni 12.051812179292138 18.57434298280364 13.94419300119305
Ni 17.520063451454238 18.4294754972895 14.678182584684553
Ni 15.294665783708206 10.520390598306992 13.516557660699942
Ni 10.427751990463271 12.291052645506737 16.1330060531417
Ni 18.252518369872462 14.813374542774513 11.98013199311385
Ni 17.99723717596522 14.211772055708384 16.51550397454697
Ni 13.17363192459527 17.77744910275204 10.579680441386916
Ni 15.237436659895101 17.29504433334721 9.743324883235754
Ni 9.765461253493394 9.08985939468967 14.026151822364778
Ni 14.1660897267671 13.522532092992975 13.339650721090665
Ni 11.050561446045023 16.501246807332755 14.243576478290237
Ni 11.063226373770856 12.738714772318742 13.120807619879475
Ni 18.953395853562892 13.119394928630372 10.643957563323406
Ni 12.709869314689032 16.802458711871168 12.614302999265377
Ni 13.115793827358448 11.426338752915742 13.194540213860755
Ni 16.63560547303665 10.676703119058923 15.40228666406873
Ni 16.958231844292605 12.219056650305236 17.069697915474578
Ni 9.65559060567552 14.205180290676369 17.086542350483686
Ni 10.058329266974082 9.973654090943425 16.209304256708116
Ni 10.96679452654762 22.31765842292543 21.54165673314618
Ni 13.869966561672085 19.732725213038737 14.686345637749561
Ni 18.082599025907083 16.00331954602204 17.804881614722646
Ni 13.906406271245427 9.458647182571964 12.133120416622493
Ni 18.799602638350706 12.77203354648609 12.959889162945785
Ni 9.797273544366687 10.84348478108101 12.55001325930362
Ni 15.398559013250981 18.169865017603506 13.994184888666984
Ni 11.746219986494175 9.50642284799916 12.732951333972238
Ni 21.4890020385311 7.91669935623314 22.43830828341266
Ni 14.98162676875449 16.980736442265517 12.012390630606255
Ni 10.518814896919988 14.276246175998889 14.938681975030331
Ni 14.72051129443666 12.064056025568041 15.142182653076857
Ni 8.642586202651477 18.02735298972889 16.911802499380283
Ni 19.177659392709973 11.019080035710974 11.543808914263758
Ni 17.527513624864376 16.417381968188785 15.67347377120276
Ni 12.248247049640716 14.739495097915814 13.402833033039302
Ni 17.65032152791058 10.72959288325282 13.247223506962644
Ni 13.815616095834667 18.96088272998173 12.447455907114852
Ni 22.79436869826799 7.26080983779306 20.903250487995287
Ni 9.600968146830409 16.196539045155177 16.063979212721737
Ni 18.24676372831765 12.324853508083857 15.151432350730001
Ni 10.068236609790935 23.441087206139994 23.08749470311257
Ni 12.500067140353744 12.911017554866024 15.021848321633383
Ni 17.17725963869665 16.682345593210332 13.267474746822806
Ni 16.403278837239615 12.654840385751333 13.619899247438576
Ni 10.403665241204306 18.375797608469487 15.590225675420207
Ni 9.90375530386992 8.669385928193483 11.670262926979465
Ni 11.77334824457436 20.23305356068903 15.519367937806864
