54
Energy = -240.74589536 eV
Ni 8.351913245376839 9.589207089943416 12.899632842497631
Ni 8.858393595900914 7.077992763074765 8.784846419097057
Ni 8.56294226937568 11.148306144620255 14.759655124278806
Ni 8.354670976843012 8.202918659363432 10.909259194641175
Ni 10.255889364837195 8.177373241422048 12.419179312278215
Ni 10.186447636852856 6.520071234116202 10.697296256165535
Ni 7.928445498505358 10.607752389324897 10.736261293307953
Ni 10.384362570458642 9.843371366392937 14.118099522606096
Ni 8.193977873078866 9.315079033928876 8.809954039569584
Ni 10.78209937241343 11.636560442195927 15.644527434872709
Ni 7.967662538697998 11.938481954745741 12.627028400406875
Ni 9.791108795629087 6.672645350301557 6.651013843841274
Ni 11.86905648737267 6.450510814531327 12.397491750911673
Ni 12.196892779263159 8.320946943012576 13.799962620960377
Ni 10.121718000727641 10.690299940778061 11.716787188587448
Ni 7.626054427587523 11.60592176050382 8.625181057803946
Ni 8.138595460462092 8.271246773113402 6.722729273934596
Ni 12.587274854444187 10.151205391223014 15.216701667307627
Ni 10.275956163217456 8.799665959720981 7.544247884037228
Ni 7.543123595602568 13.894736000034104 8.423109469659167
Ni 10.029126581507043 12.506737426548504 13.548408046988609
Ni 12.985381304536965 12.12837446511604 16.38658462595013
Ni 8.950865534250282 10.555599448147124 6.893332877730416
Ni 10.435452730859133 8.789819361742218 10.064233234882796
Ni 7.02776882674291 12.926946612980528 10.663560919596145
Ni 11.165334290885342 6.810337646275218 8.539546430347551
Ni 9.973950685544214 10.924267399421424 9.202050190325867
Ni 12.491200482612546 7.3920155632554305 10.372711458685597
Ni 9.19918520311383 12.962902910032904 10.04764273693189
Ni 12.235060624952304 9.444093570544721 11.68555416418993
Ni 9.491348430581233 12.696350919368026 7.563290692149357
Ni 8.918856771975298 14.023813793883956 12.136356029943206
Ni 12.063365257875414 11.300965128648365 13.227200795261767
Ni 12.31806401734611 8.908561089944449 8.593138615645428
Ni 8.151920920904256 15.158122662022235 10.256408332307645
Ni 13.898254245966326 7.772994695158243 12.156640754730615
Ni 12.084973418197558 13.302073178599294 14.618504936087389
Ni 11.457206401718436 11.021851629468602 7.422992160641086
Ni 14.048992391505676 9.7351757897574 13.362975301098055
Ni 11.33300000129591 12.731654509487118 11.356070757387048
Ni 12.36002043967117 11.032756007261284 9.766965775873729
Ni 14.062294781426392 11.916054804252827 14.250806539017374
Ni 9.66899504010687 14.88326453771678 8.401320795037883
Ni 11.148307117910592 14.554999366944548 12.870071178409196
Ni 11.355521689654022 13.18586319152545 8.94872409843599
Ni 14.107026041405794 9.30678108367669 10.219336058819463
Ni 10.517504151659464 14.912310783544457 10.56044893903524
Ni 13.90198536284498 11.344855703758338 11.666498115372217
Ni 13.31935974351103 13.467798055877369 12.613551766932819
Ni 13.910089830537116 10.260347284102613 7.8133511639356685
Ni 13.340910711165261 12.477810313491343 7.940607305836379
Ni 13.440050001674535 13.22162629372606 10.207548669226147
Ni 12.691053878573664 15.165664402274322 11.14963288721787
Ni 14.84945991557678 11.484770004998076 9.517902194701255
