5
Energy = -15.50425335 eV
Ni 10.227822258924615 9.865633698485139 8.95010889136051
Ni 9.393663711801802 7.972418935870587 7.869027121328512
Ni 8.681277575094416 8.438939374927186 9.955610782929499
Ni 8.016061064959338 9.717404634513272 8.223766642972524
Ni 7.164811477609989 7.556211538241456 8.425495734835254
