55
Energy = -302.09535187 eV
Ni 11.127490798785058 12.756379787196279 5.449396393593802
Ni 14.229944422062156 14.123420066568205 6.602550133822988
Ni 15.895750419925294 8.342470516397839 8.276261318381922
Ni 11.821877950838259 16.41645301972813 5.734704078236049
Ni 11.128279989783776 14.530419928943164 8.007071881153971
Ni 7.98316108949838 11.088910284555405 7.588929474544947
Ni 16.589955990809855 11.865039474349764 8.41420996191773
Ni 13.93011179725129 10.774286588146454 6.795980259617856
Ni 11.105420892101868 11.130239627457273 8.42388337639389
Ni 16.350920058714546 14.67654893476919 10.4932855211415
Ni 7.069014610098923 10.706122035007422 10.913590692803735
Ni 13.456046200370496 16.63784299331124 9.038647009256291
Ni 12.321459270624823 8.030319732372597 8.295192613013935
Ni 9.952595376516214 17.290230172878847 9.062239906760471
Ni 13.558406002971097 13.09849386179185 9.590038326591655
Ni 16.81196730519069 8.112036071344198 11.771790816936495
Ni 6.916337251523176 16.151864778423967 10.099071073168352
Ni 8.744165535184134 13.419750496595725 9.88252670319938
Ni 5.414485389930408 13.40830345241917 10.901207158812717
Ni 16.507160867338907 11.559717786049596 11.644485186128803
Ni 14.213867817457308 6.428645641485763 10.475100366816697
Ni 19.21425985494287 12.899698960084784 11.39999262982868
Ni 11.002587425709514 11.539015580955095 11.816061104031157
Ni 9.410976783377823 8.796756314103614 10.076541679700046
Ni 11.327517670969703 15.27840221899901 11.486676233922982
Ni 14.058478895289232 9.924522853663198 10.37300476614757
Ni 11.752641659794978 18.661407540485957 11.455618568773135
Ni 8.705963018132232 9.632670447938168 13.55638206505464
Ni 14.389648480165922 16.735325610146724 12.419650595397314
Ni 8.351726657895414 13.543600833681154 13.056390640201695
Ni 11.937510868047049 8.164004257906397 12.157853594275293
Ni 5.817041949304679 15.51675772780628 13.4131833501977
Ni 14.389027938140323 6.450624878883986 13.877062457530082
Ni 14.826708410945258 9.779828821567206 13.84641201133193
Ni 11.55718927731498 17.187741569273562 14.507827528715893
Ni 18.457114413789068 10.548968739905057 13.924760988716027
Ni 8.725742531431292 17.1761436177384 12.595104799547018
Ni 13.94402703974895 13.34008181038228 12.760406257128414
Ni 11.640117441225803 10.23660746590509 14.980274685723103
Ni 10.952687660366932 6.943881483363636 15.083813590565088
Ni 5.811496682127739 11.893229168501673 13.93422284417848
Ni 16.82462519110215 8.16136013641764 15.85587832556581
Ni 11.312535594174197 13.802064934023326 14.74765753476623
Ni 17.032769186247755 13.786753045654178 14.127383459497288
Ni 14.241114491980829 15.539663874016739 15.597689098678801
Ni 17.079756744498177 11.42563284047995 16.81484646825228
Ni 11.643413566061191 15.569738161704175 17.629500838798897
Ni 8.661258438207179 15.597415426510702 15.657026202312824
Ni 13.587309740306459 7.9437608623594835 16.637758696939855
Ni 11.705637465370426 12.319951534598264 18.15431795377629
Ni 8.857519769109148 12.008554921286843 16.13718234956226
Ni 14.122929689703058 12.202540923822154 15.870011018836976
Ni 10.754232004539341 9.111726018924966 17.834373432216438
Ni 14.770339514090212 13.776685617247544 18.50040846280275
Ni 14.375482673440969 10.327194316398709 18.624371279260057
