52
Energy = -232.93718154 eV
Ni 13.97781207638904 9.852244132645952 8.75092241550992
Ni 12.32146003369557 8.862993887366917 7.048654246045893
Ni 12.823542988973848 7.734125694417727 9.052703842637179
Ni 13.124218412629906 11.01713711655883 6.858516602965807
Ni 11.00631093611376 10.48832182339519 5.743452785947895
Ni 13.558017502899881 11.478244540181958 11.199848122420772
Ni 13.39361437643652 9.141860552715636 10.971362159346432
Ni 11.497622474667283 6.533029311958513 7.322855511138845
Ni 12.84195354916229 6.761522317804697 11.232298789935873
Ni 13.085483294226115 12.100626363604192 8.992704513166734
Ni 13.2961566194238 10.250704098818117 13.15499779713764
Ni 11.716402319224374 10.180777198160163 9.060058833068364
Ni 10.156535665566897 8.190200586170334 6.183525946438068
Ni 11.040723665066567 6.180180621950343 9.706630685360222
Ni 11.957760393751043 12.2164871123114 13.058300932074978
Ni 8.693361811458834 9.89806511366439 5.513682885924352
Ni 11.248871181267104 12.222733180912654 7.39440905808619
Ni 9.070142355622144 12.155893369276601 6.415112437835213
Ni 12.235054180891836 13.39112872932536 10.88347615874763
Ni 9.749555893776163 10.364569384423474 7.659481310275711
Ni 11.321851153249717 10.717007844228576 11.46617381819897
Ni 11.193537844195506 8.394677993247633 10.680030225368897
Ni 12.083456443665565 8.317781511465308 12.866097654649163
Ni 11.958848441009517 14.110111195377902 8.606787646237994
Ni 10.457152490324384 8.205602610764373 8.457262048230877
Ni 10.594117518536422 6.600868756765802 12.150716023444321
Ni 10.252850736371995 7.797668074543556 14.22455825016687
Ni 8.992818924121101 6.49476086199024 8.235115250403785
Ni 9.048657772171588 7.266888005167221 10.514481784282223
Ni 9.591851364251298 13.797862387536771 8.159966717281929
Ni 9.682542857637332 9.217494752206292 12.317272344035462
Ni 10.527719662939052 12.24461211543455 9.701915432754534
Ni 9.27919439843957 9.64781552490079 9.850103661365383
Ni 10.43426984791135 14.830477557802615 10.17694968578771
Ni 8.131784055757048 8.643523741521001 7.547576611780293
Ni 7.190525804489265 10.760014765929801 7.060441128243879
Ni 8.371607723307275 7.330931943107015 12.88574773598895
Ni 11.08785339379978 10.070860130509608 14.101046368968994
Ni 10.151903986744973 13.296005330083803 11.958106985559592
Ni 8.23451139631463 11.90105257891437 8.76960992031702
Ni 9.500546514212175 11.603730887777266 13.472807902461987
Ni 7.525150309657051 8.95230892028334 11.333943694741349
Ni 8.563579862841268 9.475602159265556 14.286872028811167
Ni 7.094266885570451 7.633070810906189 9.357859160279144
Ni 8.848407909384864 11.378646926106589 11.249516879682021
Ni 8.426165228004683 13.626976455376226 10.304443309673161
Ni 6.884603480038281 9.998349322535775 9.289899454880352
Ni 6.452369616025686 8.739211255986577 13.369498932501644
Ni 6.699794567502676 11.96505694955488 10.670112528669785
Ni 7.202968462256207 10.876518488316588 12.881348572145834
Ni 7.8220009525050695 13.12591900338372 12.552217567214777
Ni 5.539407636859082 10.012127974367784 11.38576328459493
