51
Energy = -227.44577313 eV
Ni 7.661298300668652 12.956128272801392 12.360183586871225
Ni 10.714498024960827 11.969321121222434 13.559619801201295
Ni 9.71499783491787 14.039341535893932 12.703048900668852
Ni 8.399402207468114 10.897633310229784 13.480695811700201
Ni 6.360947884301083 11.064118737221637 12.143724196278484
Ni 13.168330146752767 12.087259724092076 13.437380000001141
Ni 11.890973515332984 13.44183634227018 12.063222151495411
Ni 10.176125447458086 10.213203080657896 14.983815211500952
Ni 10.796069166574442 15.126854519411438 10.863843676818862
Ni 8.826030818059559 13.865607030843783 10.44677250388934
Ni 9.529007300411356 11.866838690605176 11.561774097865335
Ni 8.506061636972003 8.738042397021358 14.509535482238217
Ni 6.803084515642989 8.964989415547215 12.961583355707713
Ni 7.353968360222454 11.976321499679212 10.154518170465918
Ni 12.910983348391863 14.237416181843425 10.018518592161135
Ni 11.89394721491172 11.123757705719829 11.404648912413455
Ni 13.853101533118792 12.360456582445662 11.11366905785934
Ni 11.028508639981396 12.777920555193381 9.877898371268026
Ni 12.16274625639818 10.00118600699815 13.770672532532185
Ni 8.826480365770868 7.7845147499516205 12.409327616599324
Ni 10.269765344712908 9.666317898810815 12.389145909192662
Ni 11.921322298698504 16.144880711557605 9.063696887266197
Ni 8.095780137457078 9.84468959409478 11.162572158496323
Ni 10.75135864438483 8.06343732746917 13.994562081014665
Ni 10.199015862098316 14.609551514278976 8.607705600292565
Ni 12.374123503269836 14.245712532566808 7.764316817579662
Ni 6.99197839738253 7.7440085876883655 10.944186264084621
Ni 7.919087527709653 8.723811917551435 9.053437059266317
Ni 12.99085751780683 7.9210741234126445 12.98296600996343
Ni 13.99237439055386 10.194656536268587 12.33396376538631
Ni 10.09349606243253 8.787237831411145 10.04704048760395
Ni 7.454452187352422 10.788313726354298 8.032907615950585
Ni 10.987152821748419 7.035544740482198 11.858459100594258
Ni 12.290446021673052 8.806313814816567 10.984691021975928
Ni 9.379087581251962 10.986591734742293 9.37693460546175
Ni 8.613628351313507 12.894984166845365 8.27207612232575
Ni 11.639130099775018 10.382117680037954 9.017999310861123
Ni 13.937752617508185 10.27798882077961 9.953782016917716
Ni 10.88811240549449 12.477281631720034 7.570845890400315
Ni 9.080000819485488 6.703163314145165 10.335196815667299
Ni 13.143909072764515 12.188510105641816 8.734459887084208
Ni 9.551969786673261 7.257483517849721 8.090006975412296
Ni 9.544873273533451 9.530532831274712 7.527904168627174
Ni 14.658369004623983 8.293799124161582 11.188331893130101
Ni 13.158310636077688 6.5227538271286845 10.98891191785591
Ni 9.141968283680674 11.485893094092889 6.425038132802001
Ni 11.374842726333243 6.819463609218073 9.497534043090727
Ni 11.6152692980446 8.398639501875143 7.725387281567282
Ni 11.465495045610268 10.509093240121683 6.55776820361959
Ni 13.491368243533836 8.03823977367373 9.116370134139425
Ni 13.482432056063047 9.918806837791932 7.641070873158411
