55
Energy = -247.4806276 eV
Ni 9.753595028832867 11.560438084197152 15.391331525438861
Ni 15.129288840164822 13.640891326883628 12.043527577312739
Ni 14.250262620342589 10.136004548472222 15.185084602598753
Ni 11.523609853628853 12.02235132304989 10.322429010370302
Ni 15.1481520005337 13.8371790320632 14.495584887675058
Ni 14.213896171303663 14.495714029193648 8.59034519810309
Ni 11.062400569755463 11.767348346832222 13.520639744901677
Ni 9.485927917089258 12.008815304944315 11.740654635438174
Ni 13.127627271658195 14.317781183449238 10.84221259148356
Ni 13.711377135107 11.866194196746422 16.80865548080401
Ni 11.492936599654117 12.671405023992499 16.572530232183635
Ni 13.141142828570251 14.43147667971451 13.272720402499687
Ni 11.067167670108232 15.656431260819966 10.686699403405354
Ni 9.198587132845685 14.956855426398917 12.083083629872867
Ni 13.128298688075873 14.420861742950134 15.74764766294178
Ni 11.162292225962595 15.953217189565635 13.085777549789151
Ni 13.761845807383446 12.386083089122312 9.627109438052377
Ni 17.582729199989025 12.61706129763211 11.120463443090317
Ni 15.453546784727092 11.45375309107874 11.054904968120383
Ni 13.144157700002218 12.246818231624202 12.139788606739822
Ni 17.197017500217722 13.22783005224753 13.341964893791026
Ni 15.145207933210727 11.648735952348567 13.471015899902469
Ni 13.154677903122902 12.347065462204244 14.580604281331572
Ni 9.823121757249961 13.69736630085078 10.094966233925259
Ni 15.821145441252604 11.86128871905904 15.759258200809647
Ni 12.97065732613314 16.25591848668251 9.464044554230624
Ni 9.401287298617284 13.828933341020763 16.111187087289316
Ni 15.038526677626507 15.700688871425292 10.57449602174268
Ni 13.116986671668117 16.497402801584375 11.868938394346337
Ni 11.191557012173007 14.907799490617856 17.26206629632469
Ni 15.14320153688289 15.893511544845603 12.993853926364332
Ni 13.287004191400936 16.54898743435148 14.352603041557547
Ni 13.101110303446728 13.85668446050701 18.031810774962864
Ni 11.07546241347768 10.205034617079196 11.753631577390536
Ni 17.190195285182767 10.878868046895542 12.631559201348091
Ni 17.18874509609868 13.859702272746523 15.706442743626987
Ni 11.958008055173643 10.55930877740754 15.601457386182682
Ni 17.94640323580286 11.65268283148419 14.832885775436186
Ni 15.142231759170993 13.881810845369076 16.898944824042974
Ni 11.879506241777532 14.028383597557918 8.959025878617329
Ni 17.029588350949552 14.937271868161659 11.64060684009767
Ni 9.226688629835236 15.505834774463441 14.427943505951184
Ni 11.122321225419979 13.677318131131045 12.083658282590047
Ni 10.520394558252 9.601274464620676 14.016616257125376
Ni 11.261228964211183 16.233539356659026 15.442612476945316
Ni 11.126334565021745 13.9637995454163 14.561206128625843
Ni 9.062513348472898 13.22700388621715 13.745458589721126
Ni 13.2708425265311 16.34114900484315 16.83795072242984
Ni 15.039037189539071 9.566215465152352 12.55439713404272
Ni 13.32737809043404 10.317570105506514 10.874371387249461
Ni 15.32382453352351 15.924227436333318 15.480798093701925
Ni 16.47890978208188 9.839563451499334 14.579699502091236
Ni 12.847497064231824 10.101994336033336 13.30383665070423
Ni 17.183179606214924 15.475813812558178 14.004610143720772
Ni 15.897487059155068 13.53086122568319 9.852407880254884
