5
Energy = -15.30474246 eV
Ni 11.030195077212905 10.786434830297079 11.742241917457642
Ni 12.430623659231708 9.934108246566907 10.028884883612655
Ni 10.684584276475587 11.636661555802696 9.642678730448887
Ni 8.799226309955603 11.385753210778303 11.232427616806177
Ni 9.996175054596563 9.518180978718929 10.143762963049603
