54
Energy = -242.64831022 eV
Ni 14.636643154304679 10.251051588898422 12.170185189418488
Ni 13.268936164692722 11.990728262703382 11.05192588298748
Ni 13.024641006603 11.629404356806658 15.882188550781354
Ni 8.279345769694762 12.568381465553783 10.50551192822955
Ni 14.173210958990724 13.501378145146624 14.850382496933612
Ni 14.47115335200062 10.135189755999658 14.59851296352918
Ni 11.936533371303375 13.575217013060005 12.393669778481435
Ni 12.067299847391402 9.847296062256182 14.627220707922042
Ni 10.52171738537971 15.12797964151325 13.754206819842768
Ni 15.703804813965766 12.161561302698704 11.17352808088759
Ni 8.740461568780344 10.781494230877986 14.310161810076925
Ni 10.146182058184577 9.152036062680018 13.200553678605491
Ni 9.527092635222148 13.54193695829048 12.244036752694482
Ni 12.125301306620033 12.851272393319382 9.040827316081698
Ni 15.551040066457462 14.487333183727568 10.569586581820205
Ni 9.391552604043351 10.750496694052568 9.399410005965759
Ni 12.071805720787482 10.375392751903876 9.602600773398768
Ni 9.771175698366973 12.971293145064035 8.710306294771575
Ni 13.172605931104858 11.796544118570003 13.502975543157483
Ni 14.499306405524042 12.848530649465253 9.168764969449246
Ni 10.970588680341743 11.275202668890177 7.634683659181606
Ni 10.794042838457958 11.935985277335984 10.913092918834296
Ni 9.343616640278045 13.138798083995592 14.686530954421322
Ni 7.660142682100874 12.475453920055216 13.003562014848464
Ni 13.490821970216196 8.657372717482158 10.804637849391355
Ni 14.362035570945293 13.78571380043485 12.488068671042544
Ni 15.619496466936967 11.998448367386718 13.583221771045473
Ni 12.914512357125925 15.228117701944885 13.800686589237667
Ni 8.949147902645324 10.740381250309673 11.875982742908565
Ni 14.164944753966541 16.010193470026433 11.905889145502861
Ni 8.152588877764698 14.881099334714227 13.664933478520135
Ni 13.158017719900045 14.455950533738092 10.448165197264863
Ni 16.652616205811594 13.859261462071077 12.54939902931876
Ni 11.74259272718369 13.388047256967223 14.850926181455169
Ni 8.559359811988239 14.783519928356558 9.647299765338875
Ni 13.415568799859365 11.190437877616027 7.810804642769524
Ni 10.625977098396017 11.441402322967175 15.743871171392529
Ni 11.75883594336936 15.931452264465204 11.811077426524225
Ni 13.493909691391602 8.45869289841748 13.25292101696545
Ni 10.35595761350022 9.111216874476819 10.76468514682448
Ni 14.633625492592078 10.49367742842505 9.765618127688573
Ni 10.764473265287261 14.387152533778238 10.30749196749531
Ni 9.327771784641435 15.791678636863454 11.711654707193588
Ni 10.71460688559735 11.653217666790514 13.36194012962111
Ni 12.131847384480361 10.094645007602065 12.104235667292052
Ni 13.304430162084017 8.824399490426483 8.437191270122598
Ni 10.029930333905764 9.154241767348907 15.528074186780872
Ni 10.731239553718703 8.999242024543253 8.306983632456358
Ni 11.773434706330068 7.472708108694691 9.724763176265311
Ni 11.51322140037588 7.613771717134479 14.386430554530298
Ni 11.652773398456565 7.62119892047667 12.053172668507125
Ni 12.178477435817921 9.611899342080457 6.548000111558723
Ni 7.289600671118853 14.428154470019193 11.570199881559715
Ni 15.393564083261971 11.822640710238577 15.9200457089074
