5
Energy = -15.32665133 eV
Ni 8.596883733452811 9.764579590192351 8.483429905590736
Ni 7.231226964311098 7.921435546720489 8.398043045760003
Ni 9.491300802467745 7.650984914507319 8.43028617843044
Ni 8.396629865327029 8.359943378023344 10.478863638499451
Ni 8.464333634441438 8.483431570556736 6.389752231719131
