53
Energy = -237.42943979 eV
Ni 7.60737782318219 11.153060549817319 6.784848045536531
Ni 9.536230316888938 11.213728608425832 7.848946796025444
Ni 10.017113311155619 6.220572745402859 11.57830103358612
Ni 9.756020996891516 12.418909017749376 10.110815871197303
Ni 8.996510761405178 7.5326250746149555 9.883826699226686
Ni 11.39981141346043 15.253174366070045 9.593331432191542
Ni 10.227291338555412 13.851979699751334 8.191488743716349
Ni 8.105048678770531 7.5126172405171125 12.503339621660734
Ni 10.793306124175615 10.918567941258637 14.787376976467954
Ni 11.642304595812993 9.220643842576703 13.28116765247642
Ni 9.115276383850244 13.10075292000914 6.2827740874389635
Ni 7.4476852926062165 9.083325838163088 10.73939730854628
Ni 11.536941939944885 11.041949704017844 8.992169163208654
Ni 12.801759072668606 13.833340453850104 12.980213478909878
Ni 10.220683662264477 7.166441406779791 13.759567192966806
Ni 10.63588243752536 13.047568565390732 13.711249326510291
Ni 11.554679111863688 10.017985749755505 6.754803137355436
Ni 11.441483403380825 7.497768478799151 10.02118649071196
Ni 13.688199898618484 8.23664029644647 10.742362526638333
Ni 10.327496208323206 11.099538957423347 12.265607877136457
Ni 9.949988321724117 8.56686462773981 11.78586687141188
Ni 9.0761258346732 14.64396547835101 10.142473590645583
Ni 12.555701515588122 11.609118382611374 13.42947589875743
Ni 12.16327296241481 12.143167487302367 11.032731112384996
Ni 7.978948457573266 11.209002887537702 11.628091428063636
Ni 8.007798538151338 13.158692924199157 8.335286953767714
Ni 12.127806715966777 7.153117973840604 12.265049387557927
Ni 13.922763803202699 10.61179209657276 10.052050606571555
Ni 7.467120876675536 11.138773470703738 9.320752174639171
Ni 11.864032691992037 9.683624967457543 10.928184384422591
Ni 9.54435345311814 10.071828310675812 10.058794442116852
Ni 13.181959412925332 9.675210462717088 14.81867272696538
Ni 12.46750746575975 7.2651824728773775 14.64451952017912
Ni 14.346958442102006 12.337707819559519 11.810958476010113
Ni 13.841306343452247 10.053602790735347 12.3459183091079
Ni 11.420765247631795 12.360470663336834 6.793218086147197
Ni 9.214682959954363 9.319158188341703 13.946804306981678
Ni 14.09199886696768 7.977691665646625 13.174972975158179
Ni 10.9270466371157 8.710909706398878 15.514845986213038
Ni 10.393469735281526 8.724228587566216 8.329164902427285
Ni 8.65009170158905 11.635608973234618 13.912884567008534
Ni 7.225685168933662 13.173332920146523 10.536917627468148
Ni 13.278190796654439 14.28118562650684 10.742760132709291
Ni 10.973991154479709 14.129945837894388 11.568331794907852
Ni 7.155172133735702 9.663577864735338 13.062994676679278
Ni 8.87179201889827 13.31997585148519 12.192592692994378
Ni 13.449925085633039 11.30459043983825 7.747950286955075
Ni 12.761773961778701 9.034076867161769 8.651851837670982
Ni 14.56309364645894 12.729707101292906 9.444799813167938
Ni 12.41256976036743 13.250852391704637 8.791407285973149
Ni 9.89625722498902 11.161195208478283 5.3677361409817275
Ni 9.235033101291615 9.24164490961655 6.354185644450594
Ni 8.022759158059156 9.130049553399209 8.346027864480424
