55
Energy = -246.5849145 eV
Ni 15.650198593797395 14.05662349252434 12.67806951627631
Ni 11.787138095673516 10.926645971837951 15.591475569767034
Ni 8.403004232781026 13.205273406437826 15.631430649830774
Ni 13.877127013545211 15.715441997341436 12.688408263020326
Ni 10.872283157073504 9.576784966051456 13.90190932568425
Ni 13.950453161174307 12.525914055225327 13.29646553218486
Ni 10.298623146514124 10.76678481989936 11.831478647477994
Ni 14.390607162945864 14.172115630216334 8.934878228541386
Ni 13.092949985661564 10.156863802216098 9.196838159404008
Ni 16.86689543892713 11.962635140975257 12.428990282764786
Ni 10.58048338838607 15.223057727800523 10.160878222255873
Ni 13.800841545687543 13.363750782939988 11.06107760610873
Ni 13.869681934605495 9.00900110124958 11.219590787740074
Ni 8.605987844558713 11.639065326534523 9.189340234917077
Ni 12.323195967002235 8.082045431612462 12.788124283029552
Ni 10.34114873500804 14.015368935484082 14.517675337661258
Ni 15.96106539460738 12.673723078845187 14.577029831055938
Ni 10.55706401685772 12.690355330704355 16.482127992817187
Ni 10.815007528005188 10.970229334974054 9.451894162790346
Ni 12.587973692336933 11.252896611637151 11.198019443439744
Ni 9.286204798242359 12.728713443710191 12.746919466860557
Ni 9.571146978934918 11.405009919852356 14.762536421909648
Ni 12.984332366480087 8.938391920705952 15.086882746257952
Ni 17.003998379272765 11.113674318699351 10.187094717758207
Ni 14.651327872364334 8.371995288145747 13.351076742272422
Ni 12.137068094801904 14.184174980779586 12.748726754919868
Ni 15.513537404793585 10.522607333518526 13.73029682472226
Ni 15.236045650304595 15.433611974757596 10.780498880053106
Ni 14.841838062819003 11.812169472466362 9.151218094617178
Ni 11.618701064217634 16.40835737805705 12.150611332496762
Ni 15.381962898467085 9.55895556670814 9.560549916337228
Ni 14.918031949507276 11.216002618458157 11.43648416408246
Ni 8.784097513206573 13.604173035941308 10.54704122038229
Ni 14.359775740534795 14.465849220603612 14.636957970644685
Ni 12.891296163032546 15.41527039817926 10.46061438586885
Ni 13.181892968964469 10.242135376708898 13.262669257438034
Ni 12.48852454483339 13.253693408109799 15.230437438469165
Ni 11.069208355974311 13.046034076923654 11.005889181935189
Ni 6.969376807269658 13.488204430483187 11.953466602612037
Ni 9.945841456391753 8.245108791367063 12.199987201156745
Ni 11.54550410531241 11.995514954493068 13.383369130997
Ni 11.537809631770054 9.05554434224611 10.691921950911853
Ni 14.035745643568553 11.324731509851793 15.35735256640058
Ni 7.882316453317825 11.387965030608028 11.39354952314415
Ni 12.12043090670216 14.727652288920806 8.368005578785654
Ni 7.388864324242848 11.97699317190394 13.784450061541039
Ni 10.300227322986297 13.256752646424543 8.74236998174461
Ni 12.24017437945584 15.616990222423683 14.501730768918568
Ni 12.580040948359065 12.549763094799802 9.063138365168781
Ni 9.796173587109113 14.99713008086006 12.352993604514802
Ni 8.579243915323323 9.954647910739107 13.157031167513887
Ni 16.140916302321834 13.290448444120784 10.475627174958694
Ni 9.066828596059086 9.5515607831446 10.362111058704416
Ni 16.317166503127403 9.410557399487127 11.799952145208023
Ni 8.00082215054878 14.463234526379006 13.748930314875597
