5
Energy = -15.35479862 eV
Ni 10.547861517395884 9.093146440768031 9.132574349168722
Ni 8.94176992692122 7.3802197550153945 8.716332779119671
Ni 8.760275983394791 9.311867645714015 7.484272501454527
Ni 6.7420705675590415 8.120647551575063 8.157478439764285
Ni 8.183970047961166 9.304583447137304 9.722585344764552
