55
Energy = -246.79870243 eV
Ni 9.219929499974574 8.947887667274797 7.4253710989045
Ni 12.845201528063452 7.8968784739387345 10.351756349762761
Ni 10.512863770059104 7.232516641885237 10.990223133868472
Ni 10.101461741756582 10.544071807316342 9.118037645161225
Ni 9.084302105007586 12.681362759128474 8.753212181652485
Ni 10.968194668952236 12.491940571760784 7.341602481306759
Ni 9.11661506150135 11.187115358228253 6.887365561623632
Ni 7.323561416589803 11.497818796749202 12.778164938522128
Ni 11.822911208258265 10.93173662624914 12.560236428920883
Ni 11.366527134859298 12.466000991073239 9.706681068153209
Ni 13.546070373767487 12.29090518391608 10.808604863785588
Ni 12.050212584100159 8.462304271085316 12.476089607518645
Ni 7.811701889477035 10.543307368302687 8.801430080315043
Ni 9.058714712288582 8.963017191796034 15.286073641324652
Ni 7.605395244058057 9.122832033503602 13.352883402787306
Ni 15.784489614223395 11.695293215718126 10.450194244365914
Ni 13.591959050789592 14.573054556099127 12.04498983640384
Ni 15.144035512371094 10.698632790839111 8.30693921058694
Ni 9.67326452596865 11.820667785675708 11.420157509242415
Ni 7.6483468427901204 13.776112429892732 12.287912409272302
Ni 8.808293387764834 8.395764538020511 9.600441014167643
Ni 11.953383092493443 14.811249250723561 13.660209645621636
Ni 11.30620875131146 10.07484658828649 7.170212497423134
Ni 14.48395141094674 10.71117957026891 12.302718531701634
Ni 14.651782483385745 12.955371648475364 8.745069302620822
Ni 15.319206164494208 14.127740586837264 10.574868379949164
Ni 10.797065613455132 14.542237600858835 8.82901342469319
Ni 11.572162727490372 13.285819477387642 11.850504274165079
Ni 9.457196971775964 10.583549569833389 13.4496610752507
Ni 14.85086719770211 11.436462591250335 14.519138006858592
Ni 14.367164281333306 8.339899533006069 12.204744561687455
Ni 7.901302647190184 9.95819656942771 11.112349612514553
Ni 10.011909638603557 11.195576985472554 15.661468779944169
Ni 8.635245181261938 12.781195708371133 14.214591937505029
Ni 10.204777527549197 9.486487456031373 11.331683240391198
Ni 13.235235888421713 9.170629079628561 8.335180388229473
Ni 7.5610752878443375 12.259413125565398 10.496883301683392
Ni 12.935362306321567 11.484363835676081 8.190001296925727
Ni 15.362059856470003 12.862119845086289 12.53507555216954
Ni 8.153061846570823 7.60950721477265 11.638147110023446
Ni 13.473747048370342 9.56725339959864 14.02581194436937
Ni 9.809807002571288 8.049416582540665 13.209338972480355
Ni 11.22535036866653 9.439129665134427 14.534578891341413
Ni 12.9546486875467 14.412218775911686 9.797368868362886
Ni 11.295390626172216 15.446902305342938 11.211467719904197
Ni 9.340607931007643 14.069047156074355 10.639115367141592
Ni 12.486810033446012 11.323743473074378 15.243215826742139
Ni 9.780731681267433 14.437273981302619 12.93176762704246
Ni 12.818675991412753 13.814733570996554 7.5595947916704755
Ni 10.929636677561485 12.662133827221995 14.08768553331767
Ni 11.064634941734072 8.375237935148908 8.910499828000303
Ni 14.595246157947669 9.592713618041 10.249063993824727
Ni 12.285907992945532 10.2230392254247 10.29695157109485
Ni 13.24139504668251 12.6930202663609 13.477404728404537
Ni 7.664926276239741 10.809656133228852 15.06683392011357
