54
Energy = -242.35437395 eV
Ni 8.36219018799154 9.807735310796565 4.963132469734454
Ni 10.860940082473896 9.474668375261551 5.339231165639562
Ni 9.521809752980213 7.734515312781478 4.293106132762312
Ni 5.922048251475934 9.668468987537016 5.260123270848586
Ni 7.252962307763624 7.634759473325123 5.279678012743512
Ni 8.867741428241958 5.979844216632111 5.8271195950890045
Ni 7.164843926675457 11.520784396112658 6.3803388533522964
Ni 11.79122268053455 11.03864005317622 6.769424810772848
Ni 11.335007004456545 7.218348342324968 5.993708721546698
Ni 10.052838800714543 6.2956140102054015 7.844899514443761
Ni 7.269220865042115 9.251480607039777 7.058424129690707
Ni 9.312588206010098 8.235722505905148 6.529656999145095
Ni 9.384032547840832 10.715975213050033 6.969504942146665
Ni 5.439706164936428 7.786745702143126 6.903043934212579
Ni 6.4692889818644375 5.665771802179782 6.513401880140224
Ni 7.763057056234583 7.0179225371542735 7.749197387408068
Ni 5.22927095022553 10.4536167787639 7.452671710814964
Ni 10.658380141399217 11.91802125120918 8.632373313188749
Ni 8.442020480806894 12.651339805630906 8.116483286492048
Ni 12.334674304190239 6.804505717565971 8.145113131546218
Ni 13.143368139455294 8.931266483440103 7.002900382478077
Ni 11.1118079982019 8.992111209596464 7.829798320403656
Ni 7.273588586361411 10.762537295960117 8.781333505559635
Ni 6.008707607392395 12.628808982787175 8.225620928379964
Ni 12.841040932026122 10.85403934194589 8.8455295851487
Ni 5.842918919286778 8.806726186492513 9.024889743482655
Ni 8.95498462297487 9.071500100142474 8.817588958927256
Ni 5.869301512113318 6.343795324292941 8.919767933351633
Ni 12.976215734409447 8.62141714808208 9.512951930629054
Ni 8.40507165757731 5.36769860265818 9.330512003622239
Ni 12.811331686295675 6.480989505823484 10.469884790927171
Ni 9.033604021933566 11.073417698228726 10.294678831904804
Ni 10.809083673182004 5.255638243266306 9.879490322951783
Ni 7.005392855383735 9.659540297378642 10.995074531557023
Ni 11.033782302811463 9.904569515636792 9.990910138561851
Ni 7.6514959121499615 7.530470669614337 10.041103094778371
Ni 9.455726277797112 13.407308964468127 10.121475140518621
Ni 10.660812809056951 7.510082923856565 9.78246165295087
Ni 7.222759758908822 12.610247768084012 10.336824790337372
Ni 5.32601803051039 11.043487398998888 9.967296141344312
Ni 11.196649578896322 12.080592288803814 10.977599065979042
Ni 5.527184118076901 7.662348904410503 11.035010175343247
Ni 12.890321671905859 10.3959554174121 11.273546665571674
Ni 9.292355104420492 8.808101189750204 11.198883596025995
Ni 6.8233952378275875 5.689090936654715 11.155938692710144
Ni 11.827844954872006 8.32984360726884 11.729542512743642
Ni 9.142837306635743 6.256381808055104 11.42526760622397
Ni 11.262245687975545 6.141300540487586 12.175667510031452
Ni 8.948585052646548 12.200994035246147 12.217959906382129
Ni 6.6257960010407615 11.511607628471848 12.285962048994469
Ni 10.624432223863767 10.309522888324857 12.432337468438378
Ni 7.508659226375657 7.723553464999283 12.443080735540022
Ni 9.87760988997368 7.954239328530887 13.206099722637521
Ni 8.336724664538098 9.961831780770693 13.007876182581393
