54
Energy = -241.02830622 eV
Ni 4.934440630662732 8.745890504692994 7.31068316937916
Ni 11.44071612543724 10.591973449844124 13.440015371294496
Ni 12.673474614531365 7.422033776124221 8.876582059248781
Ni 9.387921568715505 6.86689053284153 11.321621573380787
Ni 5.609331885842624 4.975022754922536 5.664730502475891
Ni 10.607106338884108 11.166510448286054 6.4405246656419575
Ni 9.474466230331075 9.404059505086265 7.553975876797878
Ni 7.999018533517435 5.518202791849268 5.383503132793574
Ni 8.757157987160658 7.853622717344624 9.289642512983248
Ni 6.265143716124672 9.439453609105358 5.309604227714038
Ni 4.610348239765754 7.875341265303605 9.498036544135715
Ni 9.03578181307891 13.656453713705838 9.14923518752184
Ni 10.582689444497811 8.915748258061182 5.579489521066299
Ni 5.501434120899154 10.206977853111084 9.178841041955044
Ni 10.447930557523218 8.630968027290582 12.489108008315265
Ni 8.441106673724608 6.965303072723131 7.13476829385456
Ni 10.847671762735875 13.045046557101745 7.852233623233486
Ni 8.36737195004566 8.05338036250783 5.111884601125333
Ni 6.987454237660426 5.040131362713833 7.490405627481
Ni 8.979945187640366 10.60563761324618 12.959732981284692
Ni 8.435493788403843 10.395483751047143 5.685785685963738
Ni 10.66220054390173 7.4427368853684355 7.719719974432514
Ni 10.939894965281153 8.814853909842185 9.764655679278965
Ni 7.951808311442322 12.675734070420278 12.689367288245494
Ni 7.872993894975432 10.331148270636383 9.083607501966133
Ni 6.924684477892111 10.882588728270154 11.376518317660802
Ni 11.80074718864939 7.121266737166102 11.140007388870004
Ni 11.941333784250004 9.560071623129447 7.63294569143645
Ni 4.758794106627119 6.247537143322588 7.60015749946374
Ni 11.859840021121089 5.54446209890678 7.396289383748049
Ni 9.522247219468605 4.953332227189172 7.432265446905406
Ni 10.820681245916816 10.723315769484232 11.261580569038667
Ni 7.2160271978322825 8.952661085234231 7.320534336570538
Ni 6.585033928605415 7.15786021210928 8.693334534819392
Ni 7.925599093079723 8.332700954231283 12.586912881158083
Ni 10.60686375587262 5.939085436171946 9.45383188918058
Ni 8.607457826584588 12.041913169262111 7.488896161206115
Ni 6.617195345313789 8.707491315221137 10.557099093481755
Ni 11.137940165946478 12.875155961132213 10.216373945408987
Ni 8.27349750026278 5.501008363038582 9.435294737039445
Ni 10.35391485284377 12.605100253030335 12.573233683517724
Ni 6.270987938166104 7.137409942289613 6.006123796341688
Ni 8.900182128167376 9.478521050655058 10.922347471817858
Ni 12.540964247863961 10.771088199946227 9.607626581390056
Ni 12.675491059368246 11.878661157229427 11.829497765834844
Ni 10.290828286446288 11.070330787829533 8.93526853195686
Ni 8.85486700884555 12.019490291818203 10.707931231453223
Ni 12.457858007443589 7.595864335835625 6.3371092709368835
Ni 5.793894257935391 5.212753134863825 9.577403187572367
Ni 7.023625926787519 6.553163687476845 11.115383445911721
Ni 10.266310550541995 6.4787954531933 5.600063853280935
Ni 6.866287836571544 12.34194237744122 9.258683925650006
Ni 12.62514111788707 9.32947915209801 11.582300783604873
Ni 6.419566891611366 11.099110379932382 7.127996033859338
