5
Energy = -11.88497001 eV
Ni 13.475430580958038 10.27723071829022 9.346619323322251
Ni 12.773922941330778 10.963699371667174 11.199169163235359
Ni 12.036768914850963 15.435080767693076 15.407389555856831
Ni 9.857454112675812 15.184659178015812 15.227192967550772
Ni 10.973591854341821 13.999331883900334 16.69849627687634
