50
Energy = -221.52727121 eV
Ni 7.870168853064461 10.581336184281989 13.02724674687381
Ni 7.565466165941008 8.413251864193699 11.78213483902284
Ni 9.073281889266621 7.519197625573404 10.045996071037388
Ni 8.06119271881593 12.66214589251479 11.787778995689033
Ni 8.673857028510293 9.977416008924749 6.7480995434002455
Ni 7.132154950577926 10.753369231507934 8.334021156727056
Ni 8.716779544225279 8.603244173941121 13.897643932426892
Ni 10.597432491157843 7.410295874642168 8.159606394523667
Ni 9.939821164548547 7.35822518203862 12.255578975935677
Ni 10.020503705619696 8.222293758652686 6.035153745318768
Ni 8.423186442411989 12.685624534701997 14.098919641678059
Ni 9.723487147984148 11.776007159686925 7.992093538357493
Ni 10.118238299171995 11.536144629755892 12.891469918193554
Ni 9.917075485592301 13.97457202137008 12.631784210360298
Ni 12.754644595615254 6.6582979388144174 8.249882743180448
Ni 12.315387019565701 8.117855516697157 6.520596744392796
Ni 11.284620377391017 8.833762258147802 9.92427377240368
Ni 11.00655214023577 9.768189589039666 7.563407452836106
Ni 9.068955082208252 14.045803944385751 8.02676861167502
Ni 9.138005351929644 9.715289749405231 9.097702554093344
Ni 13.268209989843493 13.246446841781767 9.703645959214763
Ni 15.422533377970126 12.950042711609516 10.46553606685409
Ni 13.578285210026607 7.247501397297717 10.257155312206853
Ni 8.372085558717117 7.846193573911494 7.7539406174487775
Ni 13.18223159533549 9.049003592419055 8.569753623536972
Ni 6.50543038930216 8.967117460378496 7.032890291449951
Ni 11.946292594481665 11.171681859239776 9.228438338125397
Ni 11.28585644545531 6.5407608197348415 10.320397216755344
Ni 11.763544132933818 10.45825982455614 11.578423258305872
Ni 13.905377757571877 11.619519902253302 11.541474006007803
Ni 6.940028052020171 8.631262265503402 9.445407646251867
Ni 9.781952142228254 11.663273630357665 10.413946541833994
Ni 11.105204593291806 13.442366850124161 9.008480448243187
Ni 12.22433216909123 8.021010547167771 11.999597667454378
Ni 14.326010323494108 11.138909197144685 9.265485121917605
Ni 13.800710128869543 9.446427855652033 10.84082938830899
Ni 11.61761762118771 15.012711180115828 11.031733070803723
Ni 11.609137581676368 12.809323402171993 11.352577703408688
Ni 9.53679416370773 9.532600604665175 11.542667557087517
Ni 7.861265703170168 12.636042025088381 9.413780747615359
Ni 9.41789110903199 14.156467878842887 10.377707367129409
Ni 13.691071534765204 13.937255000187957 11.937086659072007
Ni 13.265552776259518 9.907720113390678 13.231559991520895
Ni 10.935465037407905 9.210625285114537 13.569294920402974
Ni 10.696004289844693 12.8839490993923 14.723480244821591
Ni 7.469213107032381 10.60726527013693 10.698093641635088
Ni 11.834231286320755 10.77620147953601 14.995391880358069
Ni 12.623974038614941 12.259201615486928 13.419035351321975
Ni 12.006669736366566 14.530515159472925 13.432982964056704
Ni 9.445651831679013 10.675068811720601 14.934754222960175
