50
Energy = -222.05238615 eV
Ni 12.193937392113112 11.712091594949179 6.7374604125698445
Ni 10.008969416830665 11.133720479209638 7.567645937141145
Ni 11.667103349692711 9.389673384584905 7.08018794369597
Ni 14.20321188095184 10.4368162438481 7.149834229878727
Ni 11.38858573078401 12.621939633482228 8.76483842171762
Ni 8.964239822673184 12.89219845721256 8.906884616784346
Ni 13.767204972388265 12.681588417919064 8.317196274243825
Ni 13.50756052128206 8.390722837546658 8.283054826379256
Ni 8.252308755726883 10.591732931510418 9.221917777935815
Ni 9.501476112182456 8.891937469937771 8.086272930065729
Ni 15.815123143853151 11.68146220331866 8.431173684732991
Ni 11.44727666332068 8.29776812497979 9.303116649081295
Ni 12.644001024700023 10.567740630605437 8.808994280496627
Ni 10.54796255061011 10.45056442748629 9.812480294370038
Ni 15.322713007191672 13.338462325572262 10.200212281132485
Ni 12.887525746775562 13.956703316632598 10.095394240380614
Ni 14.902560490363935 9.782492490910412 9.480828211540302
Ni 7.398722808518624 8.40701592263468 9.13826507338086
Ni 10.492293300371845 14.117384202375161 10.316282655780624
Ni 7.015212731520067 12.284979455812325 10.319101085204032
Ni 6.262172141594238 10.00680367852142 10.456624821093728
Ni 16.467268414322728 11.140503293437558 10.589434685845319
Ni 9.331869967937555 8.473350122257512 10.442807937322181
Ni 12.769395741801317 9.523997788810522 10.893506376842396
Ni 13.951256001095594 11.635706067149624 10.555890408898199
Ni 14.921703905792691 9.7611924112842 11.912747425923584
Ni 11.342978208048894 7.770230162988872 11.687552727747008
Ni 5.59737581300301 9.350213755386875 12.652580601584097
Ni 11.672733884317541 12.144057869867078 11.230118019076167
Ni 5.6626461678807685 11.57059342409885 12.120318996090358
Ni 9.289576706212848 12.03358336588983 11.059159411437001
Ni 7.166609129571404 7.983413723804106 11.494393901004653
Ni 8.170205753831493 14.273451779648726 10.744191019687367
Ni 11.819279831634171 14.80408594813038 12.129293560795118
Ni 8.108486072939227 10.096297080037425 11.935157305918057
Ni 10.625694247641304 9.962553134730392 12.177147445557802
Ni 13.657528507295005 13.42212834461378 12.226339010768594
Ni 15.437465710036363 12.02376528801858 12.435261766344986
Ni 9.69526453027938 13.89169266516525 12.544748540744248
Ni 12.987103703743507 8.870598290346546 13.147218137721344
Ni 11.025601853855493 8.082861484762333 14.108422087029316
Ni 11.626881350875003 12.812503136921306 13.489362059211631
Ni 9.208933702355553 7.881670897305655 12.695600402549552
Ni 7.125922498472756 10.792615276882177 13.89862226543332
Ni 7.5753184996387555 12.80730403983931 12.579293343059543
Ni 7.247122437713794 8.344796308484947 13.888868825640635
Ni 9.474733166778904 11.716139184879774 13.474333070418357
Ni 13.202268494661862 11.141144890471564 12.840679611846985
Ni 9.199816759471126 9.578947876019974 14.278310823140783
Ni 11.447731581263321 10.475738365633958 14.289807790670991
