54
Energy = -240.35685502 eV
Ni 14.092936882283139 14.210830544945498 11.692225509102068
Ni 12.493176063485118 13.343342328613936 13.352650994457086
Ni 13.976882372834075 11.91817068874298 11.862221688066148
Ni 12.112409983028751 15.3349701550408 11.968740476418299
Ni 12.948947737831746 10.544102047254711 13.472534837426322
Ni 14.333136251582921 9.558521375374037 11.715024662598346
Ni 11.460815577688404 11.557773693743771 14.995096811720542
Ni 11.086699038221193 9.242986277355577 14.491665123268763
Ni 14.09757648643935 13.195657392990483 9.543639256507086
Ni 12.61426374984843 8.292833198542082 12.88717119135436
Ni 13.91721147301208 7.279416330143674 11.209107813566773
Ni 13.086844183508848 15.262765839453923 9.803899905301282
Ni 10.299865865128691 13.925537398793244 12.10927114840278
Ni 14.193617667086045 10.908890789640289 9.712737184753022
Ni 12.116128912655693 12.972636316169039 10.791342015655468
Ni 9.949499405894871 13.151936007811347 14.249875397588557
Ni 11.046228439628019 11.713981660295042 12.7071648174861
Ni 12.236223429184731 10.349894486225795 11.06313384940854
Ni 12.284071422964157 5.990329370307429 12.347215474660706
Ni 10.500290513220344 7.222809756324826 13.276909466577072
Ni 10.824420273109109 14.83533968890927 10.009823927110041
Ni 13.309434077068639 8.792831471859628 9.525692303385474
Ni 11.988558385974478 13.506509462481368 8.35579115315905
Ni 9.2922267831058 10.8152440831657 14.032792532407175
Ni 13.641885833311303 11.909428581316813 7.628007508444632
Ni 10.4648544179671 9.47449339614834 12.2964755790068
Ni 11.92000371872533 10.822750415110182 8.779759151328768
Ni 10.060342348584431 11.606215916774675 10.58113892542207
Ni 8.536787393109057 8.64682340637577 13.464280278991808
Ni 8.563501005197999 12.336902589951254 12.367286689399336
Ni 8.242209174929911 10.092458868127494 11.478072960945703
Ni 11.62874944572108 7.667666377996901 10.781635476688235
Ni 8.798151420176222 13.644475365199222 10.32242417583695
Ni 11.461599616259704 8.3063846318921 8.22069280068537
Ni 9.920621364176174 12.33513994043263 8.363394628353834
Ni 9.221422233984873 7.788761313324282 11.31030576884229
Ni 9.442800730848056 14.565819570214627 8.183213130961812
Ni 10.15982385125881 9.364849498192932 9.798269572464934
Ni 8.2308799136492 6.333439723341133 12.811628198644996
Ni 10.151428542236468 5.649366231222588 11.424180133474353
Ni 6.944223306396498 8.035748525547845 11.558974067610547
Ni 11.479526989496279 11.826109963642594 6.661796627570397
Ni 10.034028881104332 10.054553353474287 7.450567026472982
Ni 7.074181495874854 12.004913605632696 10.56837847608458
Ni 6.320793330224318 9.782640744124757 10.047931673298885
Ni 8.242209629360389 10.69949037353693 9.05750353796534
Ni 9.938232427906641 6.802769462173433 9.296302613403416
Ni 7.618544246205037 12.949714384990115 8.4143937474368
Ni 9.241505736706284 7.8898577456258705 7.368162604859763
Ni 7.952032524044519 8.244024187584632 9.310297997671086
Ni 7.945194503482244 6.058387937470693 10.442420832548681
Ni 9.78762407937606 13.348540494664386 6.238608829597942
Ni 8.398000772757744 11.540678305843894 6.687059447461726
Ni 7.499108171921288 9.449345845559426 7.279409609036569
