51
Energy = -226.80766221 eV
Ni 13.8444948061935 11.148038263892428 7.291577850386095
Ni 14.731238961355455 10.933490031717259 9.903532458797464
Ni 14.411046240072338 13.190673946193625 9.138476813284191
Ni 14.027686693254212 8.281524016514316 10.651647015158241
Ni 13.281789937092986 9.45247564049369 8.842968247442503
Ni 12.678144694506875 7.218647857960874 8.561028772813467
Ni 12.76627400900307 13.361224902968221 7.423833992308492
Ni 13.395111373221944 12.528407585103528 11.241913674373311
Ni 12.3144811598662 9.159973092547881 6.7856491846335025
Ni 12.643667088765582 11.734274363899472 9.117844826937224
Ni 12.863709124357404 10.21891840094882 11.20215720280905
Ni 12.682423123721774 6.379754342350841 10.82909406677856
Ni 12.276585197819754 8.069217172559867 12.406698231373085
Ni 12.070032599811512 13.921215228604705 9.775183362516739
Ni 10.535557130478132 7.910407335688334 7.873629896903526
Ni 10.648790001277861 12.803799343474827 8.283264603790021
Ni 10.73426226563321 9.792981366294512 12.177656812327339
Ni 11.471547643337702 8.453291881777943 10.201959063153431
Ni 10.904410760757976 10.270704352677658 8.488950089059177
Ni 11.973722461397728 11.586981391243091 12.989596872694506
Ni 11.565685032624813 11.429380668256101 6.529058617997084
Ni 10.65072809548839 6.316679773726873 9.659776518819896
Ni 10.872779815257141 11.63801984973917 10.690726977871652
Ni 10.063716161017219 9.506496748539666 6.12643985456434
Ni 10.95565129968268 6.122799400204047 12.390625740248156
Ni 9.319967576745007 9.522081996784657 10.221903084010677
Ni 11.520866705472756 13.714310885558039 12.023657673950312
Ni 8.642764609382464 9.58240734463056 8.027588291098663
Ni 9.145676203741212 11.576300009715998 6.787263568403506
Ni 9.800962675331675 12.51312336178138 12.999307999001536
Ni 9.414231709553613 7.4134684343412705 11.34895437130251
Ni 10.01476552868953 7.999035066204568 13.623903216500107
Ni 9.569198806824962 13.588804953732907 10.565287584072468
Ni 8.404512244764941 7.727391388901701 6.722257641014724
Ni 8.555022734647904 7.364365360394895 9.085858317013598
Ni 8.866679122888108 11.689581831641435 9.126957783280627
Ni 9.90186920436868 10.474344334407562 14.209211710784022
Ni 8.52056869192824 11.481223715518663 11.41221403786389
Ni 8.46389995985939 9.399744254944899 12.429509524304445
Ni 7.571887820990898 9.87674869112999 6.025336143006073
Ni 6.831912405666261 10.352820435391278 10.134632811363907
Ni 7.745808469952909 13.477857385131847 12.252536717334735
Ni 7.164907329746646 8.157162019692885 10.812223389178643
Ni 6.8993153757775705 11.20964780287493 7.9282779575327735
Ni 7.652374715390791 7.35550878471295 13.024572133857102
Ni 6.6307805921319485 8.662704339030471 8.430170512004423
Ni 7.050332365745186 12.808682720000766 9.981871976223056
Ni 7.958083971485892 9.138882666795187 14.622457330440978
Ni 7.729837817371922 11.377710505189416 13.68588597742469
Ni 6.176030054998513 11.732068387196733 11.918472637400383
Ni 6.2536856503085465 9.505780650615895 12.696395712015512
