6
Energy = -19.49790705 eV
Ni 5.572903916125378 6.877489376654065 8.43952605453203
Ni 7.640236748844408 6.119779703931513 7.793304083327378
Ni 6.721810405164816 7.760421854936287 6.582233363948661
Ni 8.764506755967878 6.881447977157419 5.919429215237007
Ni 8.679431366677196 8.892087181563697 6.950734897934759
Ni 7.401495766837311 8.241170179289892 8.731571018417734
