6
Energy = -19.94887016 eV
Ni 4.282530345439265 6.2482950372877095 6.496795382717691
Ni 5.259533015922099 4.608998544990432 5.129530657824584
Ni 6.33152207541158 7.208667022077231 6.808355584710504
Ni 6.009283989065483 5.003737674743004 7.322986547034644
Ni 7.312131659546954 5.563839572000411 5.451526034969805
Ni 5.5857538037217305 6.8098461152595124 4.619170216822084
