6
Energy = -19.56461028 eV
Ni 8.91036294636346 7.590268600253876 9.542156941608084
Ni 8.639631860590477 8.400130057878256 7.392235014075371
Ni 8.357055960389708 6.106661817240638 7.833668331299975
Ni 7.00686572354477 7.124465887581865 6.2768350706296925
Ni 6.842434354191241 7.7753753757067265 8.530393475876187
Ni 6.601237773237021 9.347993626490153 6.8551546725152335
