6
Energy = -19.44876437 eV
Ni 5.74420227366486 7.066620154673154 7.761948892724647
Ni 7.924422204606616 6.6983985167713005 8.481990218955152
Ni 7.191810486931951 5.989518468449094 6.384204841864637
Ni 7.104562826039754 8.317509147787739 6.36660912538828
Ni 7.211298520665685 8.801327294044524 8.55608335012852
Ni 9.111042948702273 7.413965678885088 6.73650283154991
