6
Energy = -19.56575928 eV
Ni 8.158536731736403 10.218836795903526 8.771205459257503
Ni 9.296113601753161 6.593488178774594 9.093558503134327
Ni 9.139619084219795 8.668854528292757 10.162275642578983
Ni 7.498533725964776 7.966906010932118 8.633359416044325
Ni 9.497664755408794 8.519189220562035 7.839784279891853
Ni 7.623340892454505 9.24653405707226 6.713625490630445
