7
Energy = -24.13645852 eV
Ni 4.7894578171752835 6.746111822042525 7.259532811801124
Ni 7.859086097869024 4.631476939630656 5.732178904602721
Ni 4.973012666122808 7.356919796177303 5.026326719118145
Ni 3.9184422302030404 5.375539616532276 5.604222131506369
Ni 6.869661750112948 6.673730388520108 6.2028925451119
Ni 5.809838295337932 4.699608095123311 6.786367556527826
Ni 5.996433252620436 5.310331827627665 4.550900192799455
