7
Energy = -23.76573914 eV
Ni 7.446398646134597 6.846563398661203 5.903105291227648
Ni 5.781079740045146 5.330672017993431 5.637391475761872
Ni 6.45282139650657 8.659963240059023 6.936685777046218
Ni 5.364812779344247 6.698784303358866 7.415478850315194
Ni 8.735256004737888 8.512169408290301 6.770729913751268
Ni 7.09320478571962 5.192851916441276 7.499966777644105
Ni 7.63380973921646 7.266378806900031 8.344025005958095
