7
Energy = -23.77363627 eV
Ni 8.145546965728414 7.079138227154961 6.193722492593692
Ni 9.511448250234993 7.692843685474527 7.930634556451763
Ni 9.47283619722783 9.83460701820702 8.745530255006368
Ni 7.4870699368803235 6.560523214401126 8.300033039381802
Ni 7.906605282592636 9.138506663319665 7.207943782867264
Ni 8.300374395190616 8.251227796058586 9.87281747445997
Ni 6.374343377078093 8.491441006688419 8.710213109056
