8
Energy = -27.85499024 eV
Ni 7.505641743223234 10.63997852922528 10.274035818599618
Ni 8.315560006170113 9.164254976620878 8.72211770234778
Ni 9.287960746809135 11.248614837754399 8.940171179190925
Ni 9.514116902207107 9.609834807271573 10.654012079419672
Ni 10.580898423620711 9.266088923277485 8.393459649791295
Ni 11.372919570292634 10.931079533016325 9.982488065134966
Ni 11.607714779794053 8.664744753041651 10.352572314642432
Ni 11.214710139598486 10.069161867032 12.111881233480366
