8
Energy = -28.36058699 eV
Ni 8.975082636747015 9.61261087570061 8.252474651250289
Ni 10.115726194521049 11.573036529309515 8.65755148592002
Ni 11.279736753720941 9.574798134911314 8.140023738265741
Ni 10.132760284137884 8.13774587384582 9.636205079809873
Ni 10.846094659567171 10.138146424455297 10.389631162880997
Ni 7.892251279039253 8.527839020115302 10.049672817400934
Ni 8.665525722898963 10.693013220090833 10.309524251586126
Ni 9.367650286190118 8.936362306241573 11.771262329023013
