8
Energy = -28.14228069 eV
Ni 6.3098576844371514 8.974408605855277 5.716010893732847
Ni 8.046536983857925 7.51528730683489 5.442199363913677
Ni 7.680832148551643 5.596470659082905 6.886325051763468
Ni 5.907831489161472 6.681147969049115 5.7513456109705094
Ni 6.428303263822146 7.819722836079382 7.664202343187464
Ni 5.549962401328271 5.635415216762014 7.825852200362401
Ni 8.700786105270765 7.542281884636023 7.644631387647155
Ni 7.410048955079372 6.269424553209385 9.103592179931217
