8
Energy = -28.00642868 eV
Ni 6.875211801220858 8.45210776531055 7.6759480953170725
Ni 8.618407374952183 9.965319029143581 8.007048270693584
Ni 7.756418073713834 9.616158926645799 5.891089049647833
Ni 7.721076743698348 8.783202948125266 9.832002642546227
Ni 9.865177281360086 8.283561371870517 9.065750363627547
Ni 8.12891818212885 6.7684461437359165 8.719530411585868
Ni 9.01572020609563 7.952580180441798 6.902319396329034
Ni 8.959510501498041 7.119063799394125 10.84675193492053
