8
Energy = -28.35820276 eV
Ni 8.158330673012763 11.086098664589736 9.015803357286803
Ni 9.183430794564606 10.486175721243123 11.00762644291724
Ni 10.51215426610147 11.034530355433747 9.215496643028994
Ni 11.49983610852956 10.001588168571319 11.051787590362668
Ni 11.721265372225629 8.941992241399756 9.018949690382627
Ni 9.449618569059805 9.196388265050627 8.450022966267575
Ni 7.736121378268175 8.972911767435134 10.040287865042243
Ni 9.96938428564145 8.337384477342441 10.475898131581072
