8
Energy = -27.56703902 eV
Ni 9.200242190582234 6.968697940295644 6.232067296731246
Ni 9.886225902213365 8.328670588352892 7.844303850647807
Ni 7.069682245520848 6.355092931599076 6.101851554667858
Ni 7.95075624892174 6.865791626160462 8.351727630904735
Ni 8.424976311145251 9.0731904292456 9.34527969658544
Ni 5.604285898008379 7.101858669438105 7.596136511738086
Ni 7.540359076171941 8.568949915366087 7.095165401255232
Ni 6.291298506321636 8.467756138828934 9.216175589005362
