8
Energy = -28.05643818 eV
Ni 9.435309317553982 7.512772418714729 7.125610915168562
Ni 7.702485998696512 7.720804411109283 8.579744535585641
Ni 8.495993029347032 7.376620196271625 10.68612410143285
Ni 10.11204425558139 8.043895261120873 9.231969618979546
Ni 8.901577493311805 9.641952763860042 7.752903756239082
Ni 8.463670408602786 11.544811230329495 8.938609718023383
Ni 8.274914950037903 9.546506111853422 10.02526149135227
Ni 10.364504746154921 10.363137507098019 9.410275863218802
