9
Energy = -32.72445803 eV
Ni 12.080994406786788 8.652864967860348 10.399316361029204
Ni 9.71274486242202 8.416403481399374 10.65164603865464
Ni 8.563025835357712 10.06699689426345 9.425228590045084
Ni 10.622053448746751 9.289980528868819 8.668488717433359
Ni 10.730707442628718 10.0300962996219 11.768193567331412
Ni 8.368795839439176 10.05867738419919 11.769339803000392
Ni 11.656910863411815 10.915041291210708 9.790019790656258
Ni 9.593188197994197 11.692019054701415 10.556603307911846
Ni 9.985271411345362 11.535349869106915 8.231632664937083
