9
Energy = -32.16271994 eV
Ni 9.617818536943686 9.86862159592791 10.191936172975478
Ni 8.999482449195662 10.183248339861546 7.936980947266504
Ni 9.440010184647445 8.595590981480756 6.194152818161155
Ni 10.459595501470641 8.516265088857317 8.362133791209434
Ni 9.250588877182889 7.617969635804936 10.276179388235999
Ni 8.53338333557529 7.379264776921613 8.051096819868869
Ni 8.090362648903888 9.02460549560924 11.697443604796927
Ni 7.533487100226674 9.039560186821696 9.45299253791221
Ni 7.290833948409417 8.990436481270441 7.052646502129168
