9
Energy = -31.76597435 eV
Ni 8.970208421880534 6.305985447311644 8.97129
Ni 8.971337743208275 7.665712301851796 10.833308115973962
Ni 7.683852045894572 8.297516554285068 8.97129
Ni 10.259365619129982 8.29512898294582 8.97129
Ni 8.971337743208275 7.665712301851796 7.109271884026036
Ni 8.972924423681135 9.861473071817079 7.754481382888819
Ni 10.12880164078718 11.39641382022218 8.97129
Ni 8.972924423681135 9.861473071817079 10.18809861711118
Ni 7.810857788500299 11.392194147839692 8.97129
