9
Energy = -32.72805237 eV
Ni 9.367123888029203 9.810218421102974 7.624097572552264
Ni 8.471735839145003 7.87688124068665 6.980096780844328
Ni 10.711153324204076 7.861582069946139 7.7430647589599095
Ni 8.98295997504144 6.954901998475547 9.056676282939723
Ni 6.946442414657842 8.115539398404383 8.766725989772965
Ni 9.863179870160284 8.896264426117826 9.705564651928082
Ni 7.078548630015873 9.785394770409429 7.117744605749925
Ni 7.834428921629241 10.039480396434952 9.394380843211104
Ni 7.987586468645796 8.129560032518196 10.869639238537543
