9
Energy = -32.52127825 eV
Ni 9.029048500514504 6.513363163214775 8.553191385617769
Ni 10.111831425617323 8.557948655701153 8.40321329350774
Ni 8.075664485380733 8.502035603241074 9.495138997911244
Ni 8.528582604235114 10.239824620298236 8.019464174815923
Ni 8.301921956271126 8.196618724274893 6.967006539470404
Ni 6.426244764038559 9.219699915775655 7.923874019442677
Ni 6.662156709891131 6.904927483256818 8.447186326754755
Ni 7.792399788261799 5.941907191632129 6.678947008532456
Ni 6.182967605292631 7.586107086941051 6.27000927846942
