9
Energy = -31.54647924 eV
Ni 7.876104515226511 8.634768217962227 6.668381297390094
Ni 9.95433686208641 7.561280180291851 6.590037937095001
Ni 6.135496606342698 7.107547553990363 6.492528761750092
Ni 9.824595813915368 9.718390398614552 7.2884371058152
Ni 8.17452889970317 6.351983333211795 7.433029877564304
Ni 6.182269728395254 5.647630190531056 8.363169386516446
Ni 4.515558841163192 7.182391480864575 8.109754371931723
Ni 6.648733183679675 7.908489435382553 8.622525921264485
Ni 8.953739738441634 8.152883398104226 8.697499529625711
