9
Energy = -32.504531 eV
Ni 7.7270737077705505 7.257325635022533 6.7788778286492875
Ni 5.794129265254026 7.615840240252492 8.231136844088898
Ni 7.873349303592188 7.178588368949791 9.326126585315778
Ni 6.199624621575234 8.980030332098174 6.412289236241422
Ni 8.525635878945662 9.335864776308368 6.218927246690446
Ni 7.508959607759659 9.292886143855181 8.3034764786114
Ni 6.838600387227786 5.552113189964628 8.055469621252113
Ni 9.15211111308169 5.832238399553628 7.907395550139475
Ni 9.561566502779316 8.136163301981444 7.947350996997296
