9
Energy = -32.16160429 eV
Ni 12.226770098573597 10.857122227920614 8.909719413449137
Ni 10.182581965406627 10.456775794906719 7.912569948883765
Ni 8.94499768367402 8.507279235276052 8.391027535274176
Ni 9.03197002419798 9.528270142280867 11.071927799319287
Ni 10.953354935375716 9.055176307774314 9.64616374503511
Ni 10.26419334919738 11.266850278893905 10.046895599382147
Ni 8.13811919573542 10.445229913482581 9.21526924258321
Ni 7.1977265784651 8.407106229819654 10.022263946074778
Ni 9.327012154978295 7.419126576208421 10.329542531182106
