9
Energy = -32.72870104 eV
Ni 7.524537925118211 9.90865836039038 8.439202345533225
Ni 6.937305340957321 7.687893391461352 8.800244109962449
Ni 6.926382955648041 8.552415631186864 6.596865634784144
Ni 8.5529697365884 7.052374070046274 7.398430735865222
Ni 8.688052506166649 6.381475012198205 9.661324769454708
Ni 9.72809244239092 10.402975822162354 9.05915250691122
Ni 8.48546733464596 8.71415950062333 10.23230037135136
Ni 9.14333915631338 9.28402755715695 7.042658952295952
Ni 10.087405602170756 8.089573647026624 8.843373564157508
