9
Energy = -32.50938728 eV
Ni 9.036938692893045 9.731462440730171 8.02196085467062
Ni 7.114100255743687 10.033637884491696 9.265193819267939
Ni 10.084257246182359 7.779965395677929 8.903880339109927
Ni 9.061836018246304 9.32531563721902 10.321033633555968
Ni 6.915776202029778 8.999350147514628 7.196734678008638
Ni 7.762536783013818 7.811378971126887 9.154481941343176
Ni 8.890030769868867 7.677038810299372 6.838065103061768
Ni 6.840292952052942 6.699975157131808 7.314732498355957
Ni 8.790397341448823 5.910910582430075 8.3461368298609
