6
Energy = -8.35392267 eV
Ag 12.815063954845144 15.425403902206956 12.112947171058627
Ag 11.784370882798285 13.130113687949327 11.520359897729321
Ag 12.17882293956043 11.018286870558331 9.76162458698586
Ag 12.01631355769841 8.322049336122664 13.669543309793715
Ag 11.316930641816011 10.394455171148419 12.294711879869588
Ag 9.697053324061795 11.661573428881463 10.339023064352155
