37
Energy = -79.19942220 eV
Ag 11.269414035506228 15.015979996739986 10.445592861436634
Ag 8.691129743525687 14.854327752914728 9.165959272040205
Ag 13.52951306078371 14.009086854839115 11.911707223217752
Ag 10.735181786155549 13.724088974734698 7.732645404113923
Ag 15.705108104303786 12.801474603542745 13.304099642716274
Ag 10.948945834850988 13.510880772304278 12.997614423308534
Ag 13.01743137516333 13.103346784736537 9.2502869108999
Ag 15.041116061386424 11.822062803733646 10.772143247572172
Ag 13.146240654229256 12.415178362550849 14.326220699321876
Ag 7.949134618768859 12.68982072546861 7.619855904307739
Ag 12.647714570187766 12.023286820171322 6.619118942872145
Ag 14.400749184565226 10.748402918594328 8.291244725456009
Ag 10.005989268351595 12.552532942783817 10.335275985309952
Ag 8.661905194056684 14.598959225843508 11.900560270851443
Ag 14.599465889663755 10.208642992715083 13.068764760950332
Ag 12.33845044535023 11.414398547395754 11.684934887530572
Ag 15.37616060494455 11.260918055879621 15.612018691366835
Ag 10.093280435486488 11.076901622666064 6.677421249349809
Ag 11.546944594855567 10.589379164425969 9.020816647895995
Ag 7.163807837878639 12.613265865035986 10.437727423071697
Ag 13.768280848015639 9.191934041569 10.52436362680601
Ag 7.579487562485235 10.033336078658296 6.576989402387678
Ag 8.44256362943068 12.001579056327392 12.916956693381865
Ag 12.803990309472965 8.411093115032717 7.943888391772928
Ag 10.719203350112569 10.930184651788172 14.197209429286753
Ag 8.396459448194788 10.408340980678119 9.140995645488145
Ag 13.024899820967073 9.747744303422897 15.341070628799782
Ag 9.926244960516549 9.91044444749659 11.463259467465182
Ag 9.931426521145246 8.466782037009994 7.86157499209969
Ag 12.268090537890592 8.604825251461333 12.803452231615774
Ag 11.334920777926252 7.706127683725582 10.22384777595674
Ag 6.959293459377286 9.971962778680389 11.527248198062564
Ag 8.40078695730727 9.362774051503608 13.886064640210346
Ag 8.454963386256118 7.7402393708452095 10.175490153279334
Ag 10.687130021005826 8.223831488834806 15.054602655187358
Ag 9.833590592136387 7.195096976942492 12.573314127745059
Ag 7.036150346245729 7.338495562908543 12.566608871736042
