30
Energy = -62.94762588 eV
Ag 15.598426009534748 14.459903933166572 11.692527147036868
Ag 12.858408224511066 14.31328811744665 12.310305418456334
Ag 16.133551097424707 12.522644021774921 9.594491236931992
Ag 11.681211113164771 12.687299691146569 8.036359615987124
Ag 14.06393642954783 10.612669097997424 9.567520383456417
Ag 13.667442312189635 13.738256887856 9.67051149636683
Ag 10.948271985254138 14.37402986125698 10.175702772397983
Ag 14.630249993630654 11.903812428258687 11.987009969518125
Ag 14.70798467591109 13.502205385551719 14.300808171625244
Ag 10.216597296658005 13.95419113005661 12.956351537095056
Ag 8.987287418492718 13.000060356939311 8.696663790903038
Ag 8.235315536250067 14.482187002844208 10.94287235376475
Ag 10.185662964298622 10.4782404896223 9.076876144284537
Ag 12.0327673805504 14.335737764189798 15.129449086835237
Ag 13.534447577694104 12.339815744946314 16.49959156039366
Ag 14.367775041337701 12.249159196976835 7.367536335396609
Ag 12.462177164562922 10.098647922999122 7.3409382787056465
Ag 12.225129340883106 11.916020336953325 13.813038027531702
Ag 14.486719896519068 10.424585949007584 14.486970877618656
Ag 11.84180897532923 11.826190930339397 11.020807479070715
Ag 8.961768780320353 11.798644648741972 11.269359945120407
Ag 9.430560399551828 13.439136300333923 15.565830426873909
Ag 13.223043124581256 9.594751848278745 16.771919825622692
Ag 7.632388341618882 13.145887258765205 13.4459057750208
Ag 13.288291224386922 9.447930112397975 12.135375629076126
Ag 9.482705068140783 11.051394773948914 13.961373970370394
Ag 10.955494729905402 11.200859291468102 16.335554529335973
Ag 11.703152580391448 9.206434506059638 14.419911027247032
Ag 10.476512334774993 9.445742046604694 11.850720623281783
Ag 12.14926666172188 8.618626643208646 9.746070243812198
