43
Energy = -92.58788576 eV
Ag 13.263016005343138 11.874972297173693 6.3175374296315105
Ag 14.655576753252765 12.334875581888857 8.652763742087362
Ag 13.462004048791483 9.817331265792037 8.277649552956701
Ag 14.810906786567408 15.066779241980068 9.435949324771027
Ag 14.513988623108935 10.481812368136676 10.833243301575749
Ag 15.603786114985118 13.052561376270384 11.248723994269442
Ag 12.574272117123073 14.177529391519426 7.949349236733051
Ag 13.048331616024138 8.066727468283117 10.429485910722999
Ag 11.432280150531946 11.680545291874965 8.403055634712503
Ag 15.270731567055861 11.240802888928137 13.438323657896877
Ag 14.35398286449843 17.69882103063431 10.193936259842012
Ag 10.760268695636832 8.947312534458481 8.984690238173563
Ag 10.66985005323134 6.628525998853611 10.661534037365158
Ag 14.646658575067292 15.821053163598794 12.169263058712632
Ag 14.100860415540668 8.702790097790924 12.953284428673062
Ag 16.217312897197704 13.894702959588708 13.820045549583293
Ag 12.259191627324963 15.873437023544083 10.403745129715592
Ag 12.80749882344998 13.081587013670696 10.631248429275537
Ag 11.576027872727506 10.554839404882886 11.106871418382111
Ag 10.284124137062982 13.969619930606417 9.637194518369324
Ag 12.835046418430455 6.088731017663911 12.433197651860155
Ag 13.430289414516336 13.579258924147053 13.29208390704818
Ag 14.339125325999822 15.61221363391853 15.039417837906297
Ag 9.11459965013873 11.338055517777745 9.881943073403635
Ag 12.05237734018682 16.0671904300727 13.375604051813612
Ag 12.325196085239153 11.040412700539044 13.721893612014837
Ag 14.607940917990437 12.770515898577877 15.811175376165654
Ag 8.928481338367074 8.789362356709354 11.121015146710356
Ag 10.650611449745755 13.091173179885047 12.49967489250308
Ag 9.746921694661252 15.757191213996778 11.724859831806013
Ag 14.038508355831556 9.788812502817743 15.56730141096059
Ag 11.19513692888852 8.273773733719494 12.899584352295966
Ag 8.046821787760138 13.574600080819327 11.211174235537095
Ag 12.859310519600529 7.246371851503256 14.975683969266719
Ag 12.04490601489185 14.17447621300121 15.713785155837906
Ag 9.804944047730745 17.58957867966382 13.822546458866727
Ag 7.16704684458365 10.901697476548003 11.837473479891347
Ag 9.584492644722669 14.884248424950844 14.434061979826911
Ag 11.080093277568258 9.417972947113265 15.572698563463524
Ag 9.4397364606219 10.39449798286187 13.357207610793866
Ag 12.316474082649588 11.589760244731488 16.807958497758168
Ag 10.07670134031598 12.229171127828407 15.394218468995335
Ag 7.87461291813195 12.702800532344728 13.835742447693894
