38
Energy = -81.01756888 eV
Ag 10.540073692657769 9.846626977144005 7.5967002270475135
Ag 7.767339836973509 10.924665809324972 7.6066008860844
Ag 8.433095183576746 8.221477652093743 8.377020213440316
Ag 12.698800500280656 14.164965672158276 7.0505493629841185
Ag 12.924521741669556 11.457836320584141 7.566762750925262
Ag 10.06241457383324 12.563505101435528 6.970126548728485
Ag 14.079701691212346 13.309967658689592 9.532689487685564
Ag 6.502604778021493 9.349167858274404 9.912685784364607
Ag 13.002392286128355 8.746514974558192 8.315313988741785
Ag 10.759462322125085 7.864789891141851 9.789959401646398
Ag 9.178081376317822 11.194279358499754 9.859943835921813
Ag 10.18829022293258 15.347835607101512 7.690747879486029
Ag 8.375413639877658 13.721025681263969 8.995604992385644
Ag 11.313885253964937 13.288703277976616 9.289324242443058
Ag 14.744346085004016 10.531684239172439 9.892599759420706
Ag 12.49179784890673 15.833681790823539 9.361388383140518
Ag 11.9985887018849 10.65508330678424 10.135790847762271
Ag 6.437800352515359 12.048161854859048 10.094177842261704
Ag 8.34988296335289 7.844530103696686 11.347953434138265
Ag 13.25768458529547 8.253741755826004 11.080226911399818
Ag 10.045542402025635 15.229063494277518 10.847214724762045
Ag 13.815165676439639 12.078250981167868 12.07326758569575
Ag 10.754169764169394 12.537441562696788 11.87568308427893
Ag 15.13336499645047 9.632087237866175 12.694011593741752
Ag 12.683409553025127 14.551680179670747 11.799333288133727
Ag 8.1161059869807 13.359188653420066 11.891909875976388
Ag 10.18255978150128 9.81633912552311 12.011189088733884
Ag 12.029119541414714 12.938852147898453 14.220590877219262
Ag 7.464764852778952 10.540510702381564 12.325058163130182
Ag 13.68610305263702 7.261306039088574 13.669240622595302
Ag 12.491643903527505 9.882556471896253 13.42875761286468
Ag 14.359011197297429 11.542447808032037 14.764312099583243
Ag 10.96717877949808 7.234992521092136 12.553707343703682
Ag 9.35930349535803 11.689729844012435 14.136422695665829
Ag 13.820221400371663 9.065563452252277 15.828151495107624
Ag 8.981923974024383 8.76804482394672 14.166682912961964
Ag 11.407460949058862 7.85771131896937 15.251323877754844
Ag 11.443286275425047 10.721768758336419 15.83713077165919
