47
Energy = -101.45301695 eV
Ag 8.531623159589847 7.847336127263032 13.771281267084463
Ag 10.504466348524778 7.022016158329915 11.80854699189664
Ag 11.02995615877339 7.047171192668576 14.677531628325404
Ag 8.528847762374614 9.019874183132586 11.2009619521168
Ag 10.049793464853675 9.635506962165461 15.539112711580511
Ag 7.102518918604004 11.378339743112049 10.99037765566834
Ag 8.19371152126092 10.575832017639211 13.523230203024209
Ag 13.110207696467496 7.637759534562208 12.926620356786014
Ag 12.824086756433964 7.262560766969938 10.157197877960352
Ag 10.944834526840692 9.566240605060626 12.906384464210275
Ag 10.948204412998965 9.276469066904696 9.940944885879878
Ag 12.854276402264135 9.028454738519674 15.378621368060575
Ag 9.092330984791563 11.45887994882163 8.749968677561917
Ag 12.01506265564658 11.523593696734158 16.444163032862633
Ag 13.442348128984486 10.186794772415116 11.372044075548782
Ag 7.676034049611944 13.905668125064494 10.167082592360547
Ag 15.085459828550903 9.506789526103118 13.658159694938812
Ag 9.92623580607813 11.774579805388365 11.427935057574775
Ag 7.933038246388213 13.326994547826564 12.994342260408779
Ag 10.27576420424648 12.248154075719052 14.2935514488168
Ag 15.295010228591854 8.046100768282626 11.198260507698002
Ag 13.676997709057703 9.496914522411837 8.688753978078116
Ag 11.212092682272047 10.112497659957064 7.237358623529876
Ag 14.818943644916526 10.97885381242847 16.061965142419837
Ag 12.063116916872303 11.761503341674784 9.435148932378342
Ag 10.399989095429042 13.935635241461334 9.528872568774759
Ag 16.389038699775025 10.61110573455264 11.343844522965924
Ag 13.83801427093193 13.351981950842783 17.39855218246842
Ag 9.685495328381561 14.922012706772573 14.59629957926065
Ag 12.121485104798126 13.624018232950313 11.982099630816402
Ag 8.474397754351653 14.073105892308863 7.468860346755694
Ag 10.924473058445352 12.85540667913396 6.863545111761528
Ag 12.911925186055951 11.478019073010232 13.785295411299986
Ag 13.56220867368372 11.754478186695525 6.962510028668536
Ag 16.895159865334044 11.536957020406856 14.072552464304202
Ag 8.962134643871769 16.319163291896277 9.300120228421648
Ag 12.390236717360803 14.071028979177571 15.002182223047878
Ag 15.223692081430993 13.534158184659741 15.054932053870553
Ag 9.511173300710574 15.326069011668375 11.855437482248416
Ag 14.819090420380109 12.169614213703028 9.515958606055273
Ag 14.360028829516134 14.81055543248625 10.537519045510173
Ag 11.851555990054248 16.145581120089698 10.257839131099214
Ag 10.92019215839191 15.732737454065006 7.41655291343543
Ag 14.277437150776406 15.329398322503282 13.233372316191515
Ag 11.717729629762717 16.291228822368403 13.222025594211022
Ag 13.0754365159869 14.204233360155397 8.221344673508721
Ag 14.98962025473831 12.758411791573923 12.321608947690613
