14
Energy = -54.55803469 eV
Sb 13.526729466615178 12.854585522294874 11.30552068120539
Sb 10.758837665007924 13.71027381266586 11.033731817221277
Sb 11.781262655030313 13.527111636115192 8.349066230182792
Sb 14.044814931634516 10.962188108717962 13.421319100882277
Sb 13.237350422553959 11.141437520905365 8.991593638073946
Sb 12.313328331819346 11.909969582013243 15.531961498840879
Sb 9.564390487576807 12.502034007513902 6.839720228438445
Sb 12.015561346172783 9.131388395231756 16.2590186218764
Sb 9.319725229031283 11.26578628902899 11.17243019948855
Sb 9.46932579811599 9.703176001224909 7.443672996857391
Sb 7.683939459313209 11.556759516410333 8.771829913253827
Sb 10.019384357680098 10.394041920348073 14.613302611115692
Sb 11.102559305462998 9.456176849981931 9.852396972650732
Sb 12.097879298052149 8.820159591614477 13.34952424397911
