13
Energy = -50.31930675 eV
Sb 13.148531081442123 6.699140654471135 11.47430476699928
Sb 11.339621145465845 7.729557970950096 9.434407681309771
Sb 10.543501865038378 11.23434763860431 7.685043921815155
Sb 12.654067007866042 10.295698325929099 9.417269062120619
Sb 13.155840767085161 8.945137334755554 13.28106997406018
Sb 11.207619615376196 6.90069289574886 13.53791776101147
Sb 11.380712311302547 10.853703726679228 11.942251310598897
Sb 8.248681738706367 10.16400197527801 9.015872888813586
Sb 9.444788940688866 8.811641453559798 11.326691345304177
Sb 10.644983545203432 13.943058615869889 8.597494673644551
Sb 7.299844416187631 12.368217658444278 10.568814686937102
Sb 7.915349548350024 14.712444747618502 9.036899645532433
Sb 9.602934622744959 13.928833607548965 11.268438887310651
