14
Energy = -54.16731884 eV
Sb 10.700939222172076 9.76423193305315 10.130690732062178
Sb 15.859818007493876 14.40127404218587 15.099074242121258
Sb 13.458795583456867 12.57052526642176 7.8181318650269755
Sb 9.868844972231056 12.755541507497336 13.339831208433884
Sb 9.866923478626191 12.446488075876081 10.49556902095408
Sb 9.343422256939691 10.12860179095056 14.384971222363824
Sb 14.237661095981968 14.964232538154105 17.377433758015894
Sb 11.37565749402465 8.89855680869895 12.771998288326792
Sb 12.022224432001279 11.178872127071841 14.395612108357733
Sb 15.75188498313049 17.04917646191075 16.153369304000197
Sb 13.483877459152458 15.955386837293176 14.809367861112035
Sb 13.384751974102182 10.039622164425381 9.177303910742413
Sb 12.236591766934731 13.97120823299634 10.009993160820745
Sb 14.541746438397444 12.327307120070659 10.471828188842906
