12
Energy = -46.24588472 eV
Sb 13.294958964962357 10.076277913579386 8.745251191366432
Sb 11.420415715826676 10.842124962682748 6.761142505331328
Sb 11.905416482310708 12.551283494067775 9.110643299407363
Sb 12.17217736439262 8.073797632375694 10.435835837063188
Sb 9.441346952695346 8.189871715815938 10.050915130691552
Sb 8.888058356188788 9.967894923646407 7.865026621253299
Sb 9.070019222844527 12.240438929873388 9.637202033627434
Sb 11.506519143993025 10.1746458740488 12.626290494636342
Sb 8.726729710143704 10.58613385464957 12.000804867416043
Sb 12.343628076202764 12.897024992118117 13.223006778715133
Sb 11.389934705415168 11.281671605063565 15.38542858295057
Sb 9.586511770740318 12.864550567794456 13.90416912325716
