13
Energy = -50.52518843 eV
Sb 9.96218995264024 13.535799258814956 14.086012134091126
Sb 12.354462340617372 12.083766385677757 13.594741941659414
Sb 12.088790306040973 12.037151451298794 10.720650736576118
Sb 9.99905211795536 10.73689235310134 14.57527196279716
Sb 9.291362592943559 12.47775886157294 10.764099133990703
Sb 12.440829699400414 9.20579840757318 10.767245274455796
Sb 8.769006121117775 11.321580427329241 8.126863781733695
Sb 8.36614164843893 10.22329624817666 12.263626431828495
Sb 9.8499474594245 8.067514267926393 11.09883247835857
Sb 11.230053543810168 10.850429949749477 6.655167278928047
Sb 12.830055745258571 8.865347230265701 7.9451765314158465
Sb 8.38286406492316 8.535793685744286 8.695794259170668
Sb 10.41592485257898 8.039551917919425 6.687198500143913
