10
Energy = -38.17212015 eV
Sb 8.724199377551798 8.227194781516765 7.902614889673115
Sb 9.432365671504126 12.334292484482152 10.180462500012581
Sb 10.612035368715585 10.840446303980439 12.401778210315772
Sb 9.041647390269038 7.57580115729898 10.683295640649407
Sb 6.916945221998194 6.378496686139051 9.172249778829231
Sb 6.846825342455525 9.182034645587844 9.800732350179626
Sb 12.043934366689305 13.435552629655811 9.547971975252063
Sb 13.218825154999395 11.924584007287182 11.748713018926534
Sb 12.309925401305852 9.444431825618402 10.534301782060957
Sb 11.14687008875053 10.950738862672868 8.321453238340068
