12
Energy = -43.97014141 eV
Sb 8.287774286398362 12.949284364669799 11.404909265846342
Sb 12.247691785477773 14.928246540655326 12.603648453406901
Sb 10.738345147230765 11.81077393379404 10.322541785460274
Sb 6.934902727519034 10.5124496054729 10.773469315557985
Sb 14.046033280888123 12.855655486219018 11.260139629616237
Sb 16.50116738932766 10.363962459025757 12.889390042821013
Sb 9.499969719624593 9.315958241556716 11.168932246172956
Sb 14.58640305477883 16.09740281238146 13.282811800704344
Sb 10.133445857181597 11.430235184483537 13.066839748230402
Sb 16.146071507768 13.41993651224851 13.249796755302945
Sb 13.902328633335959 9.97322170733904 12.26229334784597
Sb 13.450187536346426 12.470763911060718 13.963305278413328
