16
Energy = -62.62415806 eV
Sb 13.929367613727802 10.899423586660136 9.252737701462847
Sb 13.995515121830309 13.627164048841575 8.38819114119886
Sb 13.162192112241144 9.855648212090898 13.65133748877596
Sb 13.399002385316878 12.067254818178956 11.800147424296613
Sb 11.539278414536017 10.001331976367515 8.019321676356842
Sb 11.596581165926851 7.919774126601159 12.233564791070904
Sb 11.370211675788912 14.575182266284857 9.13371778458926
Sb 11.988240663743543 13.9911382320964 6.366327354307093
Sb 10.020601582242085 12.421418645128051 7.765537845482975
Sb 11.340170653413603 11.772112585589218 14.766477603139585
Sb 9.89304953362828 8.826726108967994 10.11952559583561
Sb 9.347367303497677 7.658598566134701 14.002003635829356
Sb 10.661475283088642 12.933168085111701 12.167216215466054
Sb 9.169772125943739 10.07235870265848 15.561539773879922
Sb 8.661455268373375 11.194197089110869 11.067501309762553
Sb 7.4874184532840165 9.74620230676052 13.266552015128918
