14
Energy = -54.38095581 eV
Sb 15.454840327756422 10.649129581413083 9.627672336606333
Sb 14.384416478541022 12.694595816325805 7.901978312867231
Sb 13.919430175052632 9.917805761659043 7.281155134612234
Sb 13.144040556784049 10.004620259170027 11.27121123392699
Sb 12.783883910462851 12.850497779509306 11.635851929653322
Sb 11.689597821042195 12.929096547227271 8.960022831375483
Sb 11.462266519340758 10.032620506523148 8.906899086223369
Sb 9.771831130420743 8.523132818554755 12.685760651052645
Sb 10.2639876192898 13.093873175415688 13.091699669314423
Sb 10.479087801857258 10.62632386348762 14.46754577136051
Sb 8.300024725046432 9.768125151328817 10.502177252165252
Sb 8.388898439972687 12.555534567092103 11.032294008201163
Sb 7.821588762803487 9.627060076047243 14.539616841425062
Sb 6.414998503240656 11.006476867857083 12.375007712827605
