13
Energy = -49.34911137 eV
Sb 12.510959676423015 12.194888876823311 10.711214736255025
Sb 9.59651101204934 12.175855155265108 10.111362131796865
Sb 13.922438946521968 14.797253211934562 13.606041553433174
Sb 13.930981708607389 14.792176423964964 10.74006790250658
Sb 11.71484225203071 15.953292003907213 12.16461306391808
Sb 15.465894177577077 11.206008139859101 12.166291522936556
Sb 13.953154862468903 9.805178204168815 10.153576672231353
Sb 13.956087520097423 9.809396357126587 14.18519864497755
Sb 12.151651651146322 8.717404639688773 12.172282358598276
Sb 12.510638505004799 12.195803981076473 13.62323675546694
Sb 9.361775684556122 14.202209724538758 12.167699559650446
Sb 9.599037204792944 12.17996318552126 14.2283222721085
Sb 9.527859701881958 10.17206157907463 12.171242888861363
