12
Energy = -46.93309029 eV
Sb 13.626679959321615 9.44093374684872 7.114659451454604
Sb 11.574694852507633 7.76422992133662 8.200525578702068
Sb 12.774787948531538 11.781753392426934 8.533004824187113
Sb 12.326655646374403 10.985692136604005 11.238212533298487
Sb 10.8629858009184 10.281194616506326 6.975032573517854
Sb 11.597789505516925 8.227401448637822 11.016124611141743
Sb 9.885972849406858 12.447979929276054 10.929049824399108
Sb 8.758892706307766 8.228212138157286 10.667585521263053
Sb 8.272407405142886 10.71129447109214 9.337675715554772
Sb 8.392882608661045 11.92133335050824 13.3245478792332
Sb 7.67395828068421 9.152001664162746 13.159283744024313
Sb 6.287481741793689 11.09316248960921 11.539487048390505
