14
Energy = -54.63931041 eV
Sb 12.92568221556766 10.788178003035242 7.250753643496126
Sb 11.460323328645778 8.506786149365938 8.207249137993031
Sb 13.433763485611287 12.558229635759062 9.463390526999243
Sb 11.257836582321172 13.12961698085002 7.660967920370245
Sb 12.287376298918243 8.610264743039384 10.936482787109782
Sb 8.948189163560242 9.685360901379541 7.597474627856773
Sb 12.281443458826386 11.3246517364456 11.789592492547648
Sb 8.803270835793446 12.230020768769625 8.854569292548318
Sb 7.0126612069598595 8.089676224266148 8.992094405625062
Sb 7.968923783755418 6.5855945615202955 11.220561035707785
Sb 9.642164620938807 12.366011731252154 11.578231813131568
Sb 10.12401637923544 7.871932665083505 12.670295368176758
Sb 8.468289986768122 10.219539300115365 13.07279234943358
Sb 6.302800381547042 8.950878327566741 11.622286327452981
