16
Energy = -62.93768623 eV
Sb 18.316719867485027 13.343306323641702 10.099543068265818
Sb 15.85869356316094 12.007377323463176 9.463064826881466
Sb 17.40729453064439 14.176847207627443 12.69033388044042
Sb 17.190122588051853 11.421118433016673 11.938652466964742
Sb 13.736999492990037 13.821828229842998 10.109336297913014
Sb 14.877674223448942 15.421181122051381 12.20324969703954
Sb 12.35197300751021 11.682896521317485 11.414695059012304
Sb 13.782902650678343 11.62330451119491 13.896462514551974
Sb 13.71199854709897 14.366361381401854 14.60984905687685
Sb 11.552133660908938 10.713673956775624 15.517016328495332
Sb 11.181722171679642 15.33903476773233 13.684918698454997
Sb 10.044947397776994 13.244013343156032 12.10561274903089
Sb 9.220129678011565 11.18565444431878 13.89922251931266
Sb 10.75187835994355 12.71642203728428 17.462862683031037
Sb 9.772739383965709 15.066603090009622 16.161374293513244
Sb 8.151519927645772 12.724390472530821 16.110748775484755
