13
Energy = -49.26691891 eV
Sb 12.25083607633742 12.22736533691592 14.328475547853925
Sb 14.252374638552501 14.126618947767435 15.080662688808173
Sb 12.085407749941714 15.289926113074847 11.250295648842894
Sb 10.405096509086949 14.106983037798702 13.274472032757098
Sb 10.241336025454563 10.321389516216112 15.044561629992588
Sb 9.777379347007017 9.823555371950595 12.33858884966979
Sb 9.224328659704536 12.47141144409009 11.215938395881969
Sb 11.241395992402985 13.311894586600847 9.340900790378212
Sb 14.717960023702206 14.671241493603672 12.384196633818117
Sb 15.2721751874752 12.044392683360185 11.21293485578005
Sb 14.092738755714073 10.367463196160926 13.238672415864771
Sb 13.25521129433948 11.238883076744111 9.32266685029155
Sb 12.410054718605043 9.22448733362239 11.193587218175896
