19
Energy = -73.72562041 eV
Sb 9.965810678132732 9.306076612480531 14.898969899211378
Sb 14.133191820991573 8.935087770154478 12.90486143128409
Sb 16.857459052070702 9.668580758894096 12.504572155128468
Sb 11.094810232238613 11.8071119516804 14.113176339954967
Sb 9.098872687637282 8.544914254191504 12.16133695094478
Sb 8.33937764801349 11.705014152967987 14.818594809496892
Sb 6.9754208014569 10.450048045277919 12.569328820989584
Sb 14.921827037367038 11.593028459628313 13.515231058350047
Sb 12.962159779535753 8.935873278351396 10.321299932071655
Sb 10.795153997435612 10.64247617498048 11.22361893873236
Sb 16.930933393641915 11.048354259242089 9.941126884261763
Sb 14.240797821027185 11.098611941421478 9.003264295782396
Sb 7.199920590052426 12.307586001472506 10.332459630749332
Sb 11.413547062420562 14.338263760652566 10.845426892304387
Sb 9.250992947795188 11.093976798541963 8.787365045784199
Sb 8.660630478374628 14.373690797721245 11.69023875378874
Sb 15.029979192017725 12.999405428764064 10.964043508412985
Sb 10.768784536746978 13.459355000655094 8.184143818711586
Sb 9.437699868801959 15.76991417867983 9.29831045979865
