14
Energy = -55.12080525 eV
Sb 6.998449634455448 10.296764646816465 11.493975065819951
Sb 9.574849966489202 11.333613498209534 12.067988914313021
Sb 7.2704093190133 8.171673270315502 13.427771761802418
Sb 9.702559225678547 12.955761543097102 9.717607238582232
Sb 12.369966324511292 13.732229449875437 10.398653165393426
Sb 11.261373119537463 9.185219415629282 11.27210861763187
Sb 9.910548194994853 7.186514000108988 12.847502338545697
Sb 7.696895472219178 6.269443791004532 11.26341624450869
Sb 7.370755628474934 8.407251111671398 9.347037840292307
Sb 14.036390273150218 11.456423844940364 9.880971717777165
Sb 13.882892931197258 13.619739353131303 7.966313293907578
Sb 10.137785333054333 8.510251170996396 8.741047290867906
Sb 10.089814665675211 11.109113494883978 7.543853757589336
Sb 12.936809523645605 11.005501021416999 7.271252365065251
