16
Energy = -61.14060546 eV
Sb 13.103159700662443 7.086908979901452 9.529497671854811
Sb 14.172888280434286 8.866723745480353 11.60632182900324
Sb 14.02425751471454 9.734779395511078 8.888151308972137
Sb 8.245463581771167 7.3773979818053315 8.959399354480023
Sb 10.237981926082742 8.390952290978959 11.257819374204175
Sb 12.587934134207476 13.34495093262771 9.454948883588907
Sb 11.969720880330575 10.150363943789106 12.916981580238872
Sb 11.18530445665416 9.074395690343158 8.633255026476627
Sb 6.107252956097476 8.37707024563765 10.60929345154814
Sb 6.878935444851077 9.580243557345835 7.903330693773442
Sb 13.011310500084248 12.81409380048642 12.23848939050639
Sb 10.218385185180317 11.99669439986425 10.367384043350823
Sb 8.052762078233213 12.243255889651497 8.374681058136064
Sb 7.913285510297687 9.899332990974376 12.297932996447527
Sb 10.900543812280937 14.607682144423793 11.430093701511964
Sb 6.321985744546708 11.444841278824713 10.47255175321368
