18
Energy = -68.52440753 eV
Sb 13.46558522577145 10.856646934975002 14.174272634729668
Sb 12.05687245452593 13.428130027034447 14.173332700176157
Sb 10.140242237798228 11.989503307245407 15.845702769761788
Sb 11.120780136514442 9.438528558670857 14.853348314421423
Sb 15.356684708187961 8.751904044619996 10.03954037791966
Sb 13.507059194216595 8.713635190332436 12.261738969232244
Sb 12.192532922248617 11.665123994454031 10.2224792612123
Sb 9.66064347531186 13.4828440607152 12.616106797026047
Sb 8.970530305742974 10.808994071151394 13.448255739324294
Sb 7.789986940971826 10.846479390355501 9.918503892208534
Sb 9.7919025502925 14.764379585509339 9.97306167108377
Sb 11.136029450197356 8.99703766327592 10.602287678544728
Sb 14.124794079231481 10.647345865335026 8.285912836405098
Sb 10.971788029614647 13.046668265762351 7.974632730143314
Sb 13.00655721545195 8.011384820628377 8.522314586657487
Sb 8.10834103195597 13.189351378239444 8.279441126095428
Sb 6.49761602737788 9.131340453883624 8.002920940658088
Sb 9.183936187504266 9.307173753321056 7.95207281059
