19
Energy = -73.54515293 eV
Sb 6.668177301712469 10.513937255496103 12.31258275134474
Sb 7.093574401981188 11.117732132355858 9.467350013813196
Sb 7.925609206534799 12.23805840345928 14.274147280155207
Sb 8.336084431592777 8.224144624209982 12.852281499110108
Sb 9.302410937319976 9.802496708255203 15.142543564459414
Sb 8.698306949102657 13.511246951051808 9.187791857441468
Sb 8.7629558983762 8.87379666477065 8.935855955219855
Sb 10.434484364894764 9.573947694476365 11.326334069289288
Sb 10.593117275223033 13.249019303859292 13.820382811108601
Sb 10.27943397336392 9.910997158674608 6.772208088010241
Sb 10.843080917976646 12.659679297317641 7.449847798822877
Sb 11.756053788993682 10.631883771134081 13.836366454968012
Sb 10.807140419518026 14.240755289474457 11.089836532772447
Sb 12.488092573514098 7.74858660400504 10.451889874043816
Sb 11.958457387529108 11.898336179836242 9.96499722973977
Sb 12.646603902008493 8.432693901198366 7.654972240300517
Sb 15.04188967424474 9.113648542032518 10.842222503688
Sb 14.833161066887262 11.872570331591607 10.143215289377226
Sb 15.096988359777766 9.952092017352353 8.040797016886824
