17
Energy = -66.5364386 eV
Sb 13.392178007953579 7.03855529428614 12.00394978931987
Sb 15.621997089954915 7.793644508914803 10.357948416578154
Sb 12.008033603385746 9.59172815592025 12.597585378557374
Sb 13.115299988926079 7.219748852292632 9.162013836167798
Sb 14.378770464753632 11.130152490885314 13.044001087591884
Sb 9.883014154905522 12.136935697659386 13.784982046969649
Sb 15.79377819913733 10.680387793926268 10.58921852742557
Sb 11.66525254947341 9.888154552625027 9.764684472596151
Sb 11.119408561174176 14.259400107416278 12.36912238627958
Sb 8.328654167324473 10.582719325707362 11.948105305294714
Sb 13.764441867191143 13.459959303150486 11.453384851829924
Sb 9.139080012611887 11.470705921452875 9.39920983275059
Sb 13.642318096373101 11.823432576035506 9.059676237098566
Sb 9.785523370102961 14.19865638469593 9.883335404394195
Sb 7.660196167892267 14.075982693849046 13.96739438708793
Sb 6.118498769047564 12.47475015970628 12.124011123458075
Sb 7.323430085554755 14.914961337238628 11.231252072362352
