11
Energy = -42.13255825 eV
Sb 12.271461729151126 8.20758742123935 13.063701223777473
Sb 11.632853131496478 12.527150378401501 14.357941001872396
Sb 14.84463803481531 9.569506933635573 13.04867692564916
Sb 10.316701122558696 10.272868260138013 13.294145876195952
Sb 14.23489924649764 12.341913194426715 13.290786085107225
Sb 14.011312968220452 11.126220313590627 10.72823869155688
Sb 11.450133513102458 9.752329336217219 10.737029588363455
Sb 10.572911992209976 14.632767336821997 12.429287975942124
Sb 9.462865884918804 12.981167514034098 10.379427982616615
Sb 12.0910707204715 14.131097097600511 10.061326931113275
Sb 9.74319466048 15.676845772186201 9.466419668225141
