18
Energy = -69.50434802 eV
Sb 17.08221207094236 12.344319143288596 16.648554056362514
Sb 17.59145337045594 12.191505030916915 13.767758552164816
Sb 14.96393960089564 11.352369799422988 13.080395820769647
Sb 15.312421710980468 14.687587946432808 16.989391003353497
Sb 17.550977558392805 14.899928574896668 14.454705962017975
Sb 14.289622859936436 12.12413727826542 16.460937879468982
Sb 14.89156884453367 15.743341875660771 14.293888200845775
Sb 13.271830407814393 13.610639500826949 13.333085853963288
Sb 9.808402011360746 15.380379980591238 15.935566710876758
Sb 8.825025080978806 12.723465707654327 15.616901039900187
Sb 6.999453425409844 14.874371934072215 16.06227242211907
Sb 15.54173234486881 12.080003002668759 10.26509762307019
Sb 8.383117108586381 14.661406148999959 13.57021183805173
Sb 13.938786581870882 14.43081833396867 10.575175695281452
Sb 13.693768572881039 10.16373409713902 9.2488816328581
Sb 11.053905908660965 10.843682128880081 10.150564220934925
Sb 11.394412589933733 13.633466092075347 9.57011323837221
Sb 11.946100888324105 11.673850233263048 7.547007876576495
