17
Energy = -65.35423197 eV
Sb 9.319053899917769 8.292571638403286 7.000630710349465
Sb 10.638156231537774 5.826380657779989 10.539056055548599
Sb 12.004863974407856 13.141549645057674 8.722295470354236
Sb 12.338610974167565 7.83817103782294 11.672085103555327
Sb 12.078411988164731 10.406429422313753 9.763808060153416
Sb 12.105602597329494 8.867231417825021 7.371769251953571
Sb 8.517153852741886 7.523971115237804 9.635242666827907
Sb 9.31964496048396 13.360961585295492 8.028732445248945
Sb 11.021434534894892 13.91021814821551 11.501466802340948
Sb 12.276610624786217 11.717856535098592 13.038270271126025
Sb 8.380652411107043 13.037470533293487 11.018899044337806
Sb 10.068936433274555 9.978352411006144 13.434839685963652
Sb 12.939724677247076 6.678859384754867 9.089840866656443
Sb 10.890799610426734 13.790274323025297 14.542932826060424
Sb 9.286771795202066 10.248160545894613 10.474399196473785
Sb 8.068171700017984 10.770530172841946 7.887820761056585
Sb 8.519605459875283 12.359588889906556 14.051052790195222
