14
Energy = -53.24696688 eV
Sb 9.770223365032757 12.908040849732238 8.067163857944898
Sb 8.256434454835238 10.526892310979983 8.525095013616015
Sb 14.499719144603874 10.95551339690907 9.071659516233664
Sb 11.293417106059367 8.367544153180567 10.12581130801496
Sb 11.43220387551962 11.287584008432622 9.94778615136389
Sb 6.702955687387183 11.942997079836866 10.413782558894829
Sb 8.511777292693989 14.154288906080518 10.260059142274056
Sb 12.70797922737246 12.231091383278788 12.481528482117183
Sb 14.213420559036221 8.431772193150342 10.395680189620986
Sb 15.242741405017263 10.758228273844514 11.738256077864676
Sb 9.116450079668668 11.37014476233122 11.927933027018115
Sb 9.883764356790346 8.544963676760101 12.561305088139374
Sb 10.425509368519485 12.462715583678326 14.276338750618194
Sb 11.85389423445602 9.96871357879748 14.118090993271236
