13
Energy = -50.06016449 eV
Sb 14.996006389729766 12.68328204049334 16.49789404827715
Sb 15.696484430222753 12.940540971548302 12.931982834508952
Sb 14.989619542270052 15.025744128355486 14.833880500414452
Sb 14.036906918553612 11.017805471275892 14.356204817418579
Sb 12.225704007667089 15.108005848575214 14.11899645643233
Sb 11.552998070756862 12.315749150586734 13.814342266944788
Sb 14.91295807492142 12.134795454772252 7.94435459047426
Sb 14.444298950831788 14.171641559267934 9.926731982360971
Sb 12.361291563970715 12.299804725137705 9.234717593763229
Sb 10.44735857925785 12.26598629222938 16.514285229052554
Sb 11.112000173548253 15.08411226848446 16.81491781196479
Sb 12.64169206508333 13.078099112064995 18.125166910401987
Sb 13.123541541135873 14.2987448357349 7.314697540295808
