10
Energy = -38.59905382 eV
Sb 13.106062208082072 10.464930266542515 9.136068012713555
Sb 9.484484405787512 10.049470531323278 7.902046992776206
Sb 11.970499630341292 8.079311317588292 8.177136969205963
Sb 10.456540682912822 11.849921023531312 9.952187687224308
Sb 11.91727754563402 10.15971792327742 11.726238976809915
Sb 11.254603323862415 7.462479376329377 10.885028883805871
Sb 8.77646379403948 7.812937286785489 9.523589225336778
Sb 6.53753106987922 10.794918936706306 8.603114146183003
Sb 7.6108276474188425 11.92949004914168 10.926549396773291
Sb 6.728365383057096 9.239478979788686 11.01069540018547
