15
Energy = -58.54326676 eV
Sb 10.931007715658758 6.472876912360549 13.088122172228566
Sb 11.46907947983667 7.933992016358625 10.686499925199072
Sb 8.165356220819724 6.7407595949843495 12.284365909841998
Sb 8.8490272630399 9.086143870681969 10.585136937381526
Sb 12.766335457812016 11.322484465132764 9.011246824344806
Sb 13.152497904130403 10.076159499602067 11.561613200130363
Sb 9.148297436374046 8.12581874880406 14.62027001937839
Sb 8.860066138483742 10.514046378380842 13.07334860007355
Sb 14.581853251657945 13.450604282424514 9.608668762870275
Sb 11.492649499975466 11.588443987287128 13.394091281998355
Sb 10.212445939154684 12.49152380486219 9.448485414898594
Sb 13.230731945881436 15.086511638865817 11.526665860717094
Sb 10.663975779584954 13.877906694579549 11.885441402656674
Sb 13.14242207231241 15.78195784634868 8.736662474563989
Sb 10.654989784046675 14.771506148094455 7.810117102485261
