10
Energy = -36.34360409 eV
Sb 12.979277300376777 10.059355407889061 7.82120684363951
Sb 10.88471252343324 11.31411425488403 9.34528278641133
Sb 13.615353045172728 12.01731519819616 9.827636954891187
Sb 12.639559501685204 9.451994428066122 10.601268146468604
Sb 8.127974163377576 12.991838923334988 12.81388084116363
Sb 13.609448260173895 14.415906972788145 13.9457035738257
Sb 8.942281372236089 10.448406831384817 12.588568607493007
Sb 11.06037872339149 13.562516712056553 12.625677248936636
Sb 14.228941158147375 11.824659852452525 13.701294461182306
Sb 11.325879350800069 11.327696817741927 14.143285934782693
