13
Energy = -50.39181836 eV
Sb 16.11925818305225 12.049888841918134 16.57401084683534
Sb 17.125451179066765 14.703892195371608 15.94099127603701
Sb 13.45278190826977 12.817911300851549 15.68257858753354
Sb 17.72756225261136 12.483186067065926 14.233556458313828
Sb 14.471608134620423 15.43062051906226 15.024976643956613
Sb 13.792001948373162 11.175014927687041 13.388997710135051
Sb 15.135784804429253 15.292985559600822 12.286360088014284
Sb 15.866489486553123 12.561994602187463 12.032287533674149
Sb 11.928058668488877 12.056525979922094 11.380329435366027
Sb 9.594379040593694 12.67420055763964 13.036559958409768
Sb 10.797098100997225 15.05004570839133 14.159133976506782
Sb 12.216303339851185 14.920209164559981 11.641364982426195
Sb 9.097450475533126 15.215695557933246 11.843902355892757
