19
Energy = -74.40879585 eV
Sb 18.610206750356387 15.41743819515907 11.844629701892824
Sb 17.69129692795452 16.290994707506854 14.415822030527277
Sb 18.62967489873932 13.571811085444956 14.048863557819534
Sb 16.23609770827164 14.811448534838098 10.347955348868028
Sb 14.364042519666672 16.25492440283237 11.946870250200833
Sb 15.883295989804825 12.59160352870074 14.158091213621757
Sb 14.965464174517141 15.272375351357454 14.551952736694655
Sb 15.95118020328433 12.16139353595232 11.335292874061494
Sb 11.71243806603722 10.245159314034659 11.48786715941787
Sb 13.334618340062622 12.237478272093854 10.162527168359508
Sb 12.28083712727732 12.814598217585282 15.058815369570537
Sb 12.138349513080907 14.740544554768176 10.919763771396731
Sb 12.03733219576231 10.061816999772569 14.37993263915889
Sb 10.427441794113662 14.045102829607968 13.275292670927605
Sb 9.31853201724707 11.828708938809054 11.835074848676268
Sb 9.202596445865746 9.889187965262836 13.946196823622701
Sb 10.278715445631029 12.914199895082053 17.204661418568286
Sb 8.245062899589714 14.058308479738665 15.539465906508
Sb 8.115595471613458 11.311151774590138 16.232265691614185
