17
Energy = -65.98047051 eV
Sb 11.868605490490173 11.436613093318366 16.952435151686164
Sb 14.083917012882853 9.76321320414487 17.877003446753402
Sb 15.047698622379 9.363745477869305 15.157553362586858
Sb 12.589663570481983 10.572588736716133 14.268274163717043
Sb 14.140823133801964 12.5812915590812 18.211608497911243
Sb 16.979956061090178 11.443018539358667 14.84735253570465
Sb 18.009796953300366 15.159108122303609 14.110908946135647
Sb 13.85465544851923 14.780821965376715 14.623483958068567
Sb 13.40049449351201 12.812659738550053 12.631648829929073
Sb 15.97974618250864 13.738913305670975 16.217110109626184
Sb 16.001054207101756 11.752431679434773 12.186819925609239
Sb 17.218514954929756 14.293442202245451 11.52684318492667
Sb 15.665414857301014 16.271705167112888 12.912981249858726
Sb 12.569222026934966 20.27847270656117 15.388958200809256
Sb 15.185296206129696 21.39267397413904 15.138698341896545
Sb 13.75288452806344 20.58129601259583 12.807927116830227
Sb 12.910012732351712 22.884313483095635 14.274763292893425
