11
Energy = -41.83769272 eV
Sb 13.675147384711911 10.951085261209062 14.193611906300863
Sb 13.367920115116753 13.787972505718477 13.56931407401345
Sb 15.893567896121226 13.707001633796157 12.150545033783242
Sb 15.734083569256136 10.767306306532888 12.161556547568313
Sb 13.367958674951174 13.777143912758566 10.731124364587846
Sb 7.199591791741156 12.70492095977591 12.154824412057085
Sb 9.712872657826146 14.111299388629071 12.149408624593026
Sb 9.471356974933329 11.651891967353205 10.730612646875656
Sb 9.472277164409336 11.661177244762541 13.584564997762199
Sb 12.149439257843708 9.664010083614956 12.166044739707239
Sb 13.67484055215877 10.935588195128151 10.128472952447257
