13
Energy = -50.10597515 eV
Sb 14.728661076099982 11.510950489689865 11.692159015184464
Sb 13.98639060417895 15.196091009829532 13.94063538124936
Sb 13.7183680168324 13.463767900468993 9.869846657630871
Sb 12.903205515891733 9.32593636055641 11.029059063026917
Sb 13.597186298177274 12.435760069724967 14.14473066317429
Sb 14.134316596783744 15.852907706974317 11.334509207547082
Sb 11.412594818870453 9.63311283999563 13.418576513194997
Sb 11.201228203230766 10.692706381503626 9.160862683548888
Sb 10.906061774812434 13.19327022629371 10.4648254912323
Sb 10.685024722013388 12.416077454906137 13.2209662673298
Sb 8.93860656314289 8.458401817199164 12.52363034705101
Sb 8.664919759188415 9.567528636098933 9.888795957424758
Sb 7.97550162973473 11.134019074152096 12.184450588010781
