13
Energy = -49.32210726 eV
Sb 11.360319897889596 10.674943102424521 6.870177362124438
Sb 9.120143456501413 6.91969203905232 11.400865023921709
Sb 9.134115463770051 7.200441701643362 6.903973622150931
Sb 12.016031388940402 8.01690840279709 7.739993289190624
Sb 6.709434685370934 8.290128477176042 10.58167925107489
Sb 10.545594158321645 10.937107721717467 11.435983968335977
Sb 7.631932362575143 10.917038796863224 11.413111506500048
Sb 9.124881983295344 9.587935652465701 5.2245414289679175
Sb 11.518411700516218 8.32818166507339 10.602817119567149
Sb 6.236715189075022 7.987824210673617 7.71388402766864
Sb 6.872060264081499 10.655828365771963 6.858813783051524
Sb 9.115322540419402 9.747624078693828 8.491810307681563
Sb 9.087394549243216 9.20870342564747 13.234706709562946
