19
Energy = -72.41436682 eV
Sb 13.240513767629881 13.598180053435412 9.449690843885339
Sb 12.77997649626623 11.078796851462299 8.207296598818525
Sb 15.245862349673228 12.386772727735199 7.670453836252772
Sb 13.3896654008266 8.998517902000872 10.079378408814112
Sb 16.227873312781025 8.936955204401762 10.365636000818457
Sb 14.934156883994447 12.982315451349741 11.691447770720615
Sb 16.90364135110603 11.608681891476165 9.89525983034732
Sb 12.16012253779191 13.318957940522797 13.185284010438082
Sb 14.192283287911964 10.298059250415722 12.475896026560891
Sb 13.883139305859597 16.787656416334592 14.560281285204296
Sb 11.650229280093994 10.668810805440154 14.009306654834738
Sb 10.103160847771035 18.19262940176836 16.29801689101322
Sb 15.7092002514026 15.065993794009534 15.954721377616389
Sb 11.249114533989168 15.766709957000351 15.068353184649792
Sb 13.282510890985817 12.444674761806173 15.630391547427873
Sb 14.819712325444572 17.585231310756093 17.14043415353195
Sb 10.642202183629738 17.061347966399598 18.615405857980004
Sb 11.571556210937505 14.275556781027543 17.465863936875618
Sb 14.162425872003679 15.091498622756282 18.384228874309002
