17
Energy = -66.46804101 eV
Sb 12.744887521191087 6.562909976907162 12.90736129751834
Sb 9.582024417864226 8.737811162747994 10.894710525010618
Sb 10.772738446885025 8.594382455976762 13.472393003632932
Sb 13.752814277926806 7.412859620522873 10.350615953511415
Sb 8.5949898320036 11.465940369178503 11.257813053481332
Sb 11.88564645941308 9.328015996690183 9.286470747176415
Sb 9.72927945831481 11.994519545665758 13.84529448305058
Sb 14.68977278661262 8.64659441020115 12.749611901308786
Sb 12.456237888255894 10.925801629813813 13.394921405574149
Sb 10.508337422419121 12.791541811684732 9.591753398900781
Sb 12.913867720170778 11.61982343427333 10.641618181785823
Sb 10.219456585600556 14.819394578997331 13.63245204512118
Sb 9.99615564439236 15.314641004107065 10.826952666335506
Sb 13.05500193928387 14.754558880082305 14.059302109385285
Sb 14.438678303693683 14.786701797906241 11.544388794302415
Sb 12.530872325372341 16.51798101229294 10.27897666083106
Sb 13.677144989749417 17.274428332101127 12.813269792222645
