16
Energy = -63.14187438 eV
Sb 14.130057349562616 15.284590647370393 13.341276338400641
Sb 11.362305902523703 15.105271480331778 12.467075203446461
Sb 11.742228362262562 14.327317580561807 9.78031726300288
Sb 13.857425305763188 14.397314629838064 16.006736348461803
Sb 8.869784252432137 14.1146875715322 9.53676819944099
Sb 16.730900074079187 14.596119334813196 16.2521646271757
Sb 17.65190455086507 13.211719862082816 13.900053722077356
Sb 15.409583422233496 13.064645813388363 12.103986976915916
Sb 14.04863826325621 11.506433029280219 15.98985341543936
Sb 11.974331034862857 11.439740112392544 9.732428752714615
Sb 8.164668149737212 12.556304512659212 11.852354785870192
Sb 14.44552872913999 10.681189946974706 13.316986709695124
Sb 10.406279912521484 12.699977703901228 13.649328151852734
Sb 9.102385180352933 11.215675156991534 9.481023448817973
Sb 16.923778468894593 11.693449768398459 16.237763910462235
Sb 11.693525386777242 10.50398139641151 12.383586602264055
