14
Energy = -53.85684734 eV
Sb 10.102687702169408 12.753739331841787 13.960741094653947
Sb 9.437717528054137 8.537041873589695 5.758606082642067
Sb 11.29076319218584 7.016133587034359 7.2545437070197965
Sb 7.462783690510942 11.187981160191098 8.036362785310374
Sb 9.999933282774524 11.321788179979343 6.6882950935880565
Sb 7.6125737826545405 8.266882848162558 7.995307581183768
Sb 8.787822900313548 10.483948407071113 12.795281413135942
Sb 9.92135685894649 7.701000167704761 9.609316896486753
Sb 11.278910038281952 8.970324679581404 12.835928473567037
Sb 8.785595808064123 12.204994174111173 10.476439758583597
Sb 10.73533512665038 10.504168858279773 9.32035391652621
Sb 12.218433324090483 10.99828720273584 14.8050869857406
Sb 13.001715204537804 10.471059569996962 11.118516005498511
Sb 12.66081156076639 12.879089959720005 12.641660206063332
