16
Energy = -62.2875039 eV
Sb 16.991373878647202 12.734786995232081 12.082156756301307
Sb 13.558666271643508 11.84462350951148 14.14511484821923
Sb 17.835599256031752 14.676969706550612 10.145880506865876
Sb 15.181371867596761 14.19984070563036 13.741555759978842
Sb 12.65291454053718 11.577694476789762 11.448396158326892
Sb 11.318230557746023 8.759891039169407 13.917213217843177
Sb 10.811002932145193 9.78745074495706 16.330211190292484
Sb 15.92338176260246 12.632277093193144 9.428996708792829
Sb 10.076203043487926 10.360743832359402 11.908207871733975
Sb 15.157778292710745 15.39939281730118 9.419447552116075
Sb 13.733819264676704 15.822364992895873 11.862157294303302
Sb 11.800628633197086 13.690121581496527 15.457365070719417
Sb 11.581157391394523 14.182063579019578 10.95860289975009
Sb 9.34930376733193 12.178396072493893 16.05735919526035
Sb 8.45918170157429 12.28291079434498 13.318587332715099
Sb 10.083286820179103 14.669847505826189 13.33088106196283
