10
Energy = -38.39399158 eV
Sb 11.90718636003174 12.252155857032143 12.388521004058783
Sb 11.498424004423835 12.189747693873706 15.313729150407806
Sb 12.113108921705734 13.769224896522225 9.75585718663155
Sb 9.636063519467871 10.657464859263444 11.603943608518582
Sb 13.369847322474692 10.383865101500227 14.121850462564776
Sb 11.334680119754506 9.223089559340846 9.78322904298312
Sb 12.96972616430315 11.270032309948986 8.56913219254161
Sb 10.67550771803243 9.638224692526027 14.408609442096454
Sb 9.434337130860676 12.981102778543502 9.56684588535971
Sb 10.247798849459537 10.895235561571505 7.689254258038266
