18
Energy = -69.78925799 eV
Sb 19.232426364276506 13.460284443840814 12.087165712283076
Sb 19.14837167119345 13.14453223257716 14.908460438091833
Sb 17.078630042089788 11.897907608341763 13.26992254821191
Sb 18.291719568775495 15.621761279358664 13.742072762716017
Sb 10.245414860300597 9.555931162565837 10.753355748401436
Sb 11.531150375256107 9.055128190879241 13.201042895857142
Sb 8.868588481528743 10.131992373591633 13.20920748841785
Sb 15.645310413199342 14.373772840651304 13.454795363307628
Sb 13.75256453136578 14.488226087847357 11.319182074314128
Sb 13.205974469474555 11.495757753585277 12.71611234596511
Sb 11.331307905321609 12.47360494465154 10.83619993804195
Sb 14.281005700888059 14.555299309889214 15.97154211641865
Sb 12.454897291022426 12.41233272519134 15.32486716188648
Sb 9.059139171482059 12.936689507846545 12.52945301609426
Sb 13.242459122081122 17.1086376316947 15.142390618323633
Sb 10.043763239828316 13.908695313172784 15.012297256228493
Sb 12.705488092530246 16.959733224311528 12.299816428730464
Sb 10.584850778513943 16.620487993809462 14.213783985002449
