15
Energy = -58.17233484 eV
Sb 7.905395927239894 13.658952242113697 12.61224852893825
Sb 9.246855276171196 12.719617942293043 14.968649002549478
Sb 11.224283367800707 14.676839057003855 15.620571782073611
Sb 11.569847503633055 16.069162281167795 13.147684290215945
Sb 10.024758557114763 11.697354797818036 12.405207498012105
Sb 10.354372808497784 14.304424367401161 11.240093320042945
Sb 13.504576353850618 12.936381798294573 15.785233954070454
Sb 13.633111280460371 11.239236314833109 13.471104151946687
Sb 15.240618515603648 15.033239091569321 14.998361323597345
Sb 14.322280996303688 15.565019410070846 12.333259926292376
Sb 13.873107719814785 12.988880947531761 11.21457752333915
Sb 17.462823879696355 13.195660125404196 14.974766176075455
Sb 16.336557723885313 10.628583638289081 14.267140455136088
Sb 16.579523453247326 13.063833847140087 10.37873059288186
Sb 18.11803478219332 11.955369092756719 12.440405124737568
