16
Energy = -62.94891948 eV
Sb 13.062172862039208 12.104362457560288 12.00396952797577
Sb 10.517779984911062 12.138288162513717 13.390995025501251
Sb 12.804311672822935 8.60032551156053 14.501121390561558
Sb 10.070046331370648 9.420782194856724 14.186044420386144
Sb 13.905256663655523 9.366637594175328 11.96849321701637
Sb 12.448503862149378 12.57882867155092 9.241410962274909
Sb 11.897079348068576 6.238459893393788 13.003745105462475
Sb 10.294892633737991 14.289287680438308 9.981419236487664
Sb 9.626757038659296 7.714096068826621 11.918148815694211
Sb 12.123225411355651 7.676929398485982 10.477036726090775
Sb 8.539268468137 12.513762894920779 11.351288166873271
Sb 11.07099246691356 10.288380932069916 8.26808780003533
Sb 8.917683097749967 14.205552454169183 7.46095656548527
Sb 9.869998768611124 11.851779848386155 6.120732261321657
Sb 8.566115211917971 10.239819448811703 9.643268250911968
Sb 7.329029211818449 11.815819822199005 7.526395561840021
