10
Energy = -37.85840812 eV
Sb 13.827540267867581 10.502103912463953 14.229219692431574
Sb 13.516665267834941 10.228957079805204 11.21040772788203
Sb 13.379491412215932 13.245342198137735 14.560995124234324
Sb 10.546135431920964 13.279439561333797 10.60821258201239
Sb 13.245139771529605 13.099685676977892 11.449030975486103
Sb 10.599954651510018 13.525393138616291 14.75422563601958
Sb 12.63640340163688 13.601525208364837 8.472864871740295
Sb 11.511394952505826 11.135887569848103 8.956231960261176
Sb 11.44157948656367 9.462398575133749 13.08505606730971
Sb 9.529382812752804 11.57453720064374 13.204287001156995
