17
Energy = -65.62910432 eV
Sb 15.34583921891709 17.452995526941113 10.923792340118231
Sb 18.006987650845115 16.29314590756854 13.66006616234411
Sb 12.75990838617451 16.62599413380187 11.827548565203276
Sb 17.16779908037201 15.23038168973046 11.151978810564108
Sb 12.959161155531516 13.845904822103549 12.572244465294542
Sb 15.785773877565044 16.149736974515843 15.411162509427832
Sb 14.47030476707662 18.098509557336225 13.588273218270984
Sb 15.41381006448952 12.993072642805016 11.326647800225913
Sb 19.617924030391716 14.307262428941701 15.026686598796605
Sb 7.163377574400862 12.500868912447096 16.965874962108145
Sb 17.66693392950208 14.0490195331837 17.087234487753904
Sb 18.12302224733585 11.872310626045495 15.323237641209476
Sb 8.686174880815969 12.518434228766024 14.552348311959452
Sb 15.57761066713286 11.760085090536563 13.955012987624007
Sb 14.088606029689164 13.847247708621243 15.232122494620274
Sb 9.62621185150434 13.93846084096922 16.841610284911297
Sb 9.637184810072972 11.088173321732162 16.8285749651427
