11
Energy = -41.84128996 eV
Sb 8.872149164075768 12.796105714055669 12.22581422009344
Sb 8.359980414506522 11.679646335008757 14.829477927943561
Sb 9.231879729095093 10.00493426374402 12.689672143357955
Sb 11.311283514839676 14.059382543217842 13.23293230952346
Sb 10.784664458104938 12.955291477740802 15.843460790819007
Sb 11.978435455146276 9.58735148280507 13.009835632338666
Sb 13.902365871649302 13.816222093014717 9.33316042562166
Sb 13.75874566006585 10.970874678343662 9.173906230197181
Sb 12.90537366928748 11.920191022967137 14.237974062982463
Sb 15.652896160324937 12.4027175487464 7.572381773131895
Sb 16.014813487827713 12.220706762908444 10.397452700158881
