18
Energy = -68.16613475 eV
Sb 13.577378428010444 12.757554600397013 13.897578331028829
Sb 14.269575563310902 17.237101090413436 14.423390743192597
Sb 9.898478943120345 12.121168258370384 15.960511873881256
Sb 19.906661411134053 13.973910362428187 12.214679751565937
Sb 17.011359991705067 13.754027998831722 12.82337777926891
Sb 20.8433639271676 13.91909376794848 14.93772396881278
Sb 13.148250059512627 15.256233479859933 12.586991767064186
Sb 10.977560329958854 11.477299389568705 13.38762357037597
Sb 12.899875013541612 13.249548181813504 16.617754237559666
Sb 17.001422822865475 16.514543645698453 13.661696413283924
Sb 8.972896891291729 14.627959477581273 15.018823060972252
Sb 17.762125131399653 14.461723754978157 15.475401737083477
Sb 20.641803148296724 11.595088408744044 13.560989786356346
Sb 10.51375533657 15.81424330512469 11.377166550792
Sb 13.701075216735388 16.012440001548065 16.961455982702876
Sb 15.709284331494278 14.051818382463019 17.46869743058269
Sb 10.95246134171933 16.580178038412292 14.125108993940618
Sb 9.113156269205271 13.49655133001831 12.401512519996224
