17
Energy = -66.42369741 eV
Sb 8.588352914585903 12.953148574746532 9.075103352417583
Sb 9.582364278601464 11.880626760120336 11.563385133764495
Sb 15.11477146261669 12.875385136333843 13.097657794027034
Sb 11.876986915996575 13.29923561365493 10.529878966371035
Sb 6.980041009687872 10.860412882674838 7.887699314927332
Sb 14.76216225135794 10.969832587693013 15.224552591510466
Sb 14.121595588398792 11.518979096602251 10.735849269296502
Sb 12.993611140293794 9.168118597444957 11.888967744426111
Sb 11.389536039620776 9.682195872638419 8.103579003989386
Sb 12.203822976887865 9.906587103914111 14.52128858157312
Sb 10.267935077954288 9.253776584515316 10.693654449273065
Sb 7.540423052240145 8.488359430868227 9.329789497821196
Sb 11.115043089514876 12.509725774508667 7.821324700292421
Sb 8.856190366148764 8.965729975732161 6.832097963502658
Sb 10.946992464621426 12.501691821384302 14.75645787183129
Sb 12.864649367413282 14.460248015186085 13.900307741582727
Sb 13.228372869516495 13.138797037438804 16.47125688885037
