16
Energy = -61.25452818 eV
Sb 12.220532847443774 6.448181670263233 9.3387124106152
Sb 10.216485129984884 14.333731624589774 10.943418867644786
Sb 10.31640593735151 8.071433899705749 13.149241025384221
Sb 10.29137426461612 9.901943797743254 11.145150920920777
Sb 10.363377958999791 5.743875623842825 11.455503894247975
Sb 13.152246383798918 12.09451603356561 11.925327200215541
Sb 10.253404622205359 12.172239343083339 12.91140482749049
Sb 7.3585478195562795 11.99518702829448 11.926652846191136
Sb 13.198278763111272 14.201665741468029 10.094793078246786
Sb 12.790483982693043 11.49981250127603 9.15570231992495
Sb 7.2409147137917635 14.099562630905343 10.095931960346682
Sb 10.241616980406114 12.852985702248345 8.54098626727962
Sb 7.7399421214433275 11.413381825563501 9.15655628567481
Sb 10.370109561691528 5.296317515195934 7.41835113357028
Sb 10.310873597969955 8.109262902016049 7.931660705916511
Sb 8.475199730864825 6.368017675772345 9.340670814513574
