11
Energy = -41.79261973 eV
Sb 15.019690063537723 10.601191702168002 8.277880055035697
Sb 15.892702678748131 12.23682196255004 10.449601819170665
Sb 13.874334370669866 13.21364336310601 8.681972576812356
Sb 14.568842831721806 11.376658972599998 12.759099024833702
Sb 12.528813010565866 9.377345113996535 9.198013457007537
Sb 12.124202741724512 10.374180731405787 11.845753256205443
Sb 11.630363715472198 14.27344215360319 15.771586703509795
Sb 11.380278181674951 11.987035137483401 9.61074725963391
Sb 9.789029735103318 12.109031284564109 16.042203419598735
Sb 9.17746910065774 14.295052819831252 14.31306033948823
Sb 9.155617066018358 14.665255867241084 17.143557298806503
