11
Energy = -41.98591543 eV
Sb 12.11126102884179 9.901904371344743 7.895019443464363
Sb 11.768295709611934 8.391801923331418 10.263570113144599
Sb 12.982657231908934 12.364468903501544 8.703306522691568
Sb 9.433481428683379 10.013867142187973 10.109049048029538
Sb 13.933276387516603 12.192477279557508 11.356423005992035
Sb 13.34024196930739 9.597667462188022 12.323395532858859
Sb 8.6862866649068 10.163504663164494 12.95245861628573
Sb 11.279286412233795 13.468453504812123 12.613437151382344
Sb 10.111121055163206 12.789839559986087 10.064630921445888
Sb 11.289096252726008 10.89962586264374 13.9446362990483
Sb 8.32397052918232 12.930392374929019 12.496582466527864
