12
Energy = -45.93023429 eV
Sb 9.755388527685954 14.14313239162824 14.087182187328539
Sb 8.27554852800073 12.464102764768073 12.263549238150466
Sb 11.34042446227283 11.84950096808114 14.753321478961352
Sb 11.224196012500549 10.407300910717678 12.260499742123516
Sb 14.676281981938496 12.677148384608445 10.39128059674164
Sb 14.06302156901947 10.196994693791183 11.67066311450639
Sb 11.078386695346953 14.940742137302486 11.664738810569498
Sb 13.918425455508736 14.733234044101737 12.254190431863494
Sb 10.46800815375675 12.457734697313926 10.390456244023946
Sb 13.801652862063406 13.298034208717462 14.751230990255827
Sb 16.86409443360318 12.680875977260222 12.270110306966574
Sb 15.383684773460434 11.000312276867021 14.092231733874813
