11
Energy = -42.03990531 eV
Sb 10.852543287878492 9.17652025176215 7.358099576500572
Sb 9.859262401274135 8.02583708968627 9.75741317918677
Sb 11.658476685419439 10.224977349625625 10.21923857736205
Sb 9.092861140566136 10.67388534667281 9.029857926641636
Sb 11.109869067025373 10.638555437377027 13.18043303846324
Sb 10.151882100674294 13.280607115667392 12.9077203097546
Sb 12.202597897827335 14.887284539175084 11.771524374848395
Sb 13.895850382064873 10.988217208157018 13.514014292288056
Sb 14.661039183066176 13.359893149900593 12.134372639427893
Sb 11.74686533907109 14.882151828847919 14.63264416619701
Sb 14.234957728019921 13.381254398178333 14.9981277191906
