12
Energy = -46.2169618 eV
Sb 12.625179202611474 10.560165696129655 12.36043187789437
Sb 13.186295725078566 10.552382566375837 9.561016375717086
Sb 11.543200765517692 12.560527153618903 10.643907046483214
Sb 9.940939084951863 9.503395128511823 12.826796269428561
Sb 8.847685976645804 10.879829534736972 10.429942936577103
Sb 10.643236879343755 9.226265092278295 8.981244670789925
Sb 8.820644960683513 7.059258554334897 12.026469131236443
Sb 7.983447452234222 12.014336557331852 7.610742908201679
Sb 9.692801351448209 10.088113108009924 6.352762996122494
Sb 7.190327929692325 8.27307648377618 9.814946805752987
Sb 9.405296543547019 6.602287526962935 9.27405913566344
Sb 6.965143768082681 9.524562237769295 6.961879485969262
