10
Energy = -38.39223774 eV
Sb 10.329328883371035 8.274041485772072 9.323903584067137
Sb 8.696815621188268 7.8266783034543685 11.864284677645955
Sb 12.623832226813976 7.755882525410528 7.51413181508254
Sb 10.041000524521063 8.30191704793463 6.406743371348436
Sb 9.960529321401358 10.1868976438693 12.680246514588811
Sb 6.618993773301346 9.362898895833597 10.561652386217524
Sb 11.840706616438245 10.40498211011807 6.928693600768605
Sb 10.75736571407461 11.081242041928778 9.819294523318906
Sb 7.5160086758808164 11.657203757546629 12.060731845277882
Sb 7.982934359211864 11.515771904334063 9.207833397886786
