19
Energy = -72.52707758 eV
Sb 12.890141823860159 14.157309811507282 9.005211951979046
Sb 12.660344210881663 16.24223345677146 10.920690463188354
Sb 11.268560562288055 11.839670973945156 12.475002934683017
Sb 13.62943147219122 9.960375707141528 10.461587555949219
Sb 16.99334830980268 12.762938776580938 10.666487997028097
Sb 14.132029344394098 12.653164527979621 11.05957055748483
Sb 14.52053778335205 15.862812628878604 13.081686350710491
Sb 17.243900224156203 14.9866305431669 12.54163709691829
Sb 10.726753991902227 14.748973939016139 12.505624822939316
Sb 12.985132121634184 10.944152699067489 14.623484692993639
Sb 17.319428158718406 11.08888729357963 12.97283096804798
Sb 14.843500083923514 9.481223965155815 12.965875269794529
Sb 14.118999150192813 13.549987032287568 14.73616620318122
Sb 9.268083562556432 12.14755884169904 14.721679370911176
Sb 17.004899827630556 13.27261920244635 14.87695584465001
Sb 10.468525341438593 12.838184384905317 17.231007334534613
Sb 8.759765839821812 14.746734155109817 15.845153966199062
Sb 11.035282931479511 16.316165044497144 14.906051123148425
Sb 12.557324737045573 14.826366493532918 16.82928497292798
