11
Energy = -41.63332464 eV
Sb 11.959631057075399 10.7873134350395 13.47337748215445
Sb 12.351357543397231 12.923111786162483 11.59568754804075
Sb 11.88140194946912 8.515139237962787 8.851926691701584
Sb 8.426642568543144 11.87400954109106 11.534073848710714
Sb 14.348582295376795 10.855701864236401 11.902043899310593
Sb 9.014674133002705 8.463708263138404 8.51388065331582
Sb 10.52716178711693 10.723065005041413 7.62165879014369
Sb 12.554386074093943 8.62492223511261 11.636546346841481
Sb 10.288283285088466 12.790248939266746 9.568782647008826
Sb 7.9739090770870495 9.084654299738805 11.116234722978888
Sb 6.321718900664891 11.00587406412486 9.833536040708278
