12
Energy = -46.48403025 eV
Sb 9.946430307815886 12.890258099605322 13.54279353679516
Sb 13.22958140284379 15.874219105524448 12.570873814599091
Sb 10.815104199780045 14.731732727628927 11.584540367923
Sb 14.183925214085846 14.031240117538308 14.606027516686174
Sb 9.211239320226081 10.96490593379851 11.47416096638015
Sb 12.353585763881425 11.847247380347051 14.58736139990817
Sb 13.287599389358315 13.768677363915028 10.544770512192033
Sb 11.259296726618887 11.037069711483694 9.426548927540571
Sb 10.548648325015602 8.482496350897142 12.118645113701692
Sb 14.32480963010378 11.953917888246181 12.559156981315441
Sb 10.783211190692663 8.147898608847136 9.257256467938712
Sb 13.01093575830708 9.15010989423575 10.769229055925308
