13
Energy = -48.99852635 eV
Sb 11.46111856107637 11.040081253917457 8.6752034562248
Sb 8.46841479883433 13.518413362468921 9.381670342619895
Sb 13.690928833644303 9.299226850368287 9.592129164612539
Sb 11.11368854915879 13.208430798203846 10.57740904586528
Sb 10.946108061107898 8.694705760318795 10.207700372886281
Sb 14.602395714262475 11.467468716735867 11.280739046733158
Sb 8.297846795178513 15.92360144536124 10.929898172048768
Sb 13.64862784413112 7.756934594262901 12.57312938114207
Sb 12.599802599381869 11.662609131618439 13.301620720200756
Sb 8.791908769546836 12.063606713253261 11.85369836632164
Sb 8.599985590247993 14.571945960226651 13.255542848176255
Sb 11.169664828564052 9.180167242687972 13.021126980073666
Sb 15.000464885304467 10.003764001015812 13.74108793353449
