16
Energy = -62.71674959 eV
Sb 12.817797288483888 9.291297596013472 7.387422652790771
Sb 14.264928570305958 10.433657357423863 9.60606062474288
Sb 12.570368837719668 12.032780483859261 6.395506025117759
Sb 10.243670680912066 10.53816903748505 7.160656690140381
Sb 13.519795603134543 13.125426616216329 8.905011138724014
Sb 10.301322635028715 9.245412827115965 11.357891627620944
Sb 9.318491132049793 11.387761632972337 9.727662128181619
Sb 13.035097211419366 9.573423368290335 12.069721912548264
Sb 10.902539581607558 13.76263924690018 9.83262057199473
Sb 8.90490818258849 10.370204074341473 13.615570509397493
Sb 13.601403451454434 12.148618656050537 13.189660111125274
Sb 10.503778232794085 9.984532228203495 15.985044862618746
Sb 11.627312996158592 14.132515764514055 12.609098729399388
Sb 9.158283841746181 13.238765469440661 13.709157891982299
Sb 12.810466097448783 11.686751160716902 15.89877035306881
Sb 10.243106348086137 12.87131517139353 16.373414861484882
