10
Energy = -38.60096371 eV
Sb 11.545104145562883 11.744080995522744 8.254755260327542
Sb 8.243751492778218 10.02421017758012 9.493829300776735
Sb 9.035218188398794 12.70602991491627 9.249519706521607
Sb 10.90288794201705 9.037102582437194 9.08131338119369
Sb 12.195818680341114 13.028673274663957 10.712972547961648
Sb 10.145620762641624 9.299648712089944 11.82639253534043
Sb 14.145787386338922 11.648870768910259 12.36482392664521
Sb 9.953985169639491 12.156485597329118 12.249654800221336
Sb 12.71118517629357 9.430578157935756 13.3928241414804
Sb 12.17255729230614 11.976236054932947 14.425830635849715
