11
Energy = -42.64636813 eV
Sb 13.337176749207021 14.363000653770722 11.114083449192862
Sb 13.079408768361159 13.098471895900866 8.499077305304727
Sb 10.78346229393305 14.236719600236711 9.801403216668755
Sb 13.517933866115678 11.751771564457792 12.3411300324204
Sb 13.261256215518848 10.501120618724768 9.754838300048307
Sb 9.33181533551251 12.0498596791695 11.004396847822047
Sb 10.493647674899746 10.01443819629686 9.398607259205512
Sb 10.888253121304501 11.93421451990703 13.378168694042401
Sb 10.420442175236863 7.862618677893699 11.299020354907066
Sb 10.677271060843697 9.117647165066359 13.898874710942533
Sb 8.130374468287801 8.782430437243628 12.696469160329375
