15
Energy = -58.38672763 eV
Sb 10.14083596524594 7.506432011240748 10.96549847081597
Sb 7.452359302209286 6.6502587934249835 7.528979586126502
Sb 6.063874482973595 7.499640554555795 9.860132503369607
Sb 12.751531010455752 10.369416101172593 8.511634208640706
Sb 12.697378653321534 8.78428362214189 10.926343890792733
Sb 10.262021241143405 9.783308381544787 7.175639243686477
Sb 10.24156324689879 7.108083315646962 8.14639326322946
Sb 8.26307659056871 11.028287144773193 8.769309833785957
Sb 6.236615651948345 9.266725464208355 7.6101275195647755
Sb 12.312011683308462 10.571434037822035 13.129636803005026
Sb 8.130879790175555 9.516566661085212 11.178021149058795
Sb 12.218735285123017 13.059714977220539 9.308623937258709
Sb 9.57025480600229 11.395728474408031 12.983744790739527
Sb 12.885379393786973 13.224348138419392 12.065450648483008
Sb 10.097835065662231 13.560124491159224 11.164816320266203
