19
Energy = -73.55643221 eV
Sb 8.847631684198786 6.531117047857309 7.849775125690479
Sb 11.675592664945034 6.815425508761969 7.798688691619691
Sb 11.2759516709239 7.088624660735774 10.621828113579769
Sb 7.184120884329747 9.025346457879191 10.08494186909829
Sb 7.792775549787457 9.085516997706254 7.272512493762098
Sb 12.37822357233681 9.4725268722543 7.045210063417086
Sb 9.97274654116082 10.919125236910812 6.866017546049177
Sb 13.744323161695592 8.426865854757347 11.212216790688956
Sb 9.865004460899376 9.582338364273971 10.79144461753776
Sb 13.65018782511556 10.740539768428995 9.478607354856859
Sb 8.102227126674045 13.624802192831183 9.526149129430063
Sb 6.104244767247597 11.736246512727181 10.2117058427994
Sb 10.020622167142577 9.661787689880722 13.611275842111223
Sb 12.903857930411538 9.720020649211499 13.697725038174967
Sb 10.704817227791654 12.058448867052105 9.566059547617234
Sb 7.255028484966742 13.409990162383748 12.252835929240193
Sb 13.686536699806346 12.083632603871285 12.254287738795776
Sb 9.538201923798631 12.473754490708206 13.877928926415446
Sb 11.378650404024407 13.624634809024776 12.061534086371863
