13
Energy = -50.18494015 eV
Sb 14.000196368931118 9.27559505823611 8.776264355376393
Sb 7.86633852625876 11.912305780281137 9.807654160019082
Sb 9.833674479413961 14.01403882397841 9.44007138111708
Sb 12.142131389984137 12.479438512623876 10.221154370963417
Sb 11.261514371612813 10.167013871979888 8.796908288552975
Sb 13.18094453703477 6.904502208997648 10.175398469816145
Sb 10.568934549303089 8.212785464740309 10.810619573798382
Sb 9.602122008933167 14.917126297525094 12.134690123144301
Sb 14.608941415341322 8.982722742092973 11.579099371347942
Sb 8.634196488480281 10.790120760240722 12.335845251221448
Sb 7.212691274848443 13.347413573363738 12.259341946847572
Sb 11.180838590749696 12.00497812945983 12.883233328925815
Sb 12.113892835431331 9.198375612802998 12.986136215192188
