12
Energy = -46.214464 eV
Sb 11.374507887166516 7.657598653422806 7.891618803886129
Sb 6.815898072472262 7.895456982114455 7.521198000547158
Sb 9.263324541984028 8.92929048792427 6.495937030929085
Sb 7.563769881977251 7.146203767851951 10.199155274377535
Sb 12.307141902519293 9.69481847114988 9.784344943556707
Sb 10.267788244404555 6.613239453139179 10.29303172590298
Sb 10.537013874716598 9.360860482275873 11.967203715850056
Sb 11.536834656819966 12.453219544042929 9.36737619507925
Sb 7.678740996432328 10.62491935774003 8.174797753157623
Sb 7.924686281665252 10.139470718681743 10.997448174604724
Sb 11.360204407091398 12.29220920830083 12.256762757130343
Sb 9.075553195683455 12.898176816289093 10.756589567911448
