17
Energy = -66.41539472 eV
Sb 14.313664924762593 12.928771609058376 9.940489748285831
Sb 17.565643947100185 11.656837588740393 12.148598976097375
Sb 14.963669039995027 10.68809410455872 11.570316422596738
Sb 7.452407961021494 12.041204332768366 9.588568559772895
Sb 11.406494639300469 12.78188018829219 9.99752362611402
Sb 17.183324412082566 14.367451637251008 12.942154479281696
Sb 8.907199898546422 9.65545389825765 8.970296745757834
Sb 14.697727309120122 15.13879879032837 11.698770425434672
Sb 8.018718337543019 12.967409757811778 12.294486070005863
Sb 11.406911284930484 9.927105055992186 10.354029393072135
Sb 6.7553546592242775 9.470894000920776 10.825741572788115
Sb 10.777425134309809 13.803122433940127 12.566167733729522
Sb 14.694376934479248 14.18439224504438 14.385641815606531
Sb 14.272612766587516 11.356718563037681 14.262912751354692
Sb 7.931101358900975 10.286662278456774 13.334519822222495
Sb 10.61717589363478 9.389455589361464 13.04917850210138
Sb 11.423650445406578 11.743206873124654 14.45806230272326
