19
Energy = -73.38578106 eV
Sb 14.834474031905572 10.236711624452086 11.077552805313417
Sb 15.338482376979576 7.396084898342024 10.943828416176872
Sb 13.708901805560622 10.439095972522438 13.678268856120981
Sb 13.685342075822009 14.412792193797715 11.66564109556464
Sb 13.182785456990844 13.206557238344887 9.11687627870821
Sb 13.39192928620109 6.2163531188509005 12.747260400390235
Sb 11.777416186098835 8.376248871103053 13.841943875485551
Sb 11.89380387591826 12.382289147769644 12.577191868340119
Sb 13.121057119924098 8.644937481968867 9.475081842468015
Sb 11.2091629638649 7.407910881174661 11.239196341432205
Sb 11.209524003152103 15.286881133335811 8.575835877366083
Sb 11.420410633293578 16.230483763589124 11.303707742375662
Sb 10.847503695926996 11.22974282660351 10.05218116219681
Sb 10.132214754477848 13.32524551792766 14.60287314725221
Sb 9.24325641069628 13.21708703309637 8.593127432412963
Sb 8.840210920186317 10.83674372038337 14.140815514819513
Sb 9.088000896007232 15.22213459414879 12.698354738911558
Sb 8.178837388103815 10.908867806528619 11.444350263306319
Sb 7.532581373446326 13.659727430616439 10.861807595914287
