16
Energy = -61.75395843 eV
Sb 13.66650017112136 7.104590685503629 9.024480758901545
Sb 14.221978781817059 9.636926609775978 10.308045760900189
Sb 8.080478360475414 12.707024154190707 7.589238262842414
Sb 14.310853226645502 7.1698853805350895 11.813370207314971
Sb 11.778638385955782 6.072534862341094 10.942955576911002
Sb 10.75066801977939 13.609305286884046 7.350701042117103
Sb 9.460167740732853 9.694378453694565 9.443995554177075
Sb 8.725795272785641 15.271606589959658 8.59522960409951
Sb 7.753410931695072 11.707659733437326 10.530536880049857
Sb 11.801630535594873 13.5956286332772 10.057947062232362
Sb 9.348192357197798 7.561197505466804 11.384609085712926
Sb 11.675222404917557 10.827170696397047 10.806092094389198
Sb 9.27838126223313 14.054621241295775 11.28120181943966
Sb 8.388144930851125 11.229053761818664 13.562058542052048
Sb 11.214709152835722 11.22252147307986 13.613504702735076
Sb 9.7683393210744 8.761842246296155 13.95481945841338
