14
Energy = -54.45465406 eV
Sb 6.590787805934682 14.710470940869897 10.451585119494515
Sb 10.023832842870826 9.694168771639394 12.77225614141926
Sb 7.889417009848288 12.256564010416886 11.35954010504523
Sb 9.6393147658355 8.749567775504548 10.090568687154363
Sb 6.323819571839441 12.32356713508014 8.919997381632157
Sb 12.451226150723663 8.512553376708508 13.785107970423029
Sb 12.51979235371944 11.14279334848256 12.636996889848252
Sb 8.342891778033733 14.257254332434385 8.204280111249531
Sb 13.35782396316566 6.619287845654499 11.831754603696206
Sb 13.482120548878752 10.798368428659703 9.949945462140976
Sb 10.31021655062726 13.106042383503532 10.029664983059213
Sb 11.005742313946335 10.731926177884459 8.53552326592596
Sb 11.571191051649015 6.687001441561439 9.594635828226224
Sb 14.13010495943507 8.048715698107568 9.476425117192454
