19
Energy = -73.75234372 eV
Sb 16.450615961502116 13.129252056807125 18.26646823862513
Sb 14.087559366206442 12.39889703575678 16.8141720795458
Sb 16.613765159243172 11.200939061440799 16.170380158641297
Sb 16.913760215590308 15.91263383922291 17.72936978987233
Sb 13.896037586657688 14.466322133566935 14.616733328152199
Sb 19.100796218021365 16.53406862794555 15.96676842320068
Sb 11.05893861778402 13.88151280011885 14.53784296918577
Sb 17.521534361278956 12.408466016235149 13.727001086874871
Sb 14.82554841181227 12.582858451842384 12.65375006619178
Sb 16.37343404373883 16.977063908683 15.118599126849134
Sb 18.079631647426982 15.211274385531285 13.60359089895657
Sb 14.650325758530572 15.264332272275048 11.653305766876501
Sb 10.47698505610864 15.573865189413022 12.328882917078248
Sb 11.166460659626951 11.322804080497251 13.339070406394772
Sb 12.207396933281922 14.603371429815722 10.288482056743838
Sb 8.146298942546057 14.109432951973758 11.492090797305842
Sb 8.36338174470902 11.463322907296286 12.60216910703544
Sb 11.942341789726083 11.795014730189765 10.614109625754027
Sb 9.1370444514075 11.969811537132365 9.846873194691446
