19
Energy = -73.33507684 eV
Sb 13.301569541752338 13.017408420053908 12.467587264097753
Sb 13.734516846466054 8.563138981136067 13.619372982107718
Sb 11.730491834068452 12.60308190955467 14.809776731198125
Sb 11.582746307137125 9.744090318231839 15.092108944150482
Sb 13.101633896392391 10.281652564713548 11.331979240374412
Sb 10.988790050890374 14.091803924521962 11.182242812877679
Sb 11.045714378863089 8.652732843724534 12.493711482184818
Sb 9.287031295131245 13.405464536416456 13.456027212575
Sb 14.441687982426734 8.711906205263851 9.14507849193447
Sb 9.140687584860004 11.214116678758995 11.58727622853458
Sb 7.512719353758794 8.356735291453369 9.17131253130184
Sb 12.031986483498786 12.352339450941223 8.786252636343812
Sb 13.711907458617278 10.522036951728664 7.096491031972853
Sb 6.701190190798277 9.49642206910187 11.660744914918407
Sb 7.99702981747599 12.85119127541082 9.461535210355184
Sb 12.192980385919496 8.136852124743028 7.448480085627636
Sb 10.234039232946612 9.681583474669408 9.003590141050745
Sb 9.612952211883636 11.875483402987555 7.290347789093089
Sb 5.9377486647779385 10.72938309425346 9.183507786966164
