18
Energy = -70.90214606 eV
Sb 7.77280450362637 9.522336941615285 11.837990809710208
Sb 6.534102153239092 10.105548165289198 14.351741916158996
Sb 8.280088083607753 8.068349895694777 15.420176089820517
Sb 10.129587364225253 8.48910737334212 13.119323971190214
Sb 8.332096034013551 12.201273286989037 11.030467300059199
Sb 10.257242931841684 11.532584287701034 9.015042032375156
Sb 8.684638406193748 10.830212573325964 16.12850766174987
Sb 11.030100141619954 10.868807548072724 14.465416297635153
Sb 9.921745314356947 13.197919035486812 13.210286531029219
Sb 12.095537833222243 10.129729213277763 10.710939969698439
Sb 11.184881568890463 14.207155215517533 9.092018326252067
Sb 13.736226700192258 9.068228121750618 8.603964190034425
Sb 12.181626594193046 14.350803209023315 11.786810044455283
Sb 13.821406351870214 11.08157887937199 6.574680507359019
Sb 13.69116340650214 13.74885522478466 7.731096295539692
Sb 13.851300562138006 12.0430983229529 11.890524867783274
Sb 16.105419789868968 10.632891827253792 8.349940052569517
Sb 15.531890990067247 13.063379608219096 9.822931866249007
