17
Energy = -66.50149118 eV
Sb 11.711477248694612 16.6119951102909 10.437592009914443
Sb 9.551916957016644 16.338180929248285 12.30429604947782
Sb 12.282784975917924 16.66885113262551 13.249550128602333
Sb 12.785789772925447 14.151544759712307 9.430762906612413
Sb 9.608935027985158 13.698058486761015 13.438739303958876
Sb 12.436445415055106 13.829395629750524 13.986267786989035
Sb 14.172929409918696 13.427704358978414 11.791859580984225
Sb 8.776702416604072 12.108431886145313 11.211263886582076
Sb 10.597082909244737 12.33643186932772 8.981612410772328
Sb 13.88480900389206 10.411480214896459 11.57565025110737
Sb 10.286050523899117 8.380754403597226 10.070180145675943
Sb 12.371543358293192 10.098672310078548 9.161981382853757
Sb 12.024398039412697 10.182431724852137 13.72517762579178
Sb 9.50745859587257 9.641236508269515 12.494825030258358
Sb 14.418786173201399 7.340289882966156 11.694153780961601
Sb 12.608688585524131 7.320537269706858 13.915370543607978
Sb 11.798012605866122 6.277814542116806 11.35452819517335
