14
Energy = -54.35267967 eV
Sb 14.983578309998814 12.502689545747605 11.960544734029524
Sb 14.518323108255547 10.175942253841672 10.374726040984566
Sb 15.97413367127193 12.38870322132958 9.271828539713928
Sb 11.54790044249588 10.546404726232662 13.34753324352243
Sb 13.157641038647434 12.612925433471384 9.765405633878663
Sb 11.042004675797795 8.541289235858747 11.368676631052917
Sb 10.62496161130976 13.099949944437054 12.51874108360754
Sb 9.030762216499884 11.462321234134043 14.364642096365417
Sb 8.195914760887097 8.261967623198275 11.40549025838366
Sb 11.02998946100836 9.487715379010277 8.642873320667944
Sb 8.375103251246344 12.790061762533888 10.708830130593217
Sb 7.143396084105134 10.755954659669014 12.27298419161374
Sb 8.180481837145635 8.734369337041175 8.542781820594858
Sb 9.010972641498235 11.454868753662163 8.270105385159136
