24
Energy = -93.19715183 eV
Sb 19.499352521243217 15.281252809639982 13.43240090519621
Sb 19.07220928437818 13.945981660174786 10.943966481369381
Sb 19.543250165256403 12.429965009939705 13.314288142005314
Sb 12.877048820878269 15.884026209544636 19.220891441655336
Sb 13.22326638396422 16.759223448369447 16.482226922727264
Sb 16.5465185309144 15.2410628254891 13.952415665602336
Sb 15.175948724137019 15.077168862867591 17.742549042134556
Sb 16.605127698002498 12.36813486959485 13.928396226182848
Sb 16.133787921833303 13.815757776240579 11.477492728658156
Sb 12.815529660176166 16.37316529001971 12.536970764271427
Sb 11.610064365891986 14.465483414678296 15.60915067345356
Sb 12.883377004617063 13.286151410183127 17.903166308757516
Sb 13.470666852872982 13.750323766015255 13.503640654393825
Sb 10.1217118950531 16.144200640539157 11.599094545584814
Sb 13.967256327894708 16.333679864691582 9.929283925154568
Sb 11.290368851830765 17.262197699990868 9.14629164850762
Sb 13.391510122693168 9.968148569747843 15.822337408099255
Sb 10.770693619209089 11.173936589557124 16.065592525578683
Sb 11.97879614900517 8.457672620315494 13.789647651472167
Sb 12.248546814643912 14.635262855301752 8.387893604295046
Sb 12.073538223731793 11.945298717194593 11.72002667460159
Sb 10.299481747159465 13.626736004472109 10.231150367984561
Sb 10.078598177483435 10.590886263490546 13.290052333357423
Sb 11.168387961531398 8.332666266488857 16.5647192036818
