24
Energy = -91.53667253 eV
Sb 16.48679449958936 14.341881091312642 11.824762691000725
Sb 13.850837096306364 14.784681062170492 11.058383856352384
Sb 15.05922852141221 12.000282817073536 11.11513230214001
Sb 9.968088655676159 14.446467290224303 10.4837407445781
Sb 10.136329851539278 13.768041803336459 7.679480704734991
Sb 10.334685030245621 13.102313137629091 15.285777859111093
Sb 13.109269323256799 12.261251050847822 8.784607332159622
Sb 15.356458556547867 8.441428309356803 8.66625477978161
Sb 8.280703116493184 14.450753347680125 14.015168372040653
Sb 12.92007238686135 12.80838245525936 12.902345358648565
Sb 15.720655825809882 8.694487049102513 11.531378205440424
Sb 13.237889109732816 7.369847773284156 12.12231046281745
Sb 11.09370799806665 11.772368677724062 10.79745561026455
Sb 7.529798779994105 13.97911772255925 8.94277640284796
Sb 7.6211372456344835 12.575974271753447 16.089813743136798
Sb 7.9826649678099635 11.85160482826533 12.348496094047412
Sb 8.369317174038411 11.456085598764433 7.853166171508742
Sb 15.156291863234788 6.10976671523357 10.386591089270377
Sb 9.909761810773736 10.224695235322828 13.810955724544579
Sb 12.766131501469085 9.45539410657745 8.045493581891481
Sb 7.439348243237934 9.958975095538488 10.178638627697255
Sb 11.427510010255517 7.7594596087596015 9.946979321247337
Sb 7.120355445687935 10.12521053210964 14.480311334949551
Sb 9.126859719299533 8.264701585227613 11.64810371097287
