29
Energy = -111.89857879 eV
Sb 22.59638576337613 17.67211407919849 15.212024012385903
Sb 20.03789005620164 19.018548274290666 15.168723106698698
Sb 20.769878544606026 17.30758278960599 12.98091281245683
Sb 21.398642794889593 15.380741125597739 16.621368799389483
Sb 20.587271226801857 14.634935380602577 13.98564472351064
Sb 19.283963625528003 17.222932101613328 17.267274237014647
Sb 16.355951865554122 17.778648676662478 12.431419400882998
Sb 12.518928258771856 19.164224805809067 10.796569248010282
Sb 14.749401727371236 17.34531721646788 10.073221518927385
Sb 16.884459110074655 16.353892738225394 15.935268273488338
Sb 13.149731619226777 19.079975625605396 13.60016559727715
Sb 17.79263159445211 14.11071615992704 14.355184481540789
Sb 17.325446251423344 15.170838360946359 11.669859397398064
Sb 13.5535497436329 14.961814676707219 18.360204303381877
Sb 16.2110368554213 14.540648231037288 18.0667422191565
Sb 14.53599830841162 15.567901122594606 12.343282778786982
Sb 11.342386204010054 17.132592844450937 12.485554119011656
Sb 13.221499163110982 16.597282061382625 16.034384434210146
Sb 10.327334963486367 19.24604433200486 14.166226517223887
Sb 10.731451667034568 17.94806338110045 16.787088153898846
Sb 13.843824855258415 11.13106617918421 14.764096027373938
Sb 11.565223577824018 14.499702071547343 14.865619584761678
Sb 14.7978139749588 9.098844375564 16.552499522126098
Sb 12.034468041717725 12.246373398643955 16.67714307049139
Sb 9.34051712678143 15.499028895456519 16.353493029761268
Sb 11.066756237846818 10.554800563210248 14.52701446810951
Sb 12.614783240172779 8.533999071446384 18.33032690135404
Sb 13.169646032189862 6.775872627627057 16.123694027105174
Sb 10.710284401868785 8.25577261412865 16.201824954803158
