25
Energy = -96.5859706 eV
Sb 15.91241023312058 10.529100889989559 13.142494584128036
Sb 13.478840058928467 12.310265917438588 15.487074942247673
Sb 15.697884925134366 13.395058466672495 12.501576038653516
Sb 16.395664443826163 10.106464302851206 10.307584130233815
Sb 13.475567994974437 14.595292441175364 13.735496510065088
Sb 13.061287406904238 10.286831477109805 13.558390309350619
Sb 13.793177844790716 15.077935828411897 9.688876549787379
Sb 12.362156912511876 8.82878986502199 16.058875827069013
Sb 11.08294950306642 11.28512099127649 16.706360504447556
Sb 14.639582253614432 12.236014678791747 9.394866117468613
Sb 11.760975277516566 14.06104056651618 11.351725053212808
Sb 14.124524526215554 10.685532092678002 6.9236102569052935
Sb 9.715476876423677 7.874465160063101 15.197701600598709
Sb 14.001476160479845 8.921289394664727 9.207572072514413
Sb 12.15995333056649 11.099462867174491 10.371149779582039
Sb 9.80337085612559 8.974735860477102 12.531803493446018
Sb 11.909896222517082 14.566809057873266 7.507896591536187
Sb 8.729726696497874 10.547544363609797 14.655477045779921
Sb 10.042412071238388 15.547606688120668 9.458733156278145
Sb 8.679896154973656 11.365760416924696 9.8838946074474
Sb 11.425201936535721 11.686879860531334 7.592288304661413
Sb 7.9337325487400845 13.045148404405088 12.079841328119688
Sb 6.945728056995708 8.8515282589044 12.981655287603504
Sb 7.59736001139597 13.984145820977488 9.366390188664653
Sb 6.126141726196531 10.992570357630111 11.164059749488445
