29
Energy = -113.46739508 eV
Sb 17.099631396594773 9.837376918433156 10.428230035090449
Sb 16.965065428953242 11.660976790916617 12.722124507289863
Sb 15.166651858767224 10.221565809771155 14.405912886490109
Sb 15.142792927383066 7.840146447337381 11.120061043176467
Sb 13.635798807100816 12.293797856229805 15.629091609656497
Sb 15.208782906853214 10.958817639412024 8.5279210330321
Sb 15.25461687382112 13.588870453667019 11.489956712611125
Sb 14.286341495203748 8.212163650293057 8.381232440330827
Sb 13.757112555802536 14.547345028021189 13.740839831326477
Sb 13.266557754628717 9.694709662893993 12.299512609542298
Sb 13.200429931805276 11.914895157724866 10.365744726728035
Sb 11.210739017908475 11.379162848373175 14.268658712278006
Sb 11.575820013820575 9.065744654342147 9.107765795155654
Sb 11.333175455700422 7.527553591778172 11.895661150754988
Sb 8.921828458490895 8.843501567853268 12.254898214464001
Sb 11.244944558661055 13.974450747073755 12.30525333737101
Sb 9.164048658785717 9.399766192127887 15.022180107163107
Sb 10.60648153808065 10.450278711373741 6.566923806567333
Sb 9.585735779141004 11.484657552131369 10.602135925171002
Sb 9.543556612537754 7.926296771450246 7.46904425504241
Sb 11.205116327393528 15.812276164665413 10.040162015217371
Sb 9.406872430600806 13.117588341261147 15.759122433069603
Sb 9.715015934281663 13.838178917958492 8.580579976232324
Sb 7.055630912671572 12.173644264858098 11.880741945859118
Sb 9.547158983049654 15.453668111159722 14.067259512726586
Sb 8.245859698792444 10.430659601240468 8.158477858676354
Sb 7.225092318944182 11.554031815481796 14.702231025950889
Sb 7.230280681283708 14.973363394368146 12.430772120461922
Sb 8.336867699829416 15.962518354689957 9.915511389451007
