25
Energy = -96.99246309 eV
Sb 13.454448936582121 8.840492277344373 7.595241271036171
Sb 16.04493287788804 10.745193492732746 10.91240491455196
Sb 14.711745397789233 11.31174051764635 8.404789176260536
Sb 13.328276488914193 7.249358376924775 9.85887573288784
Sb 14.743106777253189 8.440008584949934 12.047898739844701
Sb 14.559907778830059 12.32790329231988 12.917734044297033
Sb 10.154705648028774 9.37714589867635 7.406847349802827
Sb 10.571165168532115 8.557708458383013 10.161773372743218
Sb 12.527074516757052 10.244475131670164 12.66819919178813
Sb 13.683616264354946 14.290310135724816 10.949129909867828
Sb 12.291801099911634 12.157314249576737 9.660060530074846
Sb 12.129308120914354 13.237612760832041 15.326588507268797
Sb 11.274162515619384 15.499546263726854 12.032317490790167
Sb 12.059660334266018 10.39466383906163 15.572184468692251
Sb 11.324218336860206 13.904763055658949 7.61568338947269
Sb 8.297658565684257 6.7606203235478795 10.312435321695546
Sb 10.489398619983616 12.86146436735291 12.86013750811303
Sb 9.054765887962443 12.071525673122334 7.578826344971512
Sb 9.6724141217393 15.283181193658901 9.57277894436804
Sb 7.930211548736666 9.441981742043506 11.309503858390855
Sb 7.371529027361728 8.866235911839132 8.603104432514982
Sb 9.161644880834604 10.489126684339883 15.989700565048794
Sb 8.108386759545958 12.727917377313998 14.488030829410592
Sb 8.450092218281602 12.765698219662527 10.30227059070998
Sb 9.641301034404346 13.189545098925828 16.88901644243367
