23
Energy = -89.48036722 eV
Sb 21.733369132757353 18.61140505913196 17.150083845433784
Sb 21.122549277401763 16.84603335646401 19.325678659385893
Sb 23.571421851998757 15.477384837699013 18.412128797103378
Sb 19.097789084329996 16.320439373147178 14.258950292236339
Sb 19.900284493497658 14.53453472751085 18.154229427882544
Sb 17.425512390082 18.089092024494917 17.45645779362271
Sb 23.292756050325774 16.648818671478548 15.779487449261008
Sb 22.079640439541162 14.111845878764399 16.338271713811416
Sb 17.617212840206427 15.358971472650198 16.53952703458331
Sb 15.552647601707239 18.785984352895643 15.37649935263877
Sb 19.38569304373667 18.928563430015725 15.487927191340656
Sb 16.715020525804164 17.447256842742807 13.083115636300068
Sb 11.9093917672004 17.218998969684478 13.892582468380182
Sb 7.644442893265782 14.577952165887563 17.90974321313629
Sb 13.288311875142446 17.317172472286995 16.367541763421915
Sb 15.675593489020276 14.8445391038146 12.411819287059721
Sb 12.807638715130247 14.945261571505053 12.383970008312799
Sb 8.742505539795415 16.96052433309959 16.827166443752322
Sb 13.96211510639159 14.586691636105746 16.7962541842251
Sb 14.170522990704008 13.2605773932078 14.290255862701935
Sb 9.901504768765772 15.337179514674348 14.698741836087953
Sb 10.185866678687306 15.455834582253459 18.81529367843175
Sb 11.20685090368714 13.692361401818506 16.729761457453613
