28
Energy = -109.07058003 eV
Sb 17.54244499478393 10.280784673737747 12.992260338120838
Sb 17.296389849412144 11.39540809974903 10.287525934162977
Sb 17.108115151310866 12.92386913253753 13.975800753156072
Sb 16.58220407513214 12.077015647482835 16.655032122761195
Sb 15.564296266301845 13.78266385463379 10.40235180896324
Sb 15.063143683613035 8.943528902307163 13.626423511831796
Sb 14.490631556865829 10.125150872003987 16.19998823441724
Sb 15.356112966567657 9.392083043100934 9.756419686559136
Sb 14.657887969869563 14.233488886139067 17.193903745833897
Sb 14.42988847698842 13.249415089741161 12.991881594443756
Sb 13.035233619747643 12.916981933292837 9.36346107936088
Sb 13.641105705481769 10.641269560373027 11.675927689644658
Sb 15.131719668194217 15.898814336208437 14.800133521911196
Sb 13.887149908067371 10.791328344691118 7.704819935348469
Sb 13.337126724431329 17.990049879708526 15.779185656564769
Sb 13.237970276870353 17.324527876657786 13.003013571002661
Sb 11.380199144221931 8.818302715052527 11.110767032732511
Sb 11.441896284161013 9.321138924308384 8.285678353802535
Sb 12.580895659430972 12.275408210780961 16.778313696635333
Sb 11.561435675661622 14.133205528708256 14.813058681997305
Sb 11.342051619884552 16.17337318994849 16.85891333017719
Sb 10.726332295497803 12.689406287399146 11.816752645920833
Sb 9.575273315185573 10.734373396748877 9.985032676070558
Sb 10.397746877964684 17.203314316199005 12.654222125277963
Sb 9.478818798070648 15.106318454921746 10.89494057039985
Sb 9.060157387933533 16.805468715323933 15.190754688752497
Sb 8.696057393537565 13.95436334771626 15.257569110372534
Sb 7.940501841270211 13.325876743325693 12.5657378644574
