28
Energy = -109.46703652 eV
Sb 8.32759608524054 15.198523491882368 11.44010838745489
Sb 7.664908601676396 13.030808592467855 14.876465576666982
Sb 7.274539379179786 12.554347424628773 12.039841949484842
Sb 10.023723472664479 15.535303991594203 9.060683087216995
Sb 12.917080193332627 16.133666840402995 12.807173863523772
Sb 11.059587056943842 14.402102916752122 11.46460885489536
Sb 8.401171294349714 10.443148264171663 15.890326660793184
Sb 9.515953090386896 10.850086848220432 11.442707233653438
Sb 8.595067900549697 8.952846694330667 13.43222316035985
Sb 7.5613425960928 9.342654933139231 9.845467826900682
Sb 10.833569327410213 13.485350090353126 7.12362812796384
Sb 10.336166147359565 12.569600231554755 15.887367848489333
Sb 10.997194646632714 10.854966032162187 8.358261885363955
Sb 9.048080523263762 6.90725019199451 9.462204697925475
Sb 9.04300950685644 8.943388508023602 7.3924800397239245
Sb 13.476113931582109 12.360700656436268 10.46521532888703
Sb 13.335887536048121 10.669190025704205 6.672288063439985
Sb 12.735058501061824 8.960924778465797 10.607252760281593
Sb 13.850309462533898 13.914899197549248 14.431382811113409
Sb 11.883065060554458 11.923034163360551 13.544112780850371
Sb 13.692567821814997 13.345633430058298 7.732350967432893
Sb 11.389396782892481 6.5036673213083995 11.135204952141468
Sb 15.026068546693537 14.416200319808368 11.834858054841302
Sb 11.06065325540784 7.562837665241421 13.895847506397477
Sb 14.78303503714666 8.933216034140235 8.53143147544605
Sb 15.903468718940008 10.769364218319096 10.472185831261024
Sb 13.153618906116243 9.532240926495575 14.579238078431713
Sb 14.927450405175414 8.719729999340307 12.390765976967181
