26
Energy = -100.47413671 eV
Sb 17.18292916351164 10.105406448964507 14.411624388785073
Sb 14.799730024617448 17.17152100209483 16.64990756047567
Sb 15.51008092490385 12.5742546925593 13.41964925673159
Sb 17.5597036406822 9.409409939109047 11.657446910012624
Sb 17.817988731536065 14.093449447938466 12.534701397071585
Sb 17.263838158955345 16.828869264611292 13.19528563812956
Sb 13.78275751556925 18.127064435331874 19.152286292362056
Sb 13.17109942060802 15.465417178567916 18.27358520936582
Sb 15.692930390601262 8.045446253543572 13.334631754065821
Sb 17.85256453910808 17.244625791065612 10.387876653195004
Sb 11.678886347705202 12.529512380816133 16.070914058058015
Sb 12.008107372139726 17.702039528794614 16.934324657381843
Sb 15.446371007412457 11.321369212498364 10.866278439024583
Sb 17.10460761854734 14.421770777520853 9.790879750940961
Sb 13.084693897203021 10.22345197968622 14.769335550129849
Sb 13.173727301793205 14.079938013043828 12.219800800539343
Sb 13.291310297393226 9.666754423159784 11.943550076273299
Sb 15.196358121574312 17.704964961795877 11.411573217159857
Sb 11.092698051389934 14.92050137374671 14.645433078433317
Sb 14.401523566426484 15.372887413828288 9.942813120005594
Sb 10.173485770559948 10.412660800817921 14.908237771205311
Sb 11.877103933597814 12.006004771591778 10.779271062275784
Sb 9.080485589880803 14.558274614734017 16.768011260287015
Sb 9.495312371392338 11.430392723729465 12.307241927755678
Sb 8.975601275922402 14.194750987680841 12.791761623699566
Sb 7.1602324252098555 13.888563966698719 14.970742414468678
