25
Energy = -96.40079838 eV
Sb 16.448700401027807 11.175437386631828 9.719919748184633
Sb 12.944845417622034 8.806303234773706 8.161835238968296
Sb 12.924641487591565 11.327586742826266 6.73944791149183
Sb 14.524001382411939 12.908694704520864 8.475799754693293
Sb 15.214755970725118 9.674630030183932 11.852356724322672
Sb 15.91420069849892 12.338573757944252 12.333799453816638
Sb 12.456202074043313 9.932014868654754 10.757545369696652
Sb 10.219737777443738 8.048522189861922 8.58746002339011
Sb 11.183028445187862 7.357329249788434 11.078829312044634
Sb 10.369531894411265 12.483471482596014 7.455467653426773
Sb 9.762305999437139 11.219615396635762 9.990448375739192
Sb 13.212912617544706 13.23473691811769 11.248571322148731
Sb 10.555002663758104 13.926896797987258 9.931061682707096
Sb 8.320290196011273 7.3055707706505935 12.813807939153675
Sb 6.2770915455036915 8.674957278506612 11.365178453827081
Sb 13.961306313367897 12.90378676612885 15.315885618148242
Sb 11.633413491990355 12.528424735591237 13.734799154845996
Sb 7.971480796564634 10.13323760720962 13.140190721882991
Sb 15.081097744065643 15.360526314499175 14.281192617834597
Sb 13.286534706501097 16.03623504387315 12.181605052314344
Sb 5.978439255231246 8.355271288313492 14.196468877865131
Sb 10.797790120084178 15.245954474168888 13.377548097573829
Sb 12.741696732467327 14.46251931408488 17.471795773882302
Sb 13.82153255872745 16.923407044222973 16.388557824374264
Sb 11.05380798966424 16.2906448821104 16.054775577549876
