28
Energy = -109.53764152 eV
Sb 13.690875027983397 15.393145233304642 11.519933605849593
Sb 11.403732494391345 15.005719125217766 9.747606412769718
Sb 15.532931013490618 11.617399963626129 9.772587765317947
Sb 11.656176802268941 16.21797699994086 13.50872450533011
Sb 13.514920714866493 11.957360951290639 7.710027550574426
Sb 13.215461404144705 12.270459815525404 16.114700144361656
Sb 13.664474835782334 12.463882583114833 11.814385171806654
Sb 9.391932431946945 15.520693483977885 11.773413204861118
Sb 11.275357769843737 12.085066866330333 9.524596511556151
Sb 15.149809424400814 11.411465842045589 14.077436467158776
Sb 15.287635817635831 8.922600142505747 10.842504786645677
Sb 11.542695709080464 13.428499262197692 14.067025709084199
Sb 9.38024353417995 13.020540766187112 7.503530600390597
Sb 13.170204175615694 9.233115474049121 6.8290100580607485
Sb 9.170121653828097 12.857569222559992 15.491950357549547
Sb 7.099884830688578 11.784134074251053 8.832555618224275
Sb 13.365959708055321 7.549390591912821 9.179459012906285
Sb 10.920565584935757 10.481982957545009 15.921730024853245
Sb 13.92048045329274 8.865978586870622 13.422537668194876
Sb 8.368324160556803 10.49709597790777 6.578764086203761
Sb 11.270164626165181 10.038021535021663 13.07586269372987
Sb 10.873847116629658 8.816154070364883 9.9428293159302
Sb 8.651201827945783 11.082625844795848 11.223289526241391
Sb 10.352896390151296 8.465701597553016 7.16547908524139
Sb 7.802328345626009 13.264293204039902 12.943274583664193
Sb 9.577519964153627 7.721755010209737 13.667984806865295
Sb 9.002623895431356 6.824067894385219 10.996853118173139
Sb 7.250735101119305 8.706407737479006 12.255052422665948
