25
Energy = -96.81467284 eV
Sb 19.281068598873585 13.490167793255717 15.49962845297039
Sb 18.608177388661453 12.163692448882392 13.077139334112601
Sb 17.63201403279676 9.168660995268118 15.718495607899987
Sb 18.84544551127474 16.32886624514673 13.211204865561555
Sb 19.18994627690827 11.112130454637217 17.153550345591658
Sb 16.77311456390697 14.537684416993514 16.340685904451014
Sb 16.224722734029516 10.798409080952863 13.786370297273653
Sb 17.33932775771976 14.390073166297768 11.780651935808455
Sb 12.509772244834378 10.575207922297466 11.033888041658349
Sb 16.438077355323514 10.725209919422094 17.880662867686336
Sb 16.113634059399825 15.93133779967568 13.918249320764122
Sb 15.039415681114509 12.334326555436332 15.92222497496721
Sb 11.911919356655124 16.958607412528085 11.720854743658439
Sb 12.646040444506145 13.413111155731105 10.306767373585027
Sb 12.131091489589513 14.4424165759566 13.039659725340456
Sb 11.906914213095892 16.263427367055712 15.62497902414168
Sb 9.86886969730054 10.18319236275232 9.96799116680826
Sb 10.84544039631417 18.396435625442827 13.97638617716245
Sb 10.158942211401218 10.455694057848085 12.698596774415943
Sb 9.651301004139258 16.407701815719182 10.044474326526576
Sb 9.854982762273053 13.369855534747394 10.102233537647775
Sb 9.383260214003611 13.49536140473577 13.084685665543441
Sb 9.404063656418032 15.062332249674489 15.885148065004456
Sb 8.217877339776821 17.234730857782054 14.38523327448255
Sb 7.748493088810449 15.70824178129979 11.991731834543675
