26
Energy = -102.02975203 eV
Sb 16.587352694760902 12.528993277449295 10.520772932363442
Sb 14.88181416429256 8.81957915148465 10.052125364161098
Sb 16.49043367446125 10.098030232002792 12.072478449993483
Sb 16.599432645039524 14.292051359002997 12.88509875996037
Sb 14.337834240879495 12.38979782595484 8.636676076834378
Sb 13.100381992487034 7.114480710579231 11.584007398209945
Sb 12.661900350582938 10.684953773874305 10.276500015441124
Sb 15.318151441950711 12.958232942804942 15.064502629692512
Sb 13.594816233265831 14.980238776091955 9.679731451423638
Sb 11.499787289948959 8.1352028446691 9.390095323728023
Sb 14.048769249717207 11.184540891465025 13.06837182329705
Sb 14.049453518174525 15.236618813359444 13.843640348246
Sb 13.09828968824656 8.623949515488714 14.076112562719082
Sb 11.248861699122735 15.392595519192401 8.083440605952314
Sb 8.884769104953577 7.583263205522235 13.041606961494391
Sb 12.23115251101894 13.952945190809649 11.967895127340377
Sb 10.36314574724042 9.312927870141039 14.744969244493277
Sb 8.834837087718297 8.665590005803693 10.41690879851612
Sb 10.331249543252229 17.622599690879184 9.658360210711614
Sb 10.270558267389204 16.067994268951498 12.104616485653729
Sb 8.913644537585803 11.45970377219309 10.927151134020782
Sb 8.902057981115505 15.135886447704147 9.751153436541573
Sb 6.385578099404856 8.868093363301135 13.653097958520814
Sb 9.767201536025388 11.867351028284386 13.655003572566669
Sb 6.172423920036889 11.115927153008327 11.859125740661149
Sb 7.031649525227468 11.513999113880224 14.592104331356028
