22
Energy = -86.24252357 eV
Sb 9.357828060300626 15.987859886275182 13.812541096769078
Sb 6.878450354052547 14.572609394320613 14.197514053966216
Sb 9.118889368427388 14.124723640871977 15.949411385907311
Sb 7.657732918531631 13.765938497717835 10.087924751693611
Sb 9.368597890502093 12.921304384989943 6.7048779643224306
Sb 7.106376125591637 11.72027208902617 8.122974305184247
Sb 10.296686221253598 13.265672360260668 13.419622980031354
Sb 7.72027223446033 12.279652271080284 12.544183947854304
Sb 10.205301099879682 10.074546073342397 11.182268675864101
Sb 8.753813496482316 9.413645463896177 8.80136881546873
Sb 10.38385998578908 14.100524435275789 9.191713285713098
Sb 12.841216053491676 9.593276483960478 14.17755656500884
Sb 12.066537529479866 12.0714966385585 10.368737287126693
Sb 10.514315168779257 10.268805084887095 6.662923251017345
Sb 14.673388212517043 11.144841948148093 12.624508446710815
Sb 15.690789878339263 9.1176922563259 14.48110260173397
Sb 11.535451058700056 7.637605055788985 10.375052345799832
Sb 12.97757173717509 11.06480381786048 7.846830852118994
Sb 12.829484630202943 7.040562431433863 12.89448263651873
Sb 15.760612006720937 9.397469224765992 10.612894937546967
Sb 13.769714639115 8.478896329839165 8.769454858467402
Sb 15.651472522656757 7.116163423822754 12.330416147624916
