21
Energy = -80.27155961 eV
Sb 10.739287083049579 14.258644996025248 6.871816082560299
Sb 12.921898173351922 13.35574884699636 8.430304421419864
Sb 13.335865221411177 16.035553222178716 9.496726897862757
Sb 13.71715701536267 9.302832285920486 9.722189809132248
Sb 11.242859122859723 10.064736096457327 10.898397243315022
Sb 12.504360026683218 7.671110335284262 11.720356906097702
Sb 10.203187005965118 13.342361136363486 9.491672185236489
Sb 13.81847980127183 11.098146922390555 12.046967238739644
Sb 10.70473138601455 15.928406606910462 10.744056778488053
Sb 12.963465050740345 14.748136813846102 12.049553359647984
Sb 9.652387744723725 14.448349794618226 14.533996413106527
Sb 13.707983769985963 16.510811444260217 14.173036535031583
Sb 11.184878521668912 16.598084674046113 15.611240487413564
Sb 14.829449167421759 14.137198576719186 15.525083780072697
Sb 14.13887195074066 8.961750992741536 13.966947304556543
Sb 16.058888861720657 12.935012032356038 13.23723857285499
Sb 16.543846826733194 10.66145846393378 14.862277251127592
Sb 10.848265052982116 14.16254803166343 17.143274427392114
Sb 12.151931784856586 12.883000160109534 14.929640437825945
Sb 14.814430830985364 11.276894419852432 17.071380590730215
Sb 12.450847110685157 10.152285656540274 16.0069147866017
