22
Energy = -85.44004506 eV
Sb 13.587052260045068 11.773495138504847 11.319184588298588
Sb 19.545968734960734 12.426754268317904 13.048283279064448
Sb 16.73704335856761 12.344320774295666 11.70093691159218
Sb 13.080215562914907 15.341812808566178 11.748535044759246
Sb 15.533245561119886 9.763950714033493 10.793027627825227
Sb 13.86443185420715 9.6678271557938 13.154779971010628
Sb 15.284825270108055 18.442983417366065 13.168153610831206
Sb 12.492587875549368 18.069535684084517 12.48123723268306
Sb 15.768388847209646 15.587283994587281 12.742178685199685
Sb 19.239050203847512 12.618822741639889 15.916469684067694
Sb 11.201386281018276 13.74916042525846 13.2723821473613
Sb 19.095654404770404 10.090777253416649 14.534439749062095
Sb 16.28771727001567 10.984347181896812 14.16212333869469
Sb 13.247840852202799 18.437224336472994 15.217967984884561
Sb 16.383921052114584 12.740671419153466 16.46862221073631
Sb 9.160003014281621 15.739468350366359 12.947741436128076
Sb 7.550821573209172 15.35695009741426 15.301741840751635
Sb 16.183776547465264 15.464181404750025 15.56254357271928
Sb 11.864363209077148 13.885438679117982 16.0316334528414
Sb 9.346814223132107 17.60306186804883 15.123115218285333
Sb 13.647652762579783 16.02903588906067 16.722444333288347
Sb 9.787542943802904 15.550224649169833 17.0923881517159
