21
Energy = -79.03212833 eV
Sb 13.629412939357163 9.983281318487423 8.190789978548665
Sb 15.993560181226597 9.979570476255871 9.50748732832152
Sb 11.396438618827204 12.673981839581907 8.8377749839467
Sb 8.844345564906316 14.098952425904168 9.379625682434847
Sb 15.293460402922918 12.755716140415258 11.055969777178339
Sb 11.533902176326757 10.074260217892641 10.117320916296654
Sb 7.706350242729631 12.902389917993482 11.65929033279419
Sb 15.87056147866653 10.26867802720688 12.412140282614116
Sb 15.835424675254178 14.753402026353784 13.279127058698446
Sb 10.686517444909256 15.656834737702964 11.108110116668934
Sb 9.361020121861802 16.727278851283746 13.483752507576003
Sb 13.53194279438364 8.998699411025743 13.623180898106513
Sb 11.942821584711664 17.576232271635806 14.353486525537113
Sb 12.407258674554422 12.414640824306142 11.527358114766466
Sb 15.276485176813766 12.299761700557594 14.754378821212327
Sb 12.976795383543 15.188249645306946 13.427729132680003
Sb 14.733630747671693 11.803010730860574 17.53126178157278
Sb 9.911170805866533 13.834153129312426 13.231214864383984
Sb 12.68402612820192 13.000605430222338 15.791593854397108
Sb 13.638492041685167 9.27351119271147 16.507576407314183
Sb 11.476321738341088 10.466728607744106 14.950769557712942
