24
Energy = -92.85645055 eV
Sb 15.346772719439814 16.763219241820128 7.827596519715613
Sb 14.28707888361386 14.271280215418036 8.828515723112893
Sb 13.038314629859777 18.402259819768013 7.90159136481521
Sb 15.86731058423859 15.917320150305683 10.541120853257347
Sb 11.597036300880932 14.899762434941747 9.555658850539826
Sb 18.045975241315368 9.971900071463876 13.29065305151113
Sb 11.771577342953597 17.64682081934227 10.322353096525436
Sb 14.073092731315972 17.609226264793346 11.983463542799896
Sb 13.604902428764808 10.199315168869125 13.053352297361233
Sb 15.667044678076582 9.014154151262474 14.64212853927025
Sb 14.502738831892032 12.814375536240677 12.378808896129465
Sb 19.217754494620163 10.425940492286859 15.886767368414567
Sb 11.736282483177401 13.71564328251292 12.225508805386788
Sb 16.45777880631937 11.093367188063638 16.526692534237426
Sb 12.51785037169154 15.995879658970754 13.820784967485519
Sb 14.693591491969817 14.343541403543696 14.838389441124905
Sb 17.929176581325613 12.588323130827698 14.528235353505636
Sb 9.508960142271652 11.310785560997513 14.433467114660226
Sb 12.022077479196478 10.567550467422542 15.535687376520807
Sb 9.065981795603527 14.0907050266582 15.108517665766456
Sb 13.190913281092051 12.842682111798958 16.81530600025559
Sb 9.364395998838688 10.52499733222628 17.204089004360014
Sb 11.061166360006274 14.73870433500021 17.026482477616685
Sb 8.7653548533872 13.250091155632486 17.904812965753255
