20
Energy = -78.90962719 eV
Sb 11.097489472416388 7.073540686315529 14.06920985346896
Sb 12.966604186598481 7.21484980643998 11.860534157127443
Sb 11.435346665731844 9.93296390681274 14.505188044150485
Sb 13.287776202644162 10.08461689732498 12.31743428943751
Sb 13.741295658948482 6.023602726818141 14.337212415053687
Sb 13.164583876373381 9.732154658400177 16.76710967783613
Sb 11.016481720528446 14.42627282702955 11.66916962416267
Sb 15.81840848773844 9.925487727052609 13.639162358003349
Sb 15.227848444139456 8.055072883767842 15.719994328177808
Sb 9.550542233996925 15.921160029259473 9.698278168531585
Sb 13.284422801935316 13.037605321994027 14.26992004842733
Sb 13.555453576621682 14.61652717605334 10.401633835779831
Sb 15.195903344808004 11.652939761244841 15.899168028821613
Sb 11.47564507455152 17.44036927375311 8.197353107978163
Sb 11.189077962160226 16.528886700735676 13.589242264238141
Sb 15.20775099723467 14.535125067983289 12.743223696470226
Sb 13.677125112660976 15.840045829924268 14.836164735181992
Sb 9.91315555549206 18.704844043783556 10.31180918345432
Sb 13.775720777533579 17.40768218269664 9.944536632350632
Sb 12.23178101753937 18.658665662263463 12.036068721002444
