24
Energy = -92.54398375 eV
Sb 21.36375753727847 16.12946785311577 13.565665782896447
Sb 19.782906323120134 14.513879702468564 11.799857784144372
Sb 19.759924832104918 18.334323287564157 14.425158952069035
Sb 17.104019053247615 18.001020964518137 13.400213427731138
Sb 17.177441160807135 15.735075237326052 11.629356620882275
Sb 13.891115908165709 15.293211422754768 10.303883368761529
Sb 20.183336306938042 16.025372817303953 16.166284228473373
Sb 10.986065666966821 14.939968020729923 10.43579817089305
Sb 17.58440003097843 13.453919726330449 13.320368998211185
Sb 12.324906868316532 16.737520028975208 12.182507230638498
Sb 16.429335081096983 17.03441201389578 16.002806004331898
Sb 14.303662883381323 12.649356594378789 11.439219999117888
Sb 17.75778832844806 14.49935377937333 15.991296226432167
Sb 11.851024823723192 15.305309635323612 14.635824388210324
Sb 13.556273482347898 17.044074598599796 16.183401162981063
Sb 12.977065975552172 12.748632765856799 13.994421274486383
Sb 11.4389088357026 12.280698106815787 11.612429402807793
Sb 14.098494902162031 16.244659323851437 18.914441722297727
Sb 14.377851839047914 13.394045090774432 19.14484642771443
Sb 12.022893520701562 13.352096118868042 17.487199000863942
Sb 10.7838227650853 10.333847324014068 14.978922392980778
Sb 8.649715891408306 11.5393378684325 16.091422622235193
Sb 11.959768256059531 14.676598484341572 20.032312736565242
Sb 10.783883587029523 10.76318811863449 17.84156626948431
