22
Energy = -84.37022711 eV
Sb 17.249248314046095 15.063220153572562 16.446403867245365
Sb 12.945758604606322 13.97066308845727 15.474683515400077
Sb 14.633418413727181 14.988207823495717 17.5832588826093
Sb 16.971032278158418 14.048742625080383 13.767967696780852
Sb 14.332988454552908 14.528724106946111 13.062471939558806
Sb 16.52530287835108 12.942126341689534 18.31100239249218
Sb 12.143064351416559 20.23739158916912 15.32271272117075
Sb 14.068344597879248 18.88657396949773 16.98268337317808
Sb 18.190476700785283 20.14043524664204 16.870574027241226
Sb 15.86247089602828 21.046295212631883 18.097450733973066
Sb 16.835156093559714 22.4351752126431 15.801102055558633
Sb 16.259239918305305 18.355352931489655 15.157658151305627
Sb 12.4826414480909 17.398964576612485 14.800438069582937
Sb 16.175251598196144 20.729853303514723 13.552874777783204
Sb 14.423824528371982 17.683479427467468 12.785368517471316
Sb 13.448806473926048 20.583538919302146 12.81523989093845
Sb 15.919164843583054 10.656749979452043 16.654548580891316
Sb 16.170556269971442 11.05037625234569 13.84625099729071
Sb 15.840642746674558 7.889420442758841 14.094356802639561
Sb 16.248910686784757 7.619534334098727 16.92848118743873
Sb 18.31727975849978 7.24453099977406 15.155792393292009
Sb 13.571485343467153 11.115709345181088 15.103744283718997
