29
Energy = -111.35811378 eV
Sb 24.788309729944945 17.343052141616436 13.820374301998138
Sb 25.97822846259671 14.973956634594368 14.921432949573552
Sb 22.544942168934593 18.02123552946038 15.492698067686913
Sb 24.167139549997266 14.781082867162343 12.69097669704563
Sb 23.46338680831844 13.62681284489318 15.22050702868383
Sb 19.131491842297358 20.272369840954653 15.557424539836543
Sb 21.65808509985099 15.49580368398352 16.44775969784862
Sb 20.661946231626935 16.50451527800944 13.960489333593634
Sb 18.229077834338025 17.58140905866835 15.176645474456652
Sb 17.739894023175765 19.57928909436746 13.17018862605845
Sb 16.31554658841633 20.92725951441999 15.282147828506488
Sb 16.070271631566253 20.46355005376315 20.465230918001176
Sb 14.956803615609097 18.720509223711876 16.604587481285645
Sb 15.113318763365161 19.304265365936985 22.889142417755316
Sb 13.230837627746608 20.09348223864479 20.490354235892305
Sb 19.8030675708115 11.430685862383053 18.51204006725839
Sb 20.788271248909034 9.229822330748418 17.801816204836904
Sb 13.006573577201255 20.622651581481264 17.520884762957326
Sb 14.969264189214899 17.823811642700935 20.436146274727918
Sb 12.922964770700483 18.387239322651318 14.555822505624578
Sb 13.274024275348674 15.537248873459497 14.513658641757901
Sb 10.944879989295563 18.793161444113483 16.65325929365464
Sb 13.594502736156967 15.21472912307616 17.327304729957532
Sb 11.24215755742065 16.48117111148183 18.340631145129144
Sb 10.558006008463765 14.795401058643424 14.161684700378283
Sb 12.667458132999498 12.480149917440965 17.384544260705294
Sb 11.128085239653908 12.083045268663243 14.986505062177622
Sb 9.253396845923783 15.290647481963061 16.69679468463368
Sb 9.808419958969571 12.58257573388124 17.54143966275244
