21
Energy = -81.72125337 eV
Sb 16.803801174094524 9.824712326518737 10.90709579721522
Sb 14.882664827936338 8.464456578577442 12.642365673944491
Sb 15.83649213013621 12.46457200889992 11.658098814917805
Sb 14.209231749668971 12.645046987764752 9.307136532387087
Sb 14.351458610209757 11.107946832479648 13.720273012857165
Sb 14.51891325385828 8.495796492983132 9.789156154764683
Sb 12.209324342094654 14.627981132714003 9.957580007016558
Sb 11.272866834913032 10.475186324902515 7.29281014442601
Sb 12.067318254823785 14.792425831455565 12.807096774269064
Sb 12.446570005752681 10.493905285638577 10.011139317568315
Sb 11.642080928695426 11.799673551574195 12.973803205148652
Sb 8.623671088976195 9.675727652183285 7.986038247501265
Sb 10.600539551483505 8.952797925984713 12.606806682663054
Sb 10.248443101490434 11.970209115773544 15.51877440285835
Sb 9.192454162272732 12.434265839481288 7.567641103526548
Sb 9.301042204289228 14.95917844639483 12.090446757151842
Sb 9.981213459929387 12.688561982560243 10.39533476077656
Sb 8.529841140226113 9.951347886163074 10.99890814913416
Sb 8.661268389967937 9.68184938209501 14.71744968435606
Sb 8.151782892451834 13.588488383785013 14.399869695119266
Sb 6.905124715193153 11.34197285053534 13.088277900862508
