28
Energy = -108.86005816 eV
Sb 14.472626087201755 17.305858879307866 13.77112764203706
Sb 10.371668384967721 16.95209138502539 14.503650508725382
Sb 13.534769842817104 17.99182174393604 11.17282081093692
Sb 16.715035664914694 15.630752951274493 13.169385236137462
Sb 13.76243930305102 15.20463837346903 17.04837670820879
Sb 12.658486456749598 15.165704493621362 14.364919159403243
Sb 10.843687126832103 18.495514877429986 12.061845765036564
Sb 16.450641823530308 14.845298874226984 15.99314643493129
Sb 8.649595314213999 15.213200690057134 12.905862385289876
Sb 16.33983187698499 14.777025517799283 10.365453787042485
Sb 13.899085235866616 15.789537860506643 9.284635772625682
Sb 12.835553062534876 12.5585592945143 17.73992621928269
Sb 11.054733410028048 14.53519150079561 11.438277661108586
Sb 9.35022222185364 16.610880868549792 10.445956672071674
Sb 10.432356335861407 12.358653905133266 9.687113210115562
Sb 12.984026258329376 13.105949700531655 8.50988439535381
Sb 15.399290741734035 12.093207326401572 9.782508573332693
Sb 12.634492255930798 11.55516346795175 15.032495341875697
Sb 13.95461204340943 12.294714303875327 12.29777281494447
Sb 9.452277475923596 10.526273135837114 11.73505558902055
Sb 15.219058592333674 10.92560818056119 17.806962420290315
Sb 17.106606205023954 12.079333720538093 15.973189666168487
Sb 10.029713685750915 10.45335860832367 14.564698729854832
Sb 16.532655309417844 11.384947652039616 13.249711229427264
Sb 13.792977479817708 9.131586402013568 16.018284949286027
Sb 13.628375810481302 9.431693382550797 11.746241703738104
Sb 11.10632433967808 8.440941539698818 12.77262336247686
Sb 15.577366402602724 8.704466434314035 13.792563285488367
