26
Energy = -101.37922154 eV
Sb 5.980712410272467 11.507628936408688 14.434186220093384
Sb 8.546990021833894 10.760661821706032 15.660247066346429
Sb 9.077137477680697 13.491017285551518 14.875715102037402
Sb 12.443785310317944 6.978708192669338 13.282752664078302
Sb 8.448871575345006 8.904682007620371 13.480225394367817
Sb 13.81765671235118 12.998961832920308 13.906939178142368
Sb 14.099632710021316 8.70168833793062 14.896126738872235
Sb 7.357877634923374 13.368168493920368 12.608680257431821
Sb 6.886589969277308 10.633341559500693 11.836178506998413
Sb 12.22680461712199 10.877994832189287 14.60585577966542
Sb 11.013474468837503 9.343703306649418 12.205796190605689
Sb 11.580131813685492 14.823726266238967 14.089220596513222
Sb 15.077788995256133 7.755039801392707 12.358511291894194
Sb 10.029511800307537 7.9869111954401415 9.704466526290323
Sb 14.126443393959175 13.096419855137647 10.69641427648731
Sb 13.66592422634172 9.399366750153213 10.484976831437688
Sb 10.377419763086362 14.946814783841617 11.483545615488495
Sb 11.33607989399165 12.416740167575913 10.600316969516964
Sb 11.933704164222643 16.846097525607945 9.91607147770461
Sb 14.37060202902871 15.55821472544538 9.185259059638138
Sb 15.124179201200988 11.134014060333927 8.74717727639739
Sb 12.673915220771548 7.186849863673943 8.884867037658177
Sb 11.154678722530246 8.931154860003907 7.216665439424845
Sb 10.854557762675654 12.931571064451331 7.849390583568745
Sb 12.149023782909742 15.475132715507138 7.4001508898422745
Sb 12.919641636195195 11.218525072275556 6.863398343644317
