22
Energy = -85.49608147 eV
Sb 9.133750142371849 12.781461263615416 13.55235920630262
Sb 12.714656045494367 10.873167182250024 13.33540282457771
Sb 11.357331337788322 12.178581228674378 15.27593566119414
Sb 10.428863489002104 13.121833625019617 11.00460943786035
Sb 9.161492438855293 15.38513683543039 14.692323713958034
Sb 8.530467728807668 17.09935603383917 12.593503569047872
Sb 14.509921571942598 9.594159400164145 15.207389222293793
Sb 9.949428442758768 15.89717152511406 10.427901348150996
Sb 15.925175420220043 12.320473720167286 13.277298499800423
Sb 15.394644196478732 12.225713280931235 16.090102676598423
Sb 16.60729216241826 9.547259750861503 13.179220506903526
Sb 12.473178745767639 15.042524524854839 11.561227182148007
Sb 11.327702141216106 18.119709854278646 13.50917516485212
Sb 18.52198947742527 13.585790601867444 13.068273461935663
Sb 12.126763058063037 15.421380082523457 14.3865977016046
Sb 13.912587567098472 19.437284710305313 12.894886654814574
Sb 18.758977384736646 9.505954687077969 15.03342330415419
Sb 17.963257249366425 11.431362639532402 17.024222890831457
Sb 20.389200604407826 11.516553588195716 13.71902185267174
Sb 19.576032513289718 13.466032602429488 15.720417584874836
Sb 12.787964677574134 19.708865130161612 15.513141962799047
Sb 14.505302469092772 17.54859267114785 14.883700957524336
