24
Energy = -92.77679465 eV
Sb 10.081806342710792 13.20396427701096 12.92261045368124
Sb 11.4560944558799 7.657243318579663 13.811402257959815
Sb 11.208051976117593 7.508642117444104 9.214861900002692
Sb 13.754596602236202 6.336630987337744 10.004882146930221
Sb 5.299554008894967 8.477582488163609 11.850345801442993
Sb 8.989131364972136 10.873090704455343 14.266425315411444
Sb 9.04245218153324 15.123033719384605 9.169453920389511
Sb 11.417617388525432 10.924422627048171 7.686645946843529
Sb 4.699640920016455 8.394317220795687 9.027125663917634
Sb 12.115348610339359 13.59714180320226 6.868345432222151
Sb 13.937920976499203 8.01339410879681 12.378069750241853
Sb 9.213132243775739 12.356375347404402 10.04971192715246
Sb 9.313404661058685 14.181054431540908 6.396766804238546
Sb 14.73907609849663 8.64743193913707 8.56686289266349
Sb 12.516029853993238 8.313845012019627 6.768833407170585
Sb 9.691129000607416 9.129583780782463 12.041278409900748
Sb 12.5896658039469 11.922485150735161 12.668476835879764
Sb 12.648579677564253 9.808579768901286 10.475162798549231
Sb 11.61952023976739 13.991811656745204 9.732338697148059
Sb 6.13169219439336 10.62866850151156 10.084637761982172
Sb 7.623757001211446 8.452380927462388 8.886649050226886
Sb 7.799914493318701 7.050836607073799 11.419107711790547
Sb 8.690254162950788 11.433278877817065 7.097530061772053
Sb 11.761513900988042 10.314089026649942 14.952359692684231
