20
Energy = -77.45310749 eV
Sb 18.846333164581054 17.06085662923065 12.780945638085647
Sb 12.565158638867313 16.463635509993075 15.639599997068288
Sb 11.709305895905306 13.75554773665661 16.88165243053078
Sb 16.185206732055402 15.985993134988627 12.720216817008833
Sb 11.88835943998221 16.054079409526665 12.969325767525765
Sb 15.152321410745644 12.364907875434106 15.398681371857549
Sb 18.382102720140036 14.446854979753699 11.709440128421617
Sb 17.47587309260348 16.765452351627527 10.292071859769134
Sb 12.689957915105538 13.24788755315108 14.108244513278828
Sb 10.293690042908054 16.41554820068216 17.247032983135906
Sb 9.387635454243501 13.049347255338372 15.294834057578498
Sb 12.974590487944766 10.602414214769798 15.930503943168603
Sb 9.287771313878773 14.975075034892104 13.144972250442184
Sb 16.473881154028337 11.270824372385595 13.084693625906338
Sb 8.071547330393422 15.65500666311156 15.629031219642853
Sb 14.944864306473756 12.570514789890192 11.051083880306503
Sb 12.299223455779567 11.405631778718286 11.371762698623051
Sb 12.532615506044932 9.359900976732789 13.399563890178099
Sb 15.203340348143616 8.72690822084448 12.591714709161028
Sb 14.407896894906767 9.903983086787871 10.032012011796306
