24
Energy = -93.86147257 eV
Sb 12.612648700319912 12.790600906897671 9.494966495847112
Sb 14.511392291956968 11.147374712322335 11.189058450378722
Sb 13.768329260484219 8.442956851431804 10.537322466850627
Sb 16.32917472571811 10.944342557750312 8.928803589733736
Sb 8.305892110459899 13.666052805147478 14.700056002060471
Sb 9.290850860572778 14.492768214680375 10.186836328969443
Sb 11.534531594712194 15.769903719268582 11.46388020280679
Sb 10.032012451531317 9.479524524029063 14.197063442576702
Sb 11.919906597489454 10.161036661108076 8.764365494047615
Sb 14.31652194511068 10.029027005820144 7.061012734207061
Sb 14.078217643628378 11.245860861132826 15.345914346284406
Sb 10.272812696976963 18.368209865210524 10.935921314158204
Sb 13.38785950831829 7.211890347279094 13.15346367486075
Sb 16.06395210254469 8.064141842559238 12.665623891624328
Sb 8.442944323269606 12.483366314426819 12.069467743659493
Sb 16.266559597908582 10.71531695707203 13.545180089628419
Sb 12.547290219300903 8.804351111899301 15.387763242499148
Sb 9.226792221490259 11.370852961255581 16.211600301433762
Sb 9.859852335943401 17.0827804874056 13.45381570723001
Sb 10.990320445287095 11.231826452820581 12.168495589655318
Sb 12.571295420043981 13.067372819084486 13.684013375804838
Sb 10.90166274779728 13.677490569529462 15.91272472481022
Sb 7.901938140972234 16.787071932207 11.364247514182454
Sb 14.743076273338337 12.841713734838521 7.4542374918667536
