23
Energy = -88.26831038 eV
Sb 13.710182644386258 14.189660933273023 7.494247269981476
Sb 16.009441694674138 14.053292519483838 9.290783530151124
Sb 12.82918205981905 16.472567099875175 9.06503666977487
Sb 12.575527086412897 11.738781082194848 8.553952142730273
Sb 12.32554867185114 9.155035809980026 11.44176408261909
Sb 14.98117753243495 16.208156638527417 11.008830121640468
Sb 14.996076985233461 11.455151168989856 10.051293099789122
Sb 10.399256136772141 15.704729285347161 10.243956017408921
Sb 11.04194852708467 12.971784308035895 10.815332228242386
Sb 13.358390750812378 11.7953731145291 12.497761577517133
Sb 9.090205169325541 11.990190531366538 12.769014155048618
Sb 10.910183694557512 15.13730687686544 13.255151265546298
Sb 13.771828974970152 14.6963528790794 13.113761320573012
Sb 9.566320918420011 9.171000565005302 12.182442302727441
Sb 11.215834858116189 12.230993121284037 14.715966161578894
Sb 10.590274918226388 14.506595964320734 16.30498955846686
Sb 14.952210358985207 10.446964529440418 14.617340845017248
Sb 15.15646677575482 15.240498583512059 15.558892130704129
Sb 11.574518027574316 8.233389004050515 14.011957245768244
Sb 12.669522925200862 10.213669523212033 16.312306400139143
Sb 13.099914682186679 14.8053856670926 17.567041636648458
Sb 16.206441911741184 12.569485989192032 16.156943927614204
Sb 14.121609827992023 12.165699937873967 18.12330144284394
