23
Energy = -88.76657969 eV
Sb 10.18512836551968 12.480526102503744 16.580802050897308
Sb 9.823006634793279 9.62861545702064 16.375074826384107
Sb 13.72318798345053 17.89714284761555 12.569371620670431
Sb 9.694791034446297 11.311849755103411 14.01140352490296
Sb 14.130918610953358 10.907236506387243 14.847817100998167
Sb 12.523799527724279 15.869780114987593 14.241146157628704
Sb 15.872605865079551 13.844830369036497 11.90269152157885
Sb 13.619206338117209 12.352134338099932 20.34550678677528
Sb 11.79763113893931 9.351575548993543 14.280803247727885
Sb 12.99928024935959 12.233265491487547 17.166318952401657
Sb 14.841302919300075 14.720790122941425 9.372204429141927
Sb 13.681111833372357 12.03153008548238 12.231753873678311
Sb 15.610292995835819 14.280788595389451 19.67066057072166
Sb 13.920925542300811 14.963680153022464 17.368277796481273
Sb 12.934379897201307 15.113240516402788 20.112135781386055
Sb 11.961839509229879 14.697544182478905 9.70196519301794
Sb 11.508871388313187 13.875013453487185 12.425531932830657
Sb 15.36776555305416 15.908215977704995 13.830585267838158
Sb 19.943147406211924 15.525958808781485 11.678449864090826
Sb 13.415131132347975 17.16124498579543 9.806284942178156
Sb 19.195550165519514 18.18385044313407 10.928877652013608
Sb 19.770685762198127 17.57842798269544 13.66339690386996
Sb 21.88287158679178 17.63467926122173 11.733472288205752
