20
Energy = -78.83856498 eV
Sb 17.227881119145863 10.496396698097074 8.013273363205853
Sb 17.400783250581952 9.99830771854943 10.863087131234314
Sb 14.994048177681025 8.638060852533602 7.847381191194804
Sb 14.549060818828249 11.474723358114952 7.762965905005563
Sb 16.250618158913813 12.479781561887314 11.623564370377494
Sb 15.185999084263212 8.153792289376318 10.693321103951128
Sb 15.863529926063084 11.39547254158351 14.245564008419707
Sb 13.679789261913546 12.27296113772442 10.415061702473912
Sb 12.852498203051498 9.685566673869388 11.263633948006193
Sb 13.59284634919634 9.615534183980397 14.024432589139003
Sb 13.251944455070518 12.221536752610655 15.192935264094327
Sb 10.100181574785818 12.241966712604976 12.314716671496194
Sb 9.393402354628885 12.498344262057257 15.082949637464843
Sb 12.278495300502126 13.982619442554386 13.12980574895913
Sb 8.656132596170506 14.435073472015697 11.205863689952816
Sb 6.564294259256073 12.97516912165418 14.94095120370593
Sb 10.501040891547806 15.126044307316665 15.208412219135036
Sb 6.041458971109859 13.71004551295537 12.221411504064179
Sb 8.91455556121121 16.448567508438906 13.257100600514947
Sb 6.2980684492173165 15.746664655214026 14.290196910742987
