21
Energy = -81.48269253 eV
Sb 16.527246700439076 14.849677447426133 8.947924471188985
Sb 18.21149177009665 13.936295345869098 11.085229288441477
Sb 19.450105889709626 18.170756567963718 9.940017741182979
Sb 16.756919684600344 17.68629451891083 9.08149837962538
Sb 14.769545700836439 11.922224914790016 11.117863098651448
Sb 19.256442303539323 16.359831515839456 12.157103289213088
Sb 14.21422011028056 14.715587079683736 10.727833203674487
Sb 15.917608471932391 13.895040012282028 12.893632851890503
Sb 17.278378757792385 18.406507149568057 11.806709986321378
Sb 12.334804489268091 11.053276084445192 12.379156118122035
Sb 10.705854697060527 13.34411758720327 12.06222367950187
Sb 12.86061938574285 11.145903718011736 15.340077909348516
Sb 12.158571411883837 15.385355351385408 13.507493132085825
Sb 13.326364661745336 10.90266565845269 18.41461066047316
Sb 13.095372492256468 13.975168252232125 15.82384335678447
Sb 10.071878549057436 10.554874013061745 15.48507036658649
Sb 11.041560691618434 9.987639748805412 19.865252828502513
Sb 8.974399449325489 12.949817939803328 14.363420314758347
Sb 10.419681536509303 14.946890900633433 15.87085016221916
Sb 11.413662865401875 12.799484907153508 19.375714675687618
Sb 9.249982995003933 11.400719893581993 18.088611752688387
