22
Energy = -85.91660793 eV
Sb 16.970368763023384 11.250623711325346 8.351493707266492
Sb 14.14473407535185 10.645619202324408 8.273550178322655
Sb 10.072608711777475 15.266766145691916 9.213745427594633
Sb 17.481923993853034 11.500068468396963 11.133910289316287
Sb 12.926039892395861 14.9061415682323 9.56233661950525
Sb 12.976149523797542 12.14516336826654 10.391322518493146
Sb 8.772399132850664 12.74142034468222 9.645547632807386
Sb 17.37803872065158 8.87005376009776 9.977343667057973
Sb 14.520082167299343 8.337532860542613 9.9710200518629
Sb 10.132299242231626 10.960138376621403 11.667986805441338
Sb 14.943600302159696 11.975309025527277 12.460915953143619
Sb 14.361488585689305 9.168354425853764 12.717112457283394
Sb 11.53665987753644 8.499094578397296 12.575114669024405
Sb 11.363858535672936 16.32490769167321 11.536450077294768
Sb 11.653213560735002 12.321665150645456 13.711312089401707
Sb 7.66290571445635 10.225350567591308 13.044580447816827
Sb 6.8557589012735285 12.95269664312553 11.653624179068451
Sb 10.603817377073801 14.9477364368841 13.962265775271408
Sb 9.807374284270441 8.842720410164807 14.793394068985108
Sb 10.343385563975712 11.385520673960533 16.05880609154395
Sb 7.758815242688614 14.564407248249223 13.87269510663661
Sb 7.6222938496103145 12.056525360119695 15.313288205236196
