27
Energy = -104.1778073 eV
Sb 18.42224275535214 9.381031770940929 11.484112272642582
Sb 17.500154858472396 10.101135610390612 8.860118027057421
Sb 13.284577396610738 12.6125601228766 20.321235929433957
Sb 15.767753258800065 8.664707801743562 10.648704153640548
Sb 12.456457308327217 11.772371764848048 17.637719651540387
Sb 10.195343182314044 13.556213889287545 17.91104731629403
Sb 18.09426521020642 12.143724636524697 10.785872410661648
Sb 15.43682463574153 14.496902761151063 19.880123211188803
Sb 13.988728643143698 10.583363393327584 11.852437357748556
Sb 14.236133284468103 13.130026430647352 15.865831252628665
Sb 16.487994993319685 13.190835236087308 17.61833861202085
Sb 13.545555807647697 16.453928658196006 18.887519217879934
Sb 11.430438898961647 14.87404673013926 20.15732846690972
Sb 15.55681636797258 12.954421199322042 11.886364834137739
Sb 13.470102427806705 15.877427055170768 16.07626056721202
Sb 16.451827538633587 18.107480074453846 12.684266018456185
Sb 14.084775331331178 12.239294967201106 9.514485718119044
Sb 16.81304343125709 19.92709707897237 10.512117275398813
Sb 12.298403704658687 14.464952409149218 12.659711808591274
Sb 10.609802784044348 15.802471944381287 16.209893430678882
Sb 14.61859531341265 18.097102260701558 10.495771539640296
Sb 11.089638192338949 12.164668918688173 13.891824945182874
Sb 11.884162013105362 14.12546356862945 9.850274817631485
Sb 9.637736295458389 14.659881199274633 13.725330846261231
Sb 14.642926032974303 20.281809930206848 12.331643527259086
Sb 9.464338306387313 10.956858985928436 11.884599746785574
Sb 9.84207871525629 12.18271601928027 9.548085702181451
