27
Energy = -105.4825096 eV
Sb 14.06828738450872 14.535225318942981 7.255200720370332
Sb 15.465243188060969 15.625206977600781 9.528131795909145
Sb 13.866758338816211 10.165292431736756 8.861426327670369
Sb 12.248271040883761 12.494783465958234 8.212688887384184
Sb 13.05699221618347 16.857919713981897 8.621956846166839
Sb 14.70014049033564 13.541617242267813 11.318331018007584
Sb 11.664402859231602 8.573946506973936 7.9346840901438584
Sb 11.5398362781322 6.366756844734146 9.744801173865664
Sb 13.108441554660384 7.047255013437723 12.067676264646021
Sb 11.877352273114903 13.271716567764006 10.934479674954142
Sb 14.563782322219483 9.498919490476963 11.618698198655913
Sb 10.890355491735953 15.826556637705453 10.192076903541158
Sb 9.40039173994372 8.323147391201621 9.715532888644695
Sb 10.239950137329343 10.158313740040422 11.813387506988267
Sb 11.23465295911497 17.67811909113491 12.387365677659991
Sb 15.0461668702661 14.909834917762254 13.807573928317819
Sb 12.978324909083128 11.054892740083863 13.506005444417825
Sb 13.11978676529925 17.014419917753205 14.449811845462621
Sb 10.660189997946437 7.846966156349689 13.514419334417868
Sb 10.84420763553463 13.60246489546544 14.190804914530943
Sb 14.740063182175135 12.445146554731657 15.326120338882584
Sb 8.095190065870877 9.914885461089472 13.704042730955887
Sb 10.323961797544301 16.39202111687257 14.801975920961734
Sb 12.481899526390336 9.006206675148373 15.428204938063029
Sb 8.774364492690506 12.009146895794967 15.512603032015141
Sb 12.324636319348341 13.281579475675002 16.667546380506803
Sb 10.881616143662436 10.752924739397795 17.079719196941696
