28
Energy = -109.53747935 eV
Sb 9.861859240051059 16.49452208801105 9.241568147359324
Sb 12.940551133051967 15.035086676385653 11.716077243726197
Sb 15.034169176069705 13.818753109421351 13.283956839473861
Sb 11.668303308716766 14.92834227321606 7.606227246310798
Sb 8.838440941671193 14.877006390580485 11.378574101743954
Sb 10.569946522613659 13.658222353165417 14.72560447317015
Sb 14.047306181070004 14.254333376945553 9.175373671121358
Sb 13.340951001456984 13.225904754918723 15.568225108256891
Sb 10.92654063691324 12.916721636074813 11.910627853091707
Sb 9.61340062702569 12.940033118103527 7.140565928283499
Sb 15.72565781990637 11.343187185637294 11.84879538499511
Sb 10.173519867815184 11.058306290595798 16.08619738660345
Sb 7.774323842501607 14.50786702041309 8.752179065908972
Sb 13.485186767763759 11.577717678156617 10.089713909976819
Sb 12.444030125856097 10.751655498574745 14.421071486037809
Sb 8.916538945392128 8.793071302623673 14.722710264220725
Sb 14.162524924821534 9.628241535696484 8.026429710741118
Sb 10.066626061749531 10.910395352286523 9.124725543845871
Sb 8.696620036104076 9.95310485249919 12.088076628451446
Sb 14.741262083786575 8.591017066135532 12.470620931777216
Sb 12.029196209798346 8.977769904617091 11.526716829012413
Sb 11.42236186274154 9.18950060863227 7.207858481652839
Sb 13.624806822443743 8.23421945495747 15.13889196018455
Sb 6.137464428971786 9.230736169962947 10.93335856266068
Sb 12.654413787341321 7.421822599482209 9.137254879526859
Sb 8.353498211555488 7.44775577231514 10.654523058273789
Sb 7.73549140879763 9.231409664693468 8.49797193215079
Sb 11.249715497096295 7.238003738980791 13.760810844526043
