20
Energy = -77.38464048 eV
Sb 14.875401812281519 12.901639334168253 8.795861419473724
Sb 12.522107154835219 12.020166009559652 10.121872576135319
Sb 16.577743656711156 10.577788865122049 8.747418997225488
Sb 12.46507292281712 13.600451665191603 12.57881428920292
Sb 12.455746596750755 11.029882494026777 13.961124299515872
Sb 13.406393868368529 9.699693549948979 11.518720883711834
Sb 16.9987474378577 12.663198205343466 10.710189955688824
Sb 15.205499473673955 13.951910752556278 13.443435068797925
Sb 15.07601037593782 11.524010511040535 15.067995298449013
Sb 16.24496589827472 10.028129493809274 11.561168294267008
Sb 15.788794329785945 19.488220744988144 15.08023798873945
Sb 13.942928088080212 15.850814851707232 15.207170567933161
Sb 15.515442337728027 14.972730986549964 17.459552380359458
Sb 15.891385544474266 21.542129459662533 17.09258921106504
Sb 13.5668564597392 19.905824835838896 16.805727692883504
Sb 15.97920372917593 18.766205325831557 17.841931188025068
Sb 11.823510693536239 14.080274598403202 16.113528541962655
Sb 13.885341447188276 12.580817993186132 17.46736232641006
Sb 13.761025134132689 16.347980355413913 19.29138264578393
Sb 11.294011480856373 15.744318409855607 18.410104816575128
