21
Energy = -82.34927456 eV
Sb 14.306167132292579 9.857217402119561 9.366057630064924
Sb 15.843634578504586 10.933243582458266 11.574780595896978
Sb 12.968229824210805 6.63452495862311 14.839943330036258
Sb 14.173269941084769 6.721450121951328 12.169438365480458
Sb 12.323307837014372 8.357938545259056 10.772750062441547
Sb 13.724410842814184 12.334793047585043 12.898280455700853
Sb 12.575911517059952 12.139023789997697 8.650272668172015
Sb 14.04647891698916 13.819520892190363 10.433240204832167
Sb 14.580598494188223 8.914144309720935 15.70304266842384
Sb 11.792909334662601 9.18747727048588 15.207439602779239
Sb 11.532890213124134 10.490551898537422 12.509560952042726
Sb 16.08066420010773 8.58683640548503 13.214537200990726
Sb 10.17518278691822 11.423967665770865 10.008500269239159
Sb 12.636713311741236 16.340599741906033 10.661153320624548
Sb 12.642242204029541 15.975707825123067 13.461829606112238
Sb 10.600505348546584 13.978658109860252 13.879136335292536
Sb 9.104060970926463 13.670767262686962 11.471605090750604
Sb 9.894333980567856 15.949456696641892 9.997274983250017
Sb 10.78309156716381 18.138092963606674 13.996828648690718
Sb 8.732198113900534 16.151684597271206 14.45980008820085
Sb 8.770662936479694 17.681806965046032 12.011991973304287
