25
Energy = -96.4706051 eV
Sb 9.482534340045486 11.513710801016288 8.34401459971038
Sb 6.5806336020341245 12.405909739142558 11.506797092011315
Sb 11.90213899696152 13.89618092391191 11.351523025636563
Sb 15.871151598472817 13.245884404664347 13.158991414207252
Sb 13.504044521286202 10.004352907301177 8.264026709924964
Sb 13.954264876556547 11.094384511401588 10.93514695233041
Sb 7.768439285242683 13.644555751742777 9.279835025931527
Sb 12.440958015860323 8.732340475511078 13.404518568252062
Sb 15.45483099920605 13.37211285563067 10.154268097368078
Sb 11.655290325711459 16.365762129981245 12.841668391625147
Sb 8.078236693624971 10.020046324306184 12.208149298922686
Sb 10.555129257958622 10.697495670758235 10.866090354105118
Sb 14.933004420565728 9.507993043059027 14.701355901070876
Sb 12.444610831588886 5.896008957592922 13.173073922721649
Sb 9.2318431219731 15.00071111051046 11.516673597835824
Sb 11.474391795766515 12.245154736862654 13.862241906564323
Sb 14.053481459069587 12.237258798574787 15.228547081909879
Sb 11.310288159513062 8.37956719406461 9.286985580194656
Sb 16.41760652175764 10.502152332145693 12.396824678512925
Sb 8.805685511246752 11.302271136281403 14.714569809115222
Sb 10.731819241508294 14.817477944643779 14.995967959310528
Sb 13.483406474261553 7.478113908823977 11.042921849939852
Sb 7.943574800484411 13.952876880016671 13.900441551741539
Sb 12.086068970665922 12.408309995638266 7.37633929504164
Sb 13.208480833491713 14.65128212127234 8.86094199086889
