21
Energy = -81.48565176 eV
Sb 11.180576719580426 17.912027157746525 10.368495414211981
Sb 13.978860786097508 18.411838054600864 9.855007771586866
Sb 14.20849746002051 19.816199210465996 12.41674598996811
Sb 13.075476386065823 15.797843073318177 10.470389863387702
Sb 13.392580361730516 17.940849523900958 14.38934292033007
Sb 10.724574599174256 14.961794214937298 14.122921240735435
Sb 13.554821724891974 15.302140774188722 13.294038469832023
Sb 10.373691351945244 15.5095687710526 16.90727151493108
Sb 11.390162879983258 19.332456681704063 12.92968903516108
Sb 10.526511154625398 12.780138743696696 15.975312346481267
Sb 16.254224650873372 15.256499497628027 14.679340070558899
Sb 12.501554701628491 13.791403087570847 17.815878981593663
Sb 14.76085947511761 11.680988481056716 12.582745853075076
Sb 13.718982336551369 10.621898924941712 15.04461882293605
Sb 17.20794060280412 12.9617474767115 13.260144976788299
Sb 15.323302121579292 14.24264585275492 17.19768398569798
Sb 16.12806755530096 9.164625547089997 12.081751855890541
Sb 15.589130351097534 11.38655849513935 17.052295331219042
Sb 15.080630022866087 8.100148190941015 14.583584406086494
Sb 18.00816583504364 11.496648942754952 15.56269377823814
Sb 17.83494304199104 8.881281037316738 14.373884200294258
