21
Energy = -81.92723679 eV
Sb 12.034923993210787 10.183357899656837 15.931170556814244
Sb 10.576498121746484 7.748768452928358 15.197054436094785
Sb 9.549888213936553 11.448551747938893 15.44770295210041
Sb 8.800687189758799 9.153398809756004 13.381133352772055
Sb 12.82805376392023 7.37832412509509 13.534036475405516
Sb 13.286017130933553 10.47537190060315 13.31054272330527
Sb 10.368252918351848 13.91970392714868 14.137864241122227
Sb 9.062625318443834 12.782623799616195 11.882851622813527
Sb 13.15240802647001 13.430462544888076 13.819177385847786
Sb 10.812636104692766 10.445418627089486 11.820814805275477
Sb 8.93864928512381 6.8891289410334045 11.282553668116623
Sb 9.629938697362103 14.542875775122328 9.672186353129536
Sb 10.632825337955923 8.517440839159901 9.638800477236506
Sb 12.07031239984486 15.894967993328006 10.266482090908529
Sb 11.707106390135035 6.294515091868048 11.14492030356414
Sb 10.486668492219943 12.302675579336283 8.18084263859811
Sb 13.869265711512417 13.863381911891706 11.06868869404558
Sb 13.114061830902324 15.870281251471642 7.583036225437689
Sb 11.712336758703524 13.87581397735689 6.076112253548719
Sb 13.051402470782467 11.695733389609941 9.36516359398843
Sb 14.293554028278438 13.265315599386959 7.236977334159745
