22
Energy = -85.16157579 eV
Sb 18.1638246623865 12.649290617642189 12.103174016406415
Sb 17.83760402506043 11.359994262608534 9.579144189536125
Sb 16.10271509891747 11.710917446671537 15.31655620208077
Sb 15.51927178017777 12.074048330978542 18.136188888854825
Sb 19.36579242705631 13.761144155784962 9.756796756850576
Sb 13.6865991382727 10.221358330427247 15.497823234410214
Sb 15.707705380738895 14.371190924820674 16.318020069884412
Sb 16.525853573750616 13.836440283400794 10.091086523919541
Sb 12.642067837356032 11.825314969087481 17.63799779312987
Sb 12.290762511749477 10.086131822124758 12.953105864514262
Sb 14.2237312389804 16.354058618591967 13.660468868420008
Sb 11.67542651486072 15.48561601385471 14.722128727457514
Sb 12.99698195535308 14.629418350319295 17.14967850002126
Sb 14.444272792009823 18.48765811501757 15.61398991481827
Sb 12.937558801479824 12.296776346095077 11.305166862284594
Sb 13.094800272877688 18.998158044428553 13.15904807729574
Sb 9.681824663100942 10.65039817257062 13.880178348207068
Sb 11.556935565220707 18.307187851178842 15.485917606631459
Sb 11.010889443292095 14.384284541991216 11.5501665505117
Sb 10.595476723267621 12.18062144134168 9.660093993649658
Sb 8.992139804149552 13.357722673907668 13.322224977293345
Sb 8.439405774228792 11.235931678481826 11.38487413297387
