25
Energy = -97.10859518 eV
Sb 19.830535080560466 14.83254334295184 15.149950535631081
Sb 19.55598219996728 17.639945396623965 15.774968477516333
Sb 17.776108925914322 15.066814291138757 13.079773145991291
Sb 18.011360158682553 15.723022202857184 17.219529490939806
Sb 16.462659808370283 10.877716583706995 12.502481388891963
Sb 16.82044387180819 17.085912873131477 14.963889517533234
Sb 16.174685939348628 13.05322299556417 14.347879035620801
Sb 16.516775278909563 12.072089198306404 9.852940713423916
Sb 14.31694106215367 10.231915369550068 9.701347406133195
Sb 13.867139644427901 13.556491077391398 12.686123402701387
Sb 15.098595864618881 14.509312423141541 10.305705354057606
Sb 13.285641092843711 10.741684304760152 12.336277433629387
Sb 12.77828394906411 14.31593343342709 8.578401345677037
Sb 13.553418623823463 13.908910696018914 16.98326845815717
Sb 12.132367282192725 11.501212892911958 8.312413408720623
Sb 12.732788159695573 16.463771581678486 16.122013276864603
Sb 12.009876249489183 13.697974957534337 19.444056821070575
Sb 11.887891880480568 15.599401230481787 13.184944869181876
Sb 11.668714373590204 12.145165316191838 15.663046036727748
Sb 10.636641930889704 11.47948866342814 10.791594536131967
Sb 10.682369724404639 14.30687208243337 10.58554307994223
Sb 9.910040329763856 16.133637285941784 16.247287795408837
Sb 9.868581480335456 13.930503862281421 14.377463483259014
Sb 10.126627997179515 11.927911921202522 18.120344744151705
Sb 9.442633012723597 14.66810355102961 18.672712609059676
