23
Energy = -89.43348017 eV
Sb 15.379075003941463 14.854426562460732 11.177879239281744
Sb 14.398511315892865 15.983354460892567 8.730147453483648
Sb 15.669348712882634 12.087251759382395 10.397689875489807
Sb 13.93304499555991 11.862282107544495 8.107448693613675
Sb 11.959061897703503 17.22903358318044 12.54733400244209
Sb 12.954234315704143 14.556669124960933 12.665278950479111
Sb 12.274008330875127 14.173372984850893 8.130969845304362
Sb 12.072585094953551 17.419504854216303 9.725527846919876
Sb 11.747259675526983 11.265920435047162 13.312974703557227
Sb 14.607923736215396 11.006015207992146 12.84458009695674
Sb 10.868221887763216 14.879786152932196 10.670011176195118
Sb 10.319038795039798 14.057514663287051 15.959006278291506
Sb 14.373215293320598 8.17764062133785 12.275270778673478
Sb 11.782086659605875 10.034203415410696 8.628799366209536
Sb 12.199254934686147 8.514787692633114 14.130822973926888
Sb 10.337421486667216 11.139687434722893 10.81958592441732
Sb 8.448582965233628 13.356369484788097 18.014660142236327
Sb 13.185043442474345 7.796081881464252 9.678067199089089
Sb 10.27158179776399 11.398169416001139 16.99146441215487
Sb 8.126010303899571 12.339152677805455 15.36096577171498
Sb 10.022913168073625 7.026868826408085 13.002225893928252
Sb 8.8254826209711 8.689902532875253 10.98849646563669
Sb 10.65240865229384 6.558319206854202 10.247107997045338
