25
Energy = -97.07092609 eV
Sb 13.048916176836768 13.155907636749712 6.637228602467727
Sb 13.806191010210604 14.959759510940895 8.78469488452762
Sb 16.118477992304783 13.324392397879679 9.414137833573589
Sb 14.309544212605747 11.265777872326348 8.410953894350683
Sb 11.978568376000394 12.76199523279441 9.253844107340255
Sb 17.699061785101943 13.019475357817539 13.44116672953114
Sb 17.703380765960503 10.463518293585002 14.782714621406727
Sb 15.103763241605407 13.089566380743754 12.108935171622102
Sb 11.961483332038197 12.52640078415456 14.300983722407086
Sb 14.81940761238336 10.86806707398472 14.745418532680052
Sb 16.540011278100728 12.754739248770724 16.06355988467233
Sb 9.485659789517221 11.533700728831949 13.184740600724261
Sb 10.433914662720511 8.837213450761139 13.508970947771726
Sb 15.084463438841835 15.993715841980308 12.321429538498005
Sb 13.748407341566695 9.743485530933585 17.17271331642415
Sb 10.898945633643958 8.966185363166169 16.38179955133523
Sb 12.272448569974127 16.451910391820977 12.576329480340554
Sb 11.59511740117375 11.667346877003489 17.03770253648214
Sb 8.226845666944458 9.77089944474649 15.02907263889505
Sb 15.927537008200206 16.3556080643686 15.007121899841298
Sb 11.382989479983218 15.281008356680571 15.017921260395772
Sb 13.639279531633864 15.755659655324635 16.67734734378166
Sb 15.190211989866498 19.160633355472953 14.850752395807215
Sb 12.519991180620005 19.045160903403016 13.799835323541856
Sb 12.954598448121729 18.57378893968491 16.613371770877684
