26
Energy = -101.85486534 eV
Sb 6.258451351816883 10.12411408329247 15.1231786220707
Sb 7.187666238656928 12.475167732067709 16.490980313960364
Sb 7.413946199287099 14.536148221582195 14.520575286598337
Sb 9.093245717988394 10.497740054513876 15.651316025593253
Sb 7.350614301340923 13.04453792342202 12.091545689693145
Sb 8.11053402985149 10.414315296216087 12.945484523399358
Sb 17.80673175971319 11.357603220454271 11.171091114932288
Sb 19.555307467861162 11.66478356635384 13.494785604074046
Sb 17.791883081771132 12.127503238156145 15.715278183230055
Sb 10.178102370626616 15.099316656803957 14.968987040151779
Sb 11.675292192488277 12.657098912107125 14.768849587470239
Sb 15.172835631993626 10.985241697142234 12.151121258614953
Sb 18.473340776204843 14.765435745860707 16.663870908622588
Sb 13.72732349069559 14.73047722142416 14.900546815057693
Sb 19.97399172286708 14.329738720626192 12.514416091506064
Sb 20.566216850408264 15.688344594296268 14.941854653495586
Sb 16.577987484663826 16.791152398151777 15.661232752735557
Sb 10.566003245124508 16.11505457882296 12.330016521212272
Sb 11.518317904819849 11.836228435119246 11.997382252425286
Sb 9.832494633956674 13.79810504213053 10.800849556752098
Sb 15.890385506758943 13.131981381905927 13.86853941033726
Sb 13.474485064452585 15.73740160789255 12.2260807053658
Sb 17.23211050283298 14.497370976449199 11.72588078207423
Sb 18.967824118059944 18.115756548421917 14.621851450360268
Sb 16.874865595224076 17.29527464525195 12.873477684384552
Sb 13.73099424222164 13.18505898322083 10.781758647568752
