29
Energy = -113.34726501 eV
Sb 14.96501366727981 9.950342568199662 8.843658775722455
Sb 15.215826562659165 9.042797669085118 11.57812154078977
Sb 13.959784132933649 12.662908730543675 8.647477837113442
Sb 12.511726114496327 8.444454381611115 8.539221544965837
Sb 13.802579611873822 6.74487006558882 10.508297498210164
Sb 16.38509735834933 13.835684045916631 9.661528226012116
Sb 14.539433285587865 16.018907566862396 10.376618385158364
Sb 12.929441101874925 10.542856293342057 12.479251218016577
Sb 11.056091810451754 10.16425709088561 10.314582587461913
Sb 12.749166470249971 13.793406809969008 11.063944123017826
Sb 11.634350732280275 6.370240735713521 12.435304215164239
Sb 15.970034916922572 13.084216187300749 12.467228514293684
Sb 10.367957455787398 14.759392006617292 9.654064003420288
Sb 16.486245630289677 15.879685635512239 12.568198597805672
Sb 12.679782099676427 16.787770140854168 13.204232453228533
Sb 8.766338470189801 16.216026559388112 11.566706580557625
Sb 12.398603953663029 8.37956372814219 14.301458466211423
Sb 9.629371202840261 7.771769138738312 10.985311705748726
Sb 13.670169972527223 18.069851375157377 15.610788346997289
Sb 13.321871066344416 14.17590477440426 14.321716142968958
Sb 16.287869735971395 16.924527174854248 15.297681422519249
Sb 9.95530424311352 16.480300562693877 14.174439506499215
Sb 9.995093850205995 12.102271205654082 13.037262630725616
Sb 8.267644253882734 13.43956018575394 11.135251792682114
Sb 14.275899982155675 15.503530958926124 16.758596857274735
Sb 10.523920941675703 13.883831502399813 15.242346113091793
Sb 9.771456631341694 8.466804406939271 15.498445259125923
Sb 7.95086488272335 8.021736462569844 13.317648120450453
Sb 8.077414134591347 10.626886308314369 14.55497180670441
