24
Energy = -93.82361795 eV
Sb 6.155810005583071 14.650242812656163 12.818477815932567
Sb 6.925655531143825 15.660673720317076 10.238203723861973
Sb 6.33406510467776 12.850372224634427 10.621676401243542
Sb 8.562829596667466 14.253494791146625 14.380913408434406
Sb 10.054605300339967 16.085395962351267 12.76514300776295
Sb 9.464293346885468 11.766289976024755 13.455814892371274
Sb 9.745213236188226 14.971975582662612 10.194421705172436
Sb 9.173345719453252 12.169038953573843 10.694869721862172
Sb 12.708776789392255 15.014101028210177 13.269706991878731
Sb 12.172426149548679 12.538496347272076 8.697391675534522
Sb 15.751903214911842 12.947500389831557 10.354274653380582
Sb 13.070629961308478 12.784377607111677 11.4497585337441
Sb 12.80171294211913 10.691798829925425 13.424751086912073
Sb 12.1626875207827 12.90878968118673 15.193947784329215
Sb 14.497357929896475 14.112959245563916 7.991793072310112
Sb 16.265869582905935 13.313470733647014 13.807867839499549
Sb 14.784112604710018 13.877577008669986 16.16814852983714
Sb 14.751134716896873 11.289413025472237 8.167182149053472
Sb 15.719675634607269 10.56228952846945 13.356445344620871
Sb 18.923091230061626 12.88879030692647 14.882485906698957
Sb 15.673249544067058 11.73062142895727 17.778631040968826
Sb 16.100475683058235 9.525775774133766 15.972272540802278
Sb 18.48834455555434 12.42592668255253 17.670096878745127
Sb 18.923578523070887 10.191472782533404 15.85656971887396
