23
Energy = -89.04752854 eV
Sb 18.52725379404439 12.91941032760004 13.026621087787367
Sb 16.748166360602905 12.579541068547705 20.266811677079986
Sb 18.197690121770435 13.296320907191928 17.91084279070908
Sb 17.867972489354692 12.372864542336988 10.24002970475491
Sb 16.000094278163218 11.485409020253602 17.722840873787433
Sb 16.424262030408997 14.571898791634473 13.986040739642565
Sb 15.535453956823833 14.243115553502827 18.28463195487993
Sb 15.3846541194272 13.67066447071936 9.75330561570972
Sb 15.111012775691293 15.70353205726526 11.723112534414593
Sb 15.35404561477813 11.155396357673542 11.093588058826525
Sb 15.990178751997929 11.75368697307244 13.878055808265255
Sb 12.034586125689613 16.41553070339259 14.562079151085188
Sb 12.672264637319614 8.691540669123702 12.03255694503782
Sb 12.756803152983355 14.352068523254244 12.712523005274756
Sb 11.440888283418134 18.692537917692686 13.011682920724665
Sb 10.776721046214792 8.188437406559151 14.120705390508748
Sb 12.215756878084362 10.670349220022452 14.05900256462774
Sb 9.277888552505223 15.59492017174709 14.736171287830942
Sb 10.209248676529283 10.131042117624904 12.096893163605658
Sb 10.914954724137344 14.827701189739752 10.603337779105313
Sb 10.16232554902058 17.6111540543668 10.771473912578713
Sb 8.738289230814798 14.077339192485846 12.372119894599843
Sb 7.961431070412914 16.886976617358492 12.52553950131446
