29
Energy = -112.66427288 eV
Sb 13.932584510806837 23.448369375310065 14.751638929681937
Sb 14.100021595088126 21.79632903032865 12.41381686608709
Sb 16.360560600729364 22.01605820589618 14.1631370232396
Sb 14.83545939271823 21.361606545025126 16.503450948666448
Sb 12.86798444888605 19.279024734237236 13.06114089820466
Sb 13.2928676671616 19.01232198083135 15.864799834908943
Sb 15.271679461076547 18.05483638577669 14.025597161426145
Sb 14.123538089488818 15.414660835859348 13.576490453493193
Sb 11.99285414595334 15.511656127193849 15.463807246163412
Sb 16.03952178052591 14.30121351914546 15.573423484631636
Sb 12.087571803387528 12.642103759612317 15.915116451904144
Sb 17.62349438402972 15.320882320985186 17.807633527114632
Sb 18.28413723415373 10.815541065570345 16.937049001352367
Sb 15.09907904870628 11.00033795345852 12.58423549528878
Sb 20.023801536423107 12.492623462125891 15.370731120651874
Sb 18.289452159082433 14.138725143236895 13.76960989808974
Sb 10.264827525871823 14.315094294518927 13.226123037768705
Sb 14.124505635087276 12.961291701204235 10.713985674099995
Sb 13.246264543609 15.367888381688864 18.404809073381937
Sb 19.464080506522865 13.177950477305577 18.1181340632643
Sb 9.404296708073533 12.159110324183068 14.913144287963652
Sb 15.619884841341358 11.53039456598761 16.13242629521481
Sb 15.093386800064756 10.460776052869631 9.69524252924286
Sb 16.85190230062278 12.746734669852929 9.743422138435134
Sb 11.465597890579547 11.787602382343485 12.96333728189159
Sb 15.680488443070642 14.401655192549251 19.662037041663396
Sb 17.8999705368769 11.715472468916078 12.242788953819245
Sb 12.377363936042503 12.72135892475712 18.921563113830796
Sb 15.088916848613165 11.65647827530918 18.970027390376845
