25
Energy = -97.55037296 eV
Sb 9.639695111593717 10.399030048357565 6.853539906116187
Sb 6.762024528449648 14.219248388570435 14.242109183316343
Sb 9.679099600730023 10.056433704877197 9.731061386341848
Sb 8.70318846241577 14.163325907305662 8.025856513982554
Sb 11.9311706070447 11.860236761285995 9.680864395059132
Sb 13.64024858327274 10.225032341147564 7.926727661545238
Sb 15.29868081034916 8.663791490909437 15.673322054076852
Sb 9.345583272221532 13.878992613869192 10.808903490487612
Sb 13.924777796500434 7.1218335621853175 11.698316993512726
Sb 9.63861716927812 16.41885209806793 12.194687099155646
Sb 16.703008499515896 10.217754923965725 13.720305300452146
Sb 12.101787166079387 11.646782790476854 16.09183618670394
Sb 12.500762751869745 9.492734764249356 12.28397271496341
Sb 12.503781664670264 8.957325781945462 15.084719686268029
Sb 16.30948715103508 7.412069691641454 13.284966802409087
Sb 11.145277949038556 12.874067855803474 7.06141159389197
Sb 6.5187506219924005 13.772548024562637 11.40718336585781
Sb 7.529431073462825 11.567210409158001 8.465436030803023
Sb 10.671620127007616 12.344167506797088 13.661281648493931
Sb 14.63100736537996 11.395484711777723 12.138191338409165
Sb 14.964341842741897 7.945657902855866 9.115657100114941
Sb 6.725920597052116 16.47793072707368 12.426330232717785
Sb 13.339344980934598 13.289856881027962 14.11400515996941
Sb 16.02160351240951 10.55500808799778 9.473224459952599
Sb 9.569639928775103 14.843474197911759 14.634940869219571
