28
Energy = -109.47218002 eV
Sb 12.72710312087801 15.38817566800363 10.383240498224872
Sb 13.085806973395275 13.000013315296593 15.352094066572533
Sb 10.589296718706002 14.347955246821886 15.742850892938426
Sb 15.362135810335948 11.88942661644942 11.618470181491896
Sb 14.790673840226907 14.342835458387544 8.723923206768568
Sb 12.343880874051498 15.171556027519301 7.500001821229088
Sb 9.47713922203214 14.548464141694808 13.087783274016877
Sb 12.934862336532992 11.209696735616488 13.024808745649239
Sb 10.950907970751718 11.66249754615609 16.781332619627012
Sb 11.17822482344309 13.077580008414417 11.248515275420829
Sb 16.395791094177003 9.139693358187515 11.92774559695593
Sb 9.155853954487059 14.167202395756286 9.310487555292962
Sb 14.846026069290463 11.3587138907436 8.845000361886367
Sb 15.546869220454932 8.113439619588947 9.419500236130887
Sb 9.900765106037486 10.851394537220802 14.243334505370733
Sb 6.8773007242123985 13.267225551285089 12.806823835279442
Sb 10.617789707657224 12.863793266993502 7.218835217559451
Sb 12.011309353890836 10.997076502064989 8.997632373107203
Sb 7.032049670753749 10.797421035326309 14.355138299483343
Sb 14.234164873083053 7.241300348388442 11.742512960728574
Sb 6.986908032656705 12.381598446277044 10.036700515595262
Sb 11.723055844549336 8.718432195395215 11.457103392586125
Sb 8.955475226300134 10.437521792230417 10.720727126568285
Sb 9.982625781199905 7.983998800665492 13.741938052424757
Sb 7.469066809203324 8.643921031015367 12.425010380133871
Sb 11.310776696173333 8.739736359417968 7.309692524390804
Sb 10.721049877043624 6.882680418186456 9.41712502154354
Sb 8.668053897420238 8.651613315840931 8.436635091968139
