26
Energy = -100.26871823 eV
Sb 10.043724964855308 8.717604464695361 17.698843049065147
Sb 11.580135609726094 10.606271897332869 19.117607191964503
Sb 10.47093379255109 9.406490241771696 15.021952576216263
Sb 10.617128158975264 13.053012963384004 17.931824095209485
Sb 12.989047830984186 10.83117445997282 14.892351918143653
Sb 14.007348027914613 10.843027066133109 17.587263987311722
Sb 13.42453618437934 13.55133501586146 18.437615325329745
Sb 12.013033612873489 15.419961946355242 14.73047843660759
Sb 14.4109922662173 15.181848484076623 16.259583153375328
Sb 10.368686008071085 13.914560508050702 11.242923839675738
Sb 17.810883025262395 11.993362143120127 12.654016298990227
Sb 10.579334066957811 12.320416895956031 15.129250508187603
Sb 15.34731339057599 13.349912257379733 13.006256386103924
Sb 13.1323262985304 17.993752667916507 13.970209276188369
Sb 9.985824305272105 11.177110055401878 10.531269688447221
Sb 18.269997108760673 11.90173883875873 9.873509811361052
Sb 12.639385470434812 17.40395520177687 16.737684598222483
Sb 7.7293840564857526 12.899054812527853 10.800277858791958
Sb 17.337312558074032 15.154207383145822 13.986359822655832
Sb 14.571999238271173 14.647388676892831 10.567048704703014
Sb 15.97432775372375 17.751004611363843 13.605043310925858
Sb 16.36399285279831 13.60770637751362 8.578101449960748
Sb 9.520862882228773 13.232609018615122 8.599597688053413
Sb 18.96986541475748 14.642669310321795 9.273805411255047
Sb 18.50221029589185 16.305634605103705 11.572945078726006
Sb 15.912097370911196 17.198067102093933 10.767023322717828
