25
Energy = -96.32973582 eV
Sb 13.221830959841807 8.87196234910448 11.675766152710711
Sb 7.600408795869055 13.405345292231784 13.40040091755861
Sb 13.204250735214483 11.396402004613696 14.164857767434738
Sb 10.063430548674347 11.235544589948839 15.586414735346805
Sb 15.263899404402068 13.363718388700734 13.890658460616718
Sb 13.064986944953544 13.645486895646748 11.082720914604785
Sb 13.495502609132798 12.223759285320847 16.929001784210108
Sb 15.835477852701137 12.962556535125504 11.02439907427969
Sb 14.533062676436181 10.47631900412061 7.731034511341787
Sb 12.191188260738 11.58419423643285 8.904126895681307
Sb 12.089727388049948 15.57070301825026 9.16746659887277
Sb 9.851092333410431 16.089301189280825 10.983014654010685
Sb 11.331656143485807 7.181893126967745 8.429314370742919
Sb 13.71577175880682 6.537397750177377 9.950336444523854
Sb 10.67875646699318 15.027549040909186 13.641198717246558
Sb 10.820525520713002 9.478691417135858 10.171532084270625
Sb 13.907552573423732 7.68301130727587 7.3370933985993085
Sb 8.735649889094358 13.52650939657941 10.114487628754867
Sb 10.277159159191944 12.4360394329325 12.40399802966821
Sb 11.196238617682525 11.068661749257206 18.245616793846537
Sb 13.512820278004734 15.624771815320477 13.15383829057798
Sb 10.963368190708401 13.619443159728664 16.947330085893057
Sb 15.492379925769638 10.114687791809274 10.398115419402837
Sb 10.464853349554387 13.58370302129553 7.76039639044877
Sb 7.344952057737585 12.148890642423641 15.763422319945162
