21
Energy = -81.85435379 eV
Sb 17.97079876997124 10.34529287034942 11.14847000808356
Sb 17.781515849659815 12.699953151466099 12.772658049922482
Sb 17.3375348501848 8.02787843163601 12.682990357446245
Sb 15.254963846299574 13.48488272640607 11.637525653572448
Sb 16.463830159665463 15.225425751402755 15.236953912832256
Sb 15.362766346123818 9.210344712922899 10.860120540362148
Sb 17.252940566915854 11.573776149573519 15.357094620406766
Sb 15.925816371765698 9.090354662590252 14.978321838139898
Sb 14.808812166153324 12.987781087865658 16.001300213523912
Sb 15.395836985747167 16.148099395682507 12.744229726824303
Sb 14.625513114597405 14.982456215884831 18.744647415837232
Sb 13.747801830604581 9.732001980861952 13.215618274926525
Sb 13.324346493151419 12.571163727027836 13.501000383963259
Sb 15.603217818757406 17.157211458019848 17.19604465632591
Sb 12.534213091983283 16.38552954790755 12.877480929872402
Sb 11.532787744085324 15.414242758979888 15.366978209633828
Sb 12.779015751085353 16.813931314808954 17.559362682915157
Sb 12.498682157057969 19.23055869306486 13.231213291038117
Sb 9.527356824512792 17.492637174069166 15.610538035288917
Sb 11.200314110738404 19.841315618103053 15.727787625519131
Sb 9.630684671614555 19.333966347075883 13.384726653612285
