26
Energy = -101.46166307 eV
Sb 17.010063692463866 12.07464718132537 11.263945722814613
Sb 16.65112278680383 16.264859810839372 9.267121689257593
Sb 17.148325598834735 13.482610217311665 8.7821962560998
Sb 15.499803833144789 13.902520813243083 12.917418520812427
Sb 14.608208361041598 10.766991553195185 10.338571231775678
Sb 14.433350766966965 15.759876230873877 11.021258505866678
Sb 14.503202613925675 14.556824684547772 8.415074019592655
Sb 8.27185606648414 9.64045231100073 9.624283284947195
Sb 11.69792555477631 8.42412743806269 11.45310834773356
Sb 10.231962145408458 10.33745834783745 7.683952892598234
Sb 13.15553798590273 12.202234407577373 12.58688214378786
Sb 14.436073892818037 8.84529441561554 12.360063158015775
Sb 10.685992362205786 10.969607629248843 10.459562750445771
Sb 9.625275274915282 13.078006008953718 7.112654288356402
Sb 10.183553780149275 9.003045305735375 13.858220289738231
Sb 14.256788947935368 10.772688422406157 14.870033323426817
Sb 6.789534201135842 13.385393804684345 7.403176458146654
Sb 12.391025630107173 8.72016744461326 15.598763572083232
Sb 6.709882299135959 12.027954574142647 9.935217857065966
Sb 9.243031016872237 11.754588426025313 13.915767778709661
Sb 11.131335518374415 13.936991136858135 13.918880700714157
Sb 8.548123260240393 14.192620167100666 9.539928849189673
Sb 12.954105186466412 13.339597400095645 15.982510138190205
Sb 10.77656383176431 9.601120740784733 17.81536969924824
Sb 8.800278233986814 11.428625218121788 16.75106505383968
Sb 11.160398047353105 12.435017199013119 18.02829435675743
