22
Energy = -86.1965416 eV
Sb 15.690838261580996 15.742441205530524 11.754678059786256
Sb 12.780884525359436 15.594205952847714 7.590700571084337
Sb 13.971897948026559 18.008086600461862 11.307614711267949
Sb 14.176606177898462 15.270430907273497 14.176806214657725
Sb 14.222812129487329 17.913726167464343 8.461302773414994
Sb 12.058809425753756 14.193564561234366 12.531238365539055
Sb 10.460848057803453 16.19770320206846 9.16098315748164
Sb 11.368107089139691 16.896407448706814 11.782040550238777
Sb 11.557045139899406 18.219852159879462 7.44294442344866
Sb 9.30588094434484 9.91016817273151 14.906468346564358
Sb 14.058224706282456 13.713627281931064 10.509899949102053
Sb 9.554805606945646 9.355394313822591 12.090416967448395
Sb 12.736196520071319 10.438096394255764 12.604714475399895
Sb 15.352587401550084 11.606278204273007 12.013756513403536
Sb 7.780752518025017 7.749438012329065 13.723150767075802
Sb 10.057609805245926 6.548677933686225 12.42741789382336
Sb 12.62597056293696 11.710675485964886 15.209596989659262
Sb 10.886229156448836 8.114051050870916 16.475848293772945
Sb 15.324769945505002 12.69253681728433 14.708247514834923
Sb 14.110058980744943 8.158146591131922 13.798773925730355
Sb 11.97270889628088 6.342893961895896 14.519350282804622
Sb 13.582719046476848 9.259960420164163 16.440412099269828
