28
Energy = -106.57286798 eV
Sb 8.454543391108894 12.014596452701443 9.818264966464886
Sb 10.011568247588533 14.357850071463526 8.86274657611992
Sb 13.074563415457494 11.269524511805974 14.901759467730669
Sb 14.542051387075771 13.60032530959589 9.008459650621676
Sb 8.285984717997978 16.322785855741753 16.643201324883716
Sb 11.857605511324241 10.14375676018263 8.633606716691268
Sb 13.76966648379726 11.631323850132452 7.056943309463451
Sb 17.361036981427556 11.518470965793108 16.359667323458982
Sb 11.007158087642509 15.588248233580655 17.10979222262532
Sb 12.676120741244732 12.881731004758764 11.121795967834757
Sb 14.626463355464967 13.109193314054606 13.294521425716958
Sb 9.078228807979862 13.55202894313761 16.451917649662047
Sb 11.95596897708991 9.688954403996094 12.643414887339489
Sb 16.27112170939383 10.859682768373085 12.588346074371128
Sb 11.730526500770413 7.113423905331872 13.750169973915282
Sb 10.330080322097498 17.23775146712548 14.829382785006837
Sb 9.37427107514249 9.685806163256917 11.232174461480506
Sb 9.62378270769863 10.752765188759165 6.945020012658688
Sb 10.21724233971959 13.124824725406642 13.844044885403774
Sb 7.950028323471637 11.754080058625453 12.683567250021445
Sb 10.800638496430532 8.346275915193333 6.654474194502873
Sb 18.017058654733436 12.922390785869835 14.253611445235599
Sb 14.278456137979552 9.124877466680744 11.0455746196958
Sb 15.419728555296334 9.563502602362503 15.006887506080306
Sb 14.458529735617144 7.206554616838586 13.160634712199487
Sb 11.652056717424118 15.564748521283756 10.879981463986264
Sb 12.38181081771246 14.155173952592111 7.169544648892322
Sb 9.374364663952381 15.575655687841174 12.68885163911566
