22
Energy = -85.55564582 eV
Sb 13.073606922278662 17.358878911739144 15.427354928670514
Sb 15.807375083564354 16.51416004526067 15.166183170994458
Sb 15.460284142902738 16.21780588715359 12.29531104627807
Sb 12.148395780590995 15.816783021645124 17.628310694712397
Sb 9.44958281076192 16.619149498670136 12.765774988221892
Sb 12.401640182163186 16.24103704649441 12.874315168025628
Sb 16.08364335617824 13.836514846317735 16.14627473312069
Sb 8.382489982004437 14.865921742159829 14.810872740709847
Sb 14.163345830584914 13.853996314500725 18.29003184787362
Sb 15.301962769928446 13.466751006898836 12.548474908865161
Sb 10.311777531128788 13.823295903590777 16.68296231327563
Sb 14.074086833103415 11.760647715257582 16.29660437158529
Sb 15.259885744537321 13.086020710261387 9.695796341472708
Sb 9.174196711622432 13.888086680589618 12.215826054535466
Sb 11.59258386232488 12.039476630185984 14.890889299000982
Sb 16.90753830725443 10.721244079739114 9.691910380409597
Sb 12.194357736401686 13.414401585819594 12.44449706020186
Sb 12.903010027251625 11.423271230908638 9.592342263314269
Sb 14.720791435575869 9.595337427641057 8.178241298498637
Sb 16.003695633236852 9.429292152259185 12.12809253175121
Sb 13.18557821660774 9.857553348807455 12.011453040011958
Sb 14.390533376063786 7.744474865179342 10.405766358452086
