28
Energy = -109.54287237 eV
Sb 16.426203573433327 9.981371578319642 15.247856855030474
Sb 16.640455391841794 13.059647835632845 12.053167527248487
Sb 16.149245344963628 8.594995469592984 12.705256523987067
Sb 15.583319854167888 12.676681612950569 14.682174102759141
Sb 16.017558097308672 10.593814186187208 10.639931307405643
Sb 14.771518437281806 15.258913941566382 11.70784943122897
Sb 13.621294887443444 9.513812580232896 16.03639980820677
Sb 13.609384237301759 7.678460877311496 13.783574597369036
Sb 14.16345040722441 15.114899879175569 8.89814498191313
Sb 12.924518193875736 11.648355462669986 14.196344274010142
Sb 13.200034762215838 11.029292650334884 10.696414350080262
Sb 12.146004309933462 14.198764218441545 12.290412647396435
Sb 11.700735451314552 14.15316867759657 15.138941538216057
Sb 12.09664205403046 8.50885098120051 9.66641980965755
Sb 11.353905645182877 15.978179107373798 8.795838789921387
Sb 13.47101561333026 12.375424378403421 8.146623272815475
Sb 10.190231109860033 11.972808109400967 10.7578851533686
Sb 10.627401768846417 16.48735715540717 11.551170802476607
Sb 11.158841192980958 8.124796113780265 12.34326218401119
Sb 9.63334459749859 9.867304000913174 8.888295707422557
Sb 9.025898251662431 13.31449081256329 14.518164402011086
Sb 10.693943530678673 13.219664384069109 8.090208373186748
Sb 9.938557908144464 10.561353421288445 13.62738148298974
Sb 7.721394740790849 13.23613439773364 10.233135565278076
Sb 8.180163388565171 15.101331391662937 12.430651786222134
Sb 7.316956801743408 8.766599171045318 10.28064865941968
Sb 7.337621208842709 9.482482747597132 13.059745271807671
Sb 5.951115648354787 11.151801266366986 11.184857203378282
