22
Energy = -86.63989577 eV
Sb 10.82928281003994 16.60671338913472 15.739774344690598
Sb 8.973211370667658 17.16675064618466 13.568271055018142
Sb 11.574642015593819 14.119237674244284 14.439314853982653
Sb 9.736297834911177 14.670931789986128 12.29443052052953
Sb 8.008978364211835 16.31444179173931 16.12743976817121
Sb 16.407182442985143 12.375402970283647 8.923003182343134
Sb 14.337218927676425 11.466058217695252 10.768106579646407
Sb 10.09679705624492 12.347449206924967 16.087776922545284
Sb 7.451084277078245 13.155422712290084 13.025687157234584
Sb 11.066786072870997 10.798484573735326 11.964751349881128
Sb 7.483640403742103 13.507481487838385 15.86869173171275
Sb 8.91669165594684 10.792116182872027 13.911923693341
Sb 11.417719636898095 8.225301097636484 13.17390545068481
Sb 16.26710011638185 10.490345049323833 6.768605476933732
Sb 14.399042342461113 12.670114163469433 6.84777987289852
Sb 15.290016792122048 8.786778859614879 10.580297011355615
Sb 12.356583191015973 11.751681759878773 8.71339602105605
Sb 9.4309664409926 8.613101729617275 11.081222286709865
Sb 13.188311326723692 6.938309753653164 11.251556149597706
Sb 14.863015520292118 8.215653903580685 7.82732057526724
Sb 12.249310348208244 9.242997923830671 7.3774683356700095
Sb 11.184047882702252 7.273151946232604 9.187204490497116
