26
Energy = -101.79692448 eV
Sb 10.046714440034041 9.792173024424136 9.02679033222375
Sb 12.67848378136349 9.580540054503054 7.926978190461245
Sb 9.78594331730969 12.646243632812377 9.409520652421191
Sb 13.82377960664036 7.308106873956635 9.280960207996513
Sb 12.324964934394934 13.788025042384502 8.679843309494455
Sb 9.902992418691305 16.501777141951198 9.798581694429997
Sb 12.248671427022114 6.803491204761028 11.62809725915505
Sb 10.150222279888196 8.767228568363956 11.704499958707057
Sb 8.315744535184745 16.181490185432555 12.208280220126547
Sb 14.200288320118899 11.754982015851875 8.947472877543685
Sb 10.06134465640587 13.055689831783342 12.313410275215034
Sb 8.812100071945224 18.8186544263593 11.217368775095988
Sb 14.730777375666795 8.245070346742386 11.860749352729645
Sb 12.687895008823178 14.130866100454675 11.929752905316336
Sb 13.961702261947002 11.044434184595476 11.84297580744281
Sb 11.476288000851282 10.71929363702905 13.320906952254798
Sb 10.444909525964334 17.755066560450317 13.362331746239423
Sb 12.31699575793819 16.913801827876743 11.313687929389221
Sb 12.933208378766505 14.691098726481055 14.877451923121336
Sb 15.93017081735985 11.423811299881324 13.993287945358837
Sb 14.091701512036236 10.308890145028506 15.825656250260772
Sb 12.232916178863288 12.411695555960984 16.41443970896921
Sb 15.693001775255894 14.224251495216066 14.48958367580696
Sb 15.869761250230567 11.16441925527982 17.98441759936879
Sb 16.46588464379825 13.890106147047604 17.248899919300413
Sb 14.01011633272389 13.275371324596536 18.59063314079489
