24
Energy = -94.08464992 eV
Sb 15.614916191932842 15.869948232608767 12.670733607680654
Sb 14.294605479623861 20.342986133113264 12.983746804496038
Sb 14.989323029671354 17.994205798699756 14.501807139366738
Sb 12.92571618059558 14.823723787203674 12.595298560823233
Sb 13.270977285875741 10.956943004040555 8.635021291979513
Sb 12.870946014988183 18.86799243949557 10.965536746526107
Sb 14.780282315348346 8.617814611858744 9.034720015841835
Sb 14.98155324929573 17.09151898992809 10.16669899437673
Sb 16.12026198911348 12.038123919055275 11.860836438841893
Sb 15.296020037168224 12.863149418285964 9.236355949153282
Sb 12.252774222262968 18.47967323373174 13.750417896040261
Sb 16.139821756362483 9.15483273020661 11.480706554517697
Sb 13.481766839704886 8.105885680142599 11.996771151802285
Sb 13.222551596979516 14.811144582700305 9.70378685955506
Sb 11.898362327559914 8.180734214010936 14.68144084178717
Sb 11.571237716257729 10.629535177759804 16.04460423401191
Sb 12.284663789502105 10.637152600177348 11.382524130467779
Sb 13.68402250639981 12.153052124963295 13.358582186846297
Sb 9.519329699989333 8.10819164557366 13.180601452392672
Sb 9.078967192605603 9.831339595437694 17.370715536575503
Sb 10.01442007232365 12.343418745720781 14.326638786672305
Sb 9.451274589574151 10.741733229861213 12.070338033733309
Sb 7.574111692766419 8.676934047896177 15.238313353074885
Sb 7.527299659745718 11.525171493175455 15.609008869085015
