20
Energy = -79.12465455 eV
Sb 19.543544426019096 14.18243484244782 12.085558079096648
Sb 19.270995416336028 12.310501220830911 14.244661237934116
Sb 18.929225693995598 15.152597526303246 14.728014481417558
Sb 17.04076060901192 14.160702697847642 10.679161266556862
Sb 16.043308041680195 11.672660529576142 11.667816971307417
Sb 16.388163013912532 12.005449764553664 14.460786252405548
Sb 15.741770301196125 16.041443116282434 12.354417297836747
Sb 16.033133490605007 14.814643785910619 14.910043001449758
Sb 13.216229765872036 12.406129782576505 11.64719838986199
Sb 13.211387292532205 15.291462285835015 11.200603704127452
Sb 11.648290145188568 15.502753365272417 13.61920180526911
Sb 12.937389409226526 13.02048891936107 14.455588365361075
Sb 9.677190624364835 12.303676485460349 10.821117596768122
Sb 9.165936076229315 14.50949679360554 12.551206226630539
Sb 10.726650218373194 11.216704021374364 15.070476567844924
Sb 10.537113367167782 10.119189823949968 12.466307505166148
Sb 8.66107751980887 13.185671068943385 15.007915007868037
Sb 6.919614860570202 11.405231424448997 11.17347698318021
Sb 7.802361401738958 9.216652320336937 12.863879043043747
Sb 6.540118416942085 11.516370315853866 14.026830307644879
