23
Energy = -89.46213282 eV
Sb 9.725594268716863 14.892954731836799 8.58137181398349
Sb 9.75019567738309 12.615471342862422 6.788420453218451
Sb 9.464624939695526 10.009491248735703 8.042052723029212
Sb 9.594131797963652 13.067337377187558 10.78353015527731
Sb 12.241448708642146 13.757259381050702 7.658359184509004
Sb 6.815739952446771 12.344083894642852 10.867463441255383
Sb 7.543318734008019 9.65446664774391 10.219823559749845
Sb 12.14938422053956 9.744807129172017 8.960249205434577
Sb 12.847879817826316 12.294446309873672 10.10203689516056
Sb 11.85010763409741 8.301193584033003 11.430083252226519
Sb 7.1534061731240115 12.533954600807483 13.733243786336834
Sb 9.148177787293779 8.669444389944918 12.394541344160155
Sb 9.26415491933709 14.508267838535497 13.298415941181936
Sb 15.585929082932182 11.531837397686822 9.255133553314934
Sb 14.682185250152834 13.251624910082906 13.046177264998786
Sb 11.340465163896253 12.461091754817813 13.68421909881252
Sb 9.220401054506722 10.646221288346695 14.471641410746505
Sb 13.595630211648063 10.38722916768643 12.68160866467749
Sb 16.996184813909416 12.188866379817448 11.671648378388657
Sb 16.003536496406042 9.517293407324972 11.27425327933799
Sb 15.228684648208022 12.346834565322688 15.742074570418698
Sb 12.433490940434691 12.083371335422335 16.383498615551705
Sb 13.940443613650594 9.767567223884564 15.505269315048984
