24
Energy = -92.2482199 eV
Sb 21.123828883973193 14.133619449163538 13.01487000996769
Sb 20.047370661649165 11.988807846809685 14.639579429703844
Sb 19.164506018901083 13.510514756971922 10.917731722292785
Sb 19.59355503578248 14.706088885416401 15.348092525110221
Sb 18.116250269233618 11.366977957443881 12.557216438266181
Sb 17.66451094757575 16.025483437214312 19.09337949074263
Sb 17.155870835430907 13.845813332445058 20.848845288886167
Sb 17.124588531785967 16.572882952667328 21.83080726520506
Sb 16.609875719398598 13.750163131035151 12.151190664661264
Sb 17.116243257395467 15.576293792985226 14.268749126680303
Sb 15.448907056291253 14.204766120164177 16.20685039073836
Sb 15.263947076159058 16.66054412820804 17.702445906984305
Sb 11.478768689963564 14.011663768819663 9.845722854949198
Sb 13.233099196464098 15.77195154547709 19.485213886179906
Sb 11.120384696426726 15.914005381181047 11.773529981462225
Sb 11.45476573965042 18.553977050125592 11.147122823734842
Sb 14.263619664562448 13.715288554303477 21.162392394811626
Sb 12.473212086172845 15.60335468471966 7.891115781487749
Sb 12.453113487578543 18.249642964072166 8.644632611976403
Sb 13.294182292253785 14.986309166216206 14.375519818362116
Sb 14.208184811716762 16.461169945762375 22.0785511173927
Sb 11.171216369525554 13.294679051810036 15.33232041141996
Sb 9.504358428857476 15.287361284556745 14.08049335979203
Sb 11.328595936656559 16.003962334983484 16.217662697834026
