22
Energy = -85.0321369 eV
Sb 14.025757299760638 9.304384799808709 9.646506644130467
Sb 13.510737362266598 8.804590667728089 12.436686338064979
Sb 13.080379008084678 12.90685943091027 12.310319311097146
Sb 13.927671283670362 6.006662798758391 11.693196204939644
Sb 11.1985229500898 7.08007578040004 12.370048631081024
Sb 12.101693904895987 10.890856321565602 8.187303126623243
Sb 13.050343299255118 6.6587001050963845 9.070155238636513
Sb 11.346095134727433 13.069251681588193 9.965496427047349
Sb 11.263710623625684 14.040860740623506 14.224539847538283
Sb 12.312542864957237 11.335884065385132 14.62528782198523
Sb 10.245237129531194 14.00773180504559 5.727164149988179
Sb 9.729035952371063 9.224310836626637 8.073762904297713
Sb 10.017370652628815 11.055590819310048 11.460962806098637
Sb 8.767196743603952 8.179398465957792 13.907801163291245
Sb 8.562823523222985 14.288814421013239 8.017132703272589
Sb 10.085115127202542 6.84767085445568 9.74061018924286
Sb 8.734938100731226 12.864899309780153 13.307055927765317
Sb 8.221252080538562 12.063685891290698 6.243539403806467
Sb 9.493124605524152 10.738447796333942 15.11111634689044
Sb 7.769848339347139 10.514918519811525 9.797359094056336
Sb 7.6521984880088 8.02296508156244 11.339499582176806
Sb 7.491033888118111 14.702277451349135 5.385970607834861
