20
Energy = -77.6533857 eV
Sb 17.719973974301947 11.788802762769018 16.65663083487778
Sb 14.541675840927677 9.7156395878001 16.752072019027327
Sb 19.217810031278475 14.1671695939294 17.240667306234442
Sb 15.339374386536017 12.026681261406885 18.218305042362537
Sb 19.273180231420227 14.521905185699291 14.382778019654985
Sb 16.924512298360554 12.707290258251774 14.072256744305841
Sb 14.010862506059961 10.636355256242428 14.0669379924558
Sb 11.83760789800258 10.18133763251845 15.927365311040623
Sb 17.72424288319813 16.302392439610315 16.036638941431736
Sb 13.844257301774906 14.148239630738466 17.009500027574777
Sb 12.358630809634878 12.828444711456424 14.96110564270352
Sb 13.54027842046834 18.268476773251844 19.970487354758824
Sb 15.45247908199065 15.038456408075621 14.819249828079853
Sb 16.36233325481073 16.232328470574007 7.314967669916614
Sb 10.95410020649611 17.32506389848649 19.222569627516744
Sb 13.713500896460024 15.29314981937797 6.824426840844021
Sb 12.42652863608231 19.003760303467566 17.44643824723459
Sb 14.179467735820603 17.259277354736522 8.83831762028732
Sb 11.3390977355928 20.08569898432639 19.855914860472968
Sb 14.446450326426396 17.948873698678742 6.082326046357093
