27
Energy = -105.71404172 eV
Sb 12.612795648041198 5.994864392174543 12.783718200853365
Sb 13.333456630655126 6.295598732002477 10.003433164271673
Sb 15.345234226802646 9.137995202426648 12.276283133538515
Sb 14.185637961151174 9.022327914338566 9.625657902085248
Sb 13.179152807205629 8.520781658402704 14.059404770411913
Sb 10.577939758639928 6.399381988459092 10.832664265915664
Sb 16.683825476835352 13.518183482868576 11.381107954403982
Sb 16.677660387276248 13.499939288441249 14.255994957380299
Sb 11.493769926314508 9.780444180114568 8.871473275600628
Sb 9.857556537288149 9.277413113322698 11.190605770503407
Sb 14.736568682597108 11.926407025509299 12.766158651297166
Sb 7.606388266957328 11.280287789718882 10.427929745450466
Sb 14.663132522916314 15.33831557856955 10.409833878644884
Sb 12.316016377241066 13.650472490221457 10.844941523384843
Sb 8.668893905817246 13.079925277548748 8.43261736475586
Sb 11.548627503602496 10.73261358884145 13.06573798577697
Sb 11.547845472310216 12.605992555735883 8.26084385228196
Sb 14.596675487653508 15.330899889564625 15.061621874942588
Sb 9.142119061071634 12.940249123776125 12.164337781536652
Sb 14.336749189170023 17.018590157624203 12.73478296742103
Sb 8.30080331066076 15.101619999316569 10.488840077947444
Sb 10.997419879113382 16.193008691396678 10.461799076140267
Sb 12.186511255894084 14.041849581077763 14.041646809974443
Sb 9.877442009870377 10.68141892917353 15.487972247206343
Sb 11.481082315908779 16.77393544870333 13.261460998598134
Sb 7.994413016726528 12.782292797209282 14.83444140931758
Sb 10.372580215850638 13.39548895703278 16.29498819392944
