26
Energy = -100.56778888 eV
Sb 14.864997785646045 8.153750934705776 16.847454439707786
Sb 16.339941070121835 10.423578830195622 16.94578773738217
Sb 12.177598913881196 8.83785837582757 17.26888883757483
Sb 14.509753276015463 12.603511092467496 17.344015645009357
Sb 12.14991425071467 11.398176821197138 18.41250491799752
Sb 18.664637024249515 13.20011365441479 12.495387903612196
Sb 14.561590763905102 11.613699471398535 14.631518898209274
Sb 19.51419545268395 12.025831526254436 10.030873638020465
Sb 12.012224038545062 10.295421788730604 14.571894625478667
Sb 17.472206051207177 17.973539839286722 17.07797143894373
Sb 20.206877565486714 14.726993897840421 10.636308163496906
Sb 15.29938420435172 19.73066623388691 17.895372824445786
Sb 10.251195757926071 11.934460476564114 16.13835111987612
Sb 17.467962052782553 20.733242049355663 16.327413548220267
Sb 17.498609773760776 14.050900395658088 10.033152804568081
Sb 16.422967292945607 16.469238446654945 14.863054958989585
Sb 13.658772588436578 13.643694797214543 12.66034383773341
Sb 11.45936271686719 11.951146076378922 11.946572998572195
Sb 13.836690249699474 16.335000332266034 16.089337591396085
Sb 16.59343674415757 20.919593122932078 13.600948212080375
Sb 10.055135250666074 14.629182993476455 15.21423329611578
Sb 9.146212427949829 12.877233727637307 13.16410457113496
Sb 12.201902924560862 15.81805499386941 13.76700350889526
Sb 16.07130341105903 18.264548638767483 12.648817856638797
Sb 13.166741349664127 19.119492307788093 16.081760667269464
Sb 13.893493708888032 19.974140478763207 13.44078799178444
