27
Energy = -103.50860367 eV
Sb 15.46190921901587 13.640170989580719 16.044694046208665
Sb 7.643765094117806 12.602653853235187 14.537200147187209
Sb 11.968407801905423 11.233707718818874 8.538781279450427
Sb 8.083404949824049 7.554057343757588 9.51393500011921
Sb 13.562710038510058 14.457285830299574 12.14843223293833
Sb 13.073709897128962 8.822927621717072 14.590072739517234
Sb 10.91810257843009 7.446581329908995 8.763467550748663
Sb 13.011755201208645 10.180466018991236 17.134470232677153
Sb 14.786856592314992 12.221804047430723 10.58017598191215
Sb 7.407077800420316 12.179658408797552 11.708707446876968
Sb 10.188127116784615 12.795969530518784 5.885298020802485
Sb 15.101694250619778 14.847946785273308 9.55597959373893
Sb 12.024274027903845 9.131711656903123 10.719964266247983
Sb 8.017550526371839 10.285279907904703 8.573127691059804
Sb 10.203607011747764 9.75131202227937 6.791632400050886
Sb 15.798109581737533 16.457997011378506 15.517307724192788
Sb 10.601781253025113 13.797957795352476 8.518540184474043
Sb 11.829902529966324 11.527881917367663 13.391872930918755
Sb 13.26390963280345 15.223937128608222 15.243600487274163
Sb 11.069165452397511 8.211729614858719 16.41025403029361
Sb 9.563983242783245 10.338599346612737 14.809536440373481
Sb 12.798527246728264 13.452175626865849 6.70149189081626
Sb 11.243323538765319 12.314523905364684 16.1070561543069
Sb 16.156078646406176 14.504195603931278 13.345314687709262
Sb 17.32677776136472 13.52333319551209 10.685550744256696
Sb 9.111469732000263 9.708476387400331 11.219288270657911
Sb 9.641164275646876 13.606604396913792 12.819132896800179
