20
Energy = -77.53057228 eV
Sb 18.644716949637285 13.856078647140217 13.913911380910454
Sb 19.247441252403878 11.280112767366884 15.378253391363206
Sb 20.720230405436794 13.600509356556454 16.62573287857619
Sb 19.228675657725013 15.94646743953953 15.832327415580336
Sb 14.247694098366212 14.403777805392782 11.011356508242827
Sb 14.916179303823347 17.158697435794327 10.401575781522657
Sb 16.55941457306054 12.411073767024382 15.055124300708329
Sb 14.958602819668604 16.24710113278348 13.129409211737212
Sb 17.039279337812566 16.10095258672189 17.51400979495092
Sb 18.922671982350913 12.126258371124875 18.161784264974052
Sb 16.356831129848334 13.446057641262037 17.772231037429343
Sb 12.27179176891986 16.18612435772374 9.869939072309265
Sb 9.680041397052635 14.366497342656148 11.885934496586845
Sb 11.818875924655961 12.81584876823939 12.980480244564081
Sb 10.661888649662956 17.046673741819745 12.063232292831442
Sb 12.47126584412609 17.065229634891768 14.283718501191258
Sb 12.422228012885938 14.387747877684124 15.29259912481583
Sb 8.00778628300247 13.988422529083582 14.188156065178141
Sb 9.665800008116998 11.696150670485093 14.726420414741588
Sb 9.805445893949782 14.01898780729168 16.424886787753884
