22
Energy = -85.69879013 eV
Sb 19.30418658265797 13.088233442612434 14.234488555650932
Sb 20.84580130765498 15.475718143488653 13.634513348425333
Sb 20.106985604367843 15.051262588154408 10.826728286673754
Sb 18.055998464104356 13.173808004400138 11.626759129462776
Sb 17.759727063805098 14.996133601516052 15.75749856864015
Sb 18.406513011386025 17.05207517111162 13.852291988388009
Sb 17.40064175642081 15.928098954503866 11.372009260875993
Sb 15.023089818492753 14.631505372536042 14.943304633221073
Sb 14.510295034033893 13.261365470043769 17.387898340173155
Sb 12.719687818434826 11.459070702157518 14.145644056470045
Sb 11.835902955526683 12.366083882938938 16.720798662938446
Sb 10.884171674704136 12.821422697779958 9.914679220747287
Sb 10.140708281766583 10.20710634878723 13.651163229059199
Sb 10.61812944293046 10.118104639186877 10.842634901154225
Sb 15.16252096643221 17.60301337051744 18.476850671135313
Sb 11.446539553619612 14.033998758044198 14.420020282998438
Sb 14.649374155528504 17.3876870325946 15.647373699255303
Sb 13.575328416547915 15.315078007379078 19.1416258055465
Sb 8.373456679287088 11.451488248819597 9.657125477911162
Sb 12.466238820043998 17.395111870825055 17.502011357296958
Sb 8.854150632192129 12.742939209648945 14.034813970179405
Sb 8.591797144697694 13.740242453094769 11.376468077203768
