24
Energy = -92.90982609 eV
Sb 17.938357967239018 9.490136717968513 11.680763661966894
Sb 18.70957881421795 11.15233591155008 13.922826276350559
Sb 15.368211875313147 12.669691862239223 11.943405123482432
Sb 18.059246987416973 15.219502022937201 13.203258004718004
Sb 17.22715551327003 17.535495966369457 14.668369232226405
Sb 16.618219512272617 13.074774649682334 14.46894651992359
Sb 16.924411201250912 8.92050599171443 14.2757279017631
Sb 15.111052303807279 9.810325380117995 12.193003872232843
Sb 15.9933850558029 16.944386849637677 12.122215691617601
Sb 15.773217275952282 16.535032844108326 17.034846794405865
Sb 12.8083070218233 13.397307911531891 13.044571506535297
Sb 13.656383612287636 14.727918230279263 16.358064554857332
Sb 10.281144703554574 9.626881377940979 12.588697694274204
Sb 13.272731678866164 16.256505041124896 12.758043738493868
Sb 8.611596981704002 11.789197842355778 13.609554641357292
Sb 13.342382365980272 17.43450542688034 15.495226198492437
Sb 13.929186032826022 18.14898934109984 19.10629060342306
Sb 7.216759218024667 11.925131540849911 11.064458752706978
Sb 8.8950505922007 9.758576026064766 10.04495540676443
Sb 9.021234005393971 13.978138234293285 11.836786126478485
Sb 11.573204598926386 10.688351680843681 10.285068456485915
Sb 11.473288842309856 13.520513752556072 10.47662665494048
Sb 11.437415092485095 17.9345489464889 17.89386354568641
Sb 12.601417408079367 15.609118016788127 19.042931142421818
