20
Energy = -77.79335178 eV
Sb 11.413819313359875 17.50068813055042 15.662839217492326
Sb 14.099093795165038 17.490911217307065 16.713985394307223
Sb 10.049306548214211 14.964349631788776 15.720919901722796
Sb 10.091796401138401 14.29190157292041 12.914877750470238
Sb 14.763395344156168 18.693666891319207 14.114169868599484
Sb 12.243298607559057 17.818306218743885 12.934922785792917
Sb 11.599372143751754 12.63620711585158 16.52856894425189
Sb 15.976369612251395 16.262465453811952 14.957620395564359
Sb 9.996811633043778 11.734189670264191 14.304791909955135
Sb 12.657693308546722 15.15671431541818 11.940942621313877
Sb 13.401245026434882 12.352174847249524 9.551969386401499
Sb 11.667630713217608 9.63501781342656 13.294440243491453
Sb 12.051196919435455 9.983035645749192 10.486470211254383
Sb 14.342278723202636 12.65390850912136 15.691963286171275
Sb 14.944464739413952 14.140089414651229 13.328449076581594
Sb 14.20672122745065 9.974917371968377 14.600795934296078
Sb 16.028809674208663 12.205777465685903 10.660759085160892
Sb 15.277409140844512 10.380339935372163 8.50500801168948
Sb 14.438744769113443 8.403957205527446 10.518139032394785
Sb 16.04726509549314 9.89796692488892 12.383310556613818
