23
Energy = -87.47273359 eV
Sb 12.590322829301824 12.65381687399514 10.637901748881154
Sb 13.185071994055455 14.901778968409648 8.83584519266193
Sb 11.981729560151882 13.408376557629055 6.911730390214133
Sb 12.785057700584268 10.749986701222152 8.045003343355166
Sb 12.412294750679909 12.594114155893424 13.599348719024759
Sb 12.56010289038611 7.9665893163218815 9.733741063888854
Sb 9.650994346105534 12.822659874627464 12.882865527730932
Sb 10.146289048146018 10.137431647592134 11.62753581773101
Sb 10.371160745917427 14.473827423419337 10.540154292037515
Sb 12.86181567731744 9.81771585544586 12.505149901651205
Sb 12.954187855433423 5.552725016142509 11.388752669084518
Sb 11.85164812367658 7.171223586192062 13.551750130574963
Sb 6.813797764658717 10.634763986217406 11.97940397313301
Sb 5.576091270938119 10.84563843562519 8.388465223897123
Sb 6.995072652935414 8.701028570082544 9.78313788472866
Sb 9.272818430206893 7.234036318859529 12.256310483445477
Sb 10.278555394394367 5.297604220680657 10.420553825761857
Sb 9.055842429792614 13.082801001835566 8.378488926458491
Sb 6.708086855730269 12.8650468816981 10.108005124287386
Sb 4.4180290376579 9.55964395092945 10.704696055373217
Sb 10.010520787390002 10.290499623030387 8.660040963183352
Sb 10.389033806156212 7.1968992070270446 7.937125614962563
Sb 12.971179014659933 7.821350403273881 6.90361775960206
