26
Energy = -101.7784725 eV
Sb 6.577539785063016 11.05045223785321 11.43848366583013
Sb 8.039877437551592 11.63612953044233 7.818317089718363
Sb 7.009749424410125 14.078460307661409 8.893449988878489
Sb 7.239998676975408 10.442273791228303 14.166466851175793
Sb 6.988070654215619 13.883444955886592 11.814563146004899
Sb 9.320659782944418 11.01133914701324 10.47130186077741
Sb 9.319566284777693 14.192928648632584 13.588967013513573
Sb 9.538749023198752 14.094334402919724 7.53204577091792
Sb 8.662711891464312 7.934179868689391 13.790740771757742
Sb 9.904070643268055 11.336060970353046 13.459351371826612
Sb 9.629432409554632 8.163968374568498 11.039659133397018
Sb 11.168476987505144 15.435324204445921 11.75259172829123
Sb 10.521021858331109 9.333423987282524 15.515913523295607
Sb 11.481652307732038 13.570303151722184 9.595408390637495
Sb 13.522671990384046 14.191753849817244 12.838169696173356
Sb 13.760413583989022 11.05328654579859 9.410694407185897
Sb 12.897760105705688 11.480018872093842 12.083723259259177
Sb 13.55224561443639 15.257595916227457 8.408521172446221
Sb 12.990047503475111 8.141612962188635 14.61649065912543
Sb 12.058406574443262 7.064380075762634 12.143853656371226
Sb 15.916534869005007 9.148812933843116 9.637795093416466
Sb 14.630823215764797 6.861466772717622 10.838302571133934
Sb 15.237189110432212 15.222301700258626 10.74987694843627
Sb 15.569554383035191 13.2128848731948 8.753681772981702
Sb 14.744673614274694 10.329716942298063 13.932163970344732
Sb 16.399159578146104 8.554602287183528 12.39052379718675
