20
Energy = -76.90611029 eV
Sb 15.515862788728162 13.492427452836287 9.670958156998882
Sb 12.74528354768602 14.252350587676636 9.544189412673257
Sb 14.570624484783783 10.729639809644114 9.80187517469178
Sb 16.70363440779187 16.840044465069564 11.61530967472279
Sb 11.84279556536576 11.589387181526773 10.24395147152264
Sb 15.104741666354208 10.956821447395459 12.674732212723244
Sb 14.034742537968436 17.875057861056693 11.151976477594356
Sb 15.196177575730479 17.922714533684083 13.809897269802546
Sb 12.493295889387714 12.121399710156695 13.053682852234871
Sb 12.149785107034525 15.820872542297959 11.868101011681837
Sb 13.09100721870248 9.538143215119616 14.103745600560446
Sb 11.248230356718523 11.256678595414051 17.09488300801724
Sb 16.839575847992066 14.033607313015947 12.194474521177922
Sb 13.997860757528727 11.309034487160643 16.35746798846849
Sb 10.179319929765544 13.90304820604055 16.963434779119584
Sb 13.718123624126585 15.472103463476081 14.294404175539281
Sb 15.616287305435414 13.458216600489834 14.86068527024213
Sb 11.78472646075601 13.07591212125081 19.260957236172406
Sb 12.369657744367071 15.764891529577536 16.856139415888713
Sb 14.268777322869877 14.058159016203287 18.04964442926067
