24
Energy = -91.56029997 eV
Sb 11.334631743071611 11.16529665930712 17.45905753396555
Sb 11.528505798727156 17.37836654272702 10.739223176180431
Sb 15.019780377206462 7.652432051276155 8.837400113746867
Sb 16.10224439760523 10.855644842742532 10.573581274582025
Sb 12.064734761664699 15.102976450098662 12.556078324309858
Sb 9.718829718535297 8.051522338632747 10.795110704586817
Sb 12.097859090893197 14.898417963502489 15.423637615570165
Sb 11.299630701639158 10.543162086425516 14.589085099942238
Sb 13.475415484842634 13.36044333089919 9.226761356106866
Sb 7.550338991957503 8.744823344021906 9.037727106615819
Sb 11.946767381511098 10.966128744685946 8.855814997921584
Sb 13.725410951678873 12.825424413856872 14.692870212872672
Sb 9.480375767900329 12.402468794990618 15.67568804455263
Sb 7.578090813667849 11.213419712875373 10.585332266029896
Sb 8.897582678632109 16.938788888455683 11.666658156528934
Sb 14.502166265722138 13.652404053428011 11.961859667627126
Sb 7.079371292644255 8.633723050840464 11.834818749849951
Sb 16.8028952043913 9.737308791574238 7.968613110241965
Sb 10.37105456477735 10.870403977713215 11.268565840217533
Sb 9.228921308602466 9.579113989649297 16.419979806810332
Sb 9.501609173273636 14.199625048969297 11.334425315288192
Sb 11.125708017045723 15.015800664895457 9.075506395497888
Sb 17.43298129041368 8.242001359943407 10.29682232641677
Sb 13.5980323782016 9.416117080116026 10.670209820747928
