27
Energy = -104.44303218 eV
Sb 16.465884747324658 18.406825625587196 17.80543699236447
Sb 17.409204136488285 12.208897591981689 16.993018574042427
Sb 17.840817582826094 20.396010925799136 16.214349772090586
Sb 15.296278586059842 11.365796431336516 18.748542892458914
Sb 13.966431908096716 19.081440261759386 16.581890149583852
Sb 15.269922356712728 21.098700421712973 14.969813270645215
Sb 17.2654005750201 9.46152798146949 17.906315334758045
Sb 16.588581158232792 15.962312493913968 16.24150058513203
Sb 17.026917711678102 10.057515562095993 15.085672115014008
Sb 13.017245938307545 10.607243439832626 17.17853773932256
Sb 17.252654440109666 19.642468575074318 13.534701262665843
Sb 14.21640718497254 10.363311663787254 14.547437472745328
Sb 16.502659432234356 16.872191567119057 13.529450010620023
Sb 12.10271274248017 13.23354762727538 16.44676918049659
Sb 14.032377743608599 16.669488589888104 14.953368882429572
Sb 14.674718996211572 13.165869212388207 14.751384557993013
Sb 16.642315062001163 12.674929431416645 12.38665002574775
Sb 10.062447431936588 11.902980101753727 14.982181481445231
Sb 14.743867606184436 11.084693452551505 11.057460961317547
Sb 8.802981267968551 14.4302439152739 14.394494922674419
Sb 12.83848460419378 13.715985013092977 12.477583587632088
Sb 10.915252362926752 11.6496252085663 12.19219280129712
Sb 16.304912930594913 14.8000020698672 10.4237306487615
Sb 10.853117222704922 15.8104462218303 12.949610579330031
Sb 14.958948078832286 12.847183784083022 8.748629315393611
Sb 9.126682730105145 13.917297948129844 11.570585869435384
Sb 13.453638734646534 14.957057151050153 9.941172247493665
