25
Energy = -96.34192672 eV
Sb 13.850341830510772 13.236287264083046 12.844624108535344
Sb 11.93809355450029 10.496940072965588 16.186926208589828
Sb 9.3054158270299 15.646009373159275 9.269264146543645
Sb 11.868465085082109 16.80026944463313 12.391544365339337
Sb 9.557568853048089 10.312793540723808 12.500814733832808
Sb 17.044906839691826 11.860363763343038 11.255943066666902
Sb 11.063129973705243 9.580677794239328 10.219274114493844
Sb 13.755042508713629 15.820470144330377 14.29649496188225
Sb 11.236470105924386 14.225962976610942 10.902726419440029
Sb 16.269288998690598 9.158624714807369 11.868061148076851
Sb 11.164556360082225 12.041340044687749 8.751745193816646
Sb 9.426399876607324 16.668813561166946 13.786130634096459
Sb 12.16050602292554 14.85561295407944 16.467689314527654
Sb 13.32557266684944 8.673524770798787 14.406287503787002
Sb 13.837518759922691 12.468271053377379 17.0710247545603
Sb 16.03495655362276 9.596247111798345 14.731360944397855
Sb 7.658488757396807 16.180657996732705 11.596084441810373
Sb 13.484458691099116 10.154402189224198 11.906461669535041
Sb 18.478339115066003 11.448439123641247 8.788039475792548
Sb 15.727742282639582 12.467288465994622 14.88686450703768
Sb 19.876957247052285 11.389008613899898 11.053979862336188
Sb 9.680870938371648 14.025510791215204 15.134289612666944
Sb 11.367147998741503 12.045209918271226 13.899909828765303
Sb 8.425190210661027 12.845248829953526 9.060423543202104
Sb 8.693427062759703 13.232881606957147 11.95489156096085
