22
Energy = -84.76164214 eV
Sb 20.17972849425971 13.845832441994252 14.94045495927139
Sb 20.537556518142264 11.077793502637935 15.676335419849485
Sb 18.69904051378639 11.817790553391351 13.595360685387874
Sb 15.632816827373802 13.994008036453577 12.170940302458984
Sb 15.52107228009646 16.78996890697079 11.503467058808834
Sb 18.112957334198764 12.42600085592726 16.372787021628405
Sb 12.915873965412981 13.208892374987474 11.599320992496395
Sb 17.24231781774304 17.89876499647919 13.509476743528129
Sb 17.141277671626757 15.880301496523916 15.291265793568146
Sb 13.770567201584583 13.482174020143452 14.306193318628589
Sb 11.692257524761029 15.715586665492063 10.945573496862648
Sb 19.546263908170506 14.64792154847377 18.44212637066234
Sb 13.022712673794286 17.571294011100168 12.651652187266611
Sb 18.759022776188985 17.170566124021892 17.282235603925873
Sb 9.00743553975387 12.68578870081778 12.634391778429592
Sb 9.299450470148516 15.534051192503386 12.556252268345846
Sb 17.220793888308513 15.759131205656223 19.236380824384188
Sb 10.579341313167602 11.653808937884367 14.798482649383548
Sb 13.10694960287906 16.13889041564718 15.10731715782905
Sb 7.787952594327984 12.324550991684717 15.211805337619156
Sb 10.215504562525505 16.203546356694087 15.18254387704445
Sb 9.852564975464142 13.748946735862079 16.612538841237647
