20
Energy = -77.78145668 eV
Sb 17.298402526413792 12.236589659410875 13.706824597513346
Sb 18.027871668387622 11.200057243072568 16.32266709818284
Sb 18.207935633458987 13.957747827829294 17.352179396707193
Sb 18.4610439505824 14.711556804149177 14.60358962984214
Sb 14.003513001808296 11.845951500962787 11.04239264966515
Sb 15.10678851008129 13.841167752649506 9.236889928503219
Sb 15.247418917892245 11.662165921971381 15.59976984199977
Sb 14.946565342969235 14.457860691548015 12.061726864309604
Sb 16.366402987871957 16.587273589375886 14.171109549627172
Sb 15.364828469338798 13.780501293032952 17.53957278068996
Sb 14.465439211967825 16.064738275373745 16.08272809956302
Sb 12.364083572087118 13.051075479399811 8.989946877324185
Sb 9.579999096903576 12.761359916990731 11.524723903123085
Sb 11.591330970800131 11.73043486241898 13.283794112395352
Sb 10.8342811731907 15.051906739907542 10.346497191474343
Sb 12.597011927041478 16.098035469776367 12.329192709216526
Sb 12.33195116761349 14.261020853346754 14.527136230779579
Sb 7.944981733643176 13.729158142248735 13.687635973159283
Sb 9.37883479610293 11.838042830810279 15.32262364080203
Sb 9.741820715164831 14.65388719520965 15.738326278356316
