27
Energy = -105.5604775 eV
Sb 10.08153916962923 16.57268505325857 8.696172346418948
Sb 11.753604182193149 16.225331536960105 11.02436161808936
Sb 7.819551546647003 14.798389464693637 8.850615036648222
Sb 13.63734602365253 14.373695716423164 9.8742448125983
Sb 10.19171103804026 14.014316017668824 7.400488061184671
Sb 7.632894004930916 13.818389103554143 11.55348933809174
Sb 15.146530723122366 13.838667139197442 12.337711465398451
Sb 9.932808638854324 14.959581670735806 12.861448849336023
Sb 13.234718687953393 13.983904596929516 14.518329495508185
Sb 11.561628941567315 12.439888706315463 9.397492883452417
Sb 12.584115762153719 10.756784826604031 7.2534321611729595
Sb 7.537281981478413 10.903294126629955 11.427558943970844
Sb 14.864363350092862 9.821556090747464 8.665811090688281
Sb 11.320649437046546 12.481223905808598 13.016243261933933
Sb 15.628283431923203 11.012927339847673 12.865508275431145
Sb 14.599141956094032 11.619585997083522 15.519168686274261
Sb 10.414830825276463 8.933907299791127 7.831627096694202
Sb 10.048325381325071 9.778224097678098 10.587945258678431
Sb 13.156793636691184 10.085788887192143 11.602810950410586
Sb 14.079146670736629 7.6408535128078 10.298220407883855
Sb 9.991992468530675 11.673601176881196 15.397226340304524
Sb 8.15334559835769 9.860049186508242 14.106178066622617
Sb 12.243485542508873 9.969327911048284 16.07959665814936
Sb 11.591024200807412 6.681046447617076 9.17611801670175
Sb 12.62952125358016 8.256882755856859 13.854359052699305
Sb 9.321421312334522 7.050981446908876 11.00985687409002
Sb 9.881065410633145 7.486237161413467 13.831106127729184
