33
Energy = -127.05466875 eV
Sb 11.882215211624759 10.820572880721775 10.475730609108087
Sb 12.138363742573832 13.628839309563093 10.982284898261652
Sb 15.665392565998378 21.054394931771025 10.880904299939953
Sb 18.395882913338315 12.288165612165908 13.859049921503443
Sb 12.960363574806305 10.211730281223621 13.509386787418014
Sb 10.124029756858759 10.383210807769453 13.739449539644802
Sb 14.285736405753426 12.660708519651775 12.666887107933235
Sb 9.69411564449502 12.255903116832057 11.589324746194713
Sb 17.307828978357993 19.52805570400868 12.724354815891255
Sb 13.828217495594147 20.951820582155232 13.113210144555218
Sb 16.059580656080477 20.892991252109418 14.977626460324522
Sb 16.19430773077213 11.419948799576924 15.408376245831558
Sb 14.729197072851296 18.508593599726307 11.830889373726633
Sb 18.55975171625898 15.131731379574031 13.314350197397804
Sb 9.88206607319582 11.301691218786814 16.44703482676421
Sb 12.232074000659066 16.059442209085965 13.707507308397634
Sb 12.139591754834582 18.35730837155754 15.474667005233151
Sb 21.208317495360763 14.794349193103203 14.623242342074876
Sb 15.049867412745737 18.285304202148446 15.680450565019582
Sb 14.703987018222774 14.914347973454525 14.494089085456011
Sb 18.067529279028186 17.05847646993923 15.426212207100173
Sb 12.554984436806302 10.375335257456305 16.61863618351834
Sb 20.55739956660852 12.234756731506552 15.77901296569884
Sb 10.395372801838292 14.201318250102554 15.395269597658725
Sb 20.704256421836977 16.71114488638462 16.7250765562705
Sb 12.24023259514291 17.321453585234252 18.161146719170375
Sb 16.459984144911495 12.696379387477728 17.854946655092796
Sb 16.903531810287586 15.6009990724301 17.65797110114864
Sb 12.991644160240488 13.19313337024253 16.148768525798175
Sb 19.5136488413222 15.42690007845336 18.986930381550582
Sb 15.103550559417963 17.722503728937706 18.51098013920852
Sb 11.335062334382872 14.592288018043448 18.111389616089088
Sb 19.339986712823556 12.624272103835143 18.332913956048515
