32
Energy = -125.43263007 eV
Sb 16.522254629433174 12.51913449245268 13.174154558842185
Sb 14.4143783145628 15.76142223136035 13.998278830492806
Sb 18.2314177426856 12.29379701357149 10.847622214821763
Sb 14.797303574875535 14.669909799998507 16.66367104270499
Sb 17.320608370077995 9.918229967378478 12.181576532765519
Sb 15.397870060255658 14.976929306980733 10.152419590628735
Sb 11.704348425726199 16.4966787824475 14.680912745213593
Sb 12.068284260909087 15.471309597881847 17.383193871164682
Sb 16.47594285345992 12.81571487900616 8.612934297610716
Sb 13.924284551242417 13.436393116568157 12.247433297173119
Sb 12.52009765237022 8.892748815649535 15.403472869957822
Sb 11.825923506155629 11.690921913225523 14.954866131084943
Sb 13.415910067836288 15.485253272156964 8.065012628781334
Sb 10.332345699721202 14.433535000386145 13.204529229883466
Sb 12.84137147635112 12.719700099331824 17.432783761945267
Sb 14.137318808285585 11.513949825958038 9.632177617681755
Sb 13.744303026984532 8.790933765542643 8.824865494200568
Sb 15.412732673037588 8.004150502550289 11.12193263678173
Sb 12.41770206471502 12.78959828389245 7.693257485573661
Sb 8.122362281300726 13.809201331989131 14.90332863703049
Sb 9.08863288893688 11.172681270790834 15.6977145507226
Sb 13.301249863387474 9.25954918044125 12.598207441249626
Sb 10.156333669173241 7.732244386708175 14.162131201324357
Sb 11.428716273229595 14.421159898587652 9.856942669797466
Sb 11.624140191612415 7.138279791163183 11.702199946381615
Sb 8.211849067237432 15.944380804457504 11.823307461554096
Sb 10.66370047441079 11.381696478773291 11.49349371258823
Sb 8.67912633229255 14.840158222396946 9.149963868751392
Sb 6.6608151125868105 13.565052388218568 12.40351013856385
Sb 8.67995376353524 9.962206390550797 13.131879792703218
Sb 10.894502795517901 9.036764219914629 9.673838793731958
Sb 8.113861609673744 12.185957051248558 10.258029029873512
