32
Energy = -124.17986873 eV
Sb 10.855284676262036 7.312888951024609 14.464199289163606
Sb 8.140364761114634 7.465643516242139 13.491056823422568
Sb 11.69301763112859 11.090887844827437 9.562389381478132
Sb 12.181692052219509 8.173534388843779 9.453289240746646
Sb 12.383683619490276 18.083825607531608 11.557477829765913
Sb 7.511744698796096 10.294732640509785 13.011459425986285
Sb 10.043785578568373 11.554611372004914 13.620107329415992
Sb 14.726133474755834 16.408095757534294 11.047988955753462
Sb 14.894018624624854 9.129393031215818 8.988669853264975
Sb 9.512782729985549 12.685502479264908 8.430948993998797
Sb 13.914540076682853 11.773408189654733 13.016156871780641
Sb 15.928755313214017 10.202065828531577 11.478807867297812
Sb 15.925612289737893 15.938122503087214 13.66123656086663
Sb 13.387549275186666 10.974986268183349 7.283047321097492
Sb 13.416936348444006 12.51048379997998 19.078435237105484
Sb 9.023822566623469 8.80054478373406 11.066038625260816
Sb 12.096799564602769 14.569411251948406 13.91371726441851
Sb 10.698668928526493 17.099235917294024 13.669074428376767
Sb 9.757105724721113 9.615183418936684 15.780648141258224
Sb 15.217462777262877 13.392258838851317 17.062628795574813
Sb 14.316700636675462 10.948752123984258 15.820024355871979
Sb 13.934826176061996 15.713414886120805 15.787065103087022
Sb 9.800248912711682 16.971539897925542 10.918463801739785
Sb 11.383713157535484 14.711170065542682 7.605352867249554
Sb 16.484300219522407 13.113404339526172 13.499152316048232
Sb 10.871819158593299 14.327936449178251 10.427552477729124
Sb 16.978349089610674 12.796466291291734 10.66331365422576
Sb 10.122846761043059 13.529061141043893 15.761247086994137
Sb 14.138970745769512 13.75756828002504 7.456460782710744
Sb 11.719542862515336 9.061330335579385 12.22955633718239
Sb 14.227902578728674 13.636808905610218 10.323586765451529
Sb 11.80367829124383 11.488763782005979 16.988042405357753
