35
Energy = -137.06239598 eV
Sb 18.963004533418662 12.8272664057115 11.791043362338675
Sb 16.257755093817348 8.168054434120501 13.307034467383765
Sb 16.12531838724286 8.77087470484531 10.546616176874599
Sb 18.641923068244456 15.528495550983925 10.854873233185097
Sb 13.726239935288616 6.931291040620341 14.11299562273528
Sb 18.325652051289644 14.926767237286223 13.652062077402183
Sb 16.260680068866424 11.75352755336923 11.256383593513393
Sb 12.451552405323897 6.816023492674137 11.560823521539385
Sb 15.721697399171266 10.987837724426228 13.972518997006135
Sb 13.296717045762588 9.476707563810592 10.76306943474038
Sb 12.543687193113653 9.25570697099209 15.329940322351455
Sb 15.494371139239457 14.269652137498047 13.06833905471791
Sb 15.81024410541355 16.182178572991216 10.959699436122559
Sb 14.1049411604005 12.21065494575255 9.022116108983038
Sb 12.95960376213729 11.10167755731761 13.148047284369559
Sb 14.523545049162376 15.058495091643804 8.660235632835946
Sb 9.717587459156244 7.299012191053693 12.305671252110521
Sb 10.998501837265726 9.667381180520707 8.897287793250182
Sb 12.613587581777976 15.021442431741841 13.455892650540903
Sb 11.309839008886428 12.40624281848616 8.12918187672445
Sb 11.943381015546853 16.203635621507825 9.415168686509713
Sb 9.90919102109903 8.159001245162171 15.087584894259624
Sb 12.226573218335602 17.47553068128686 12.030326044117931
Sb 11.032240646111555 13.777284643679407 10.641105656772982
Sb 11.149683741543411 12.892382122007765 15.518970816993235
Sb 8.891136055785223 9.68039021887865 10.824479246589636
Sb 9.597534278269288 11.689745544769938 12.838606938392205
Sb 11.588588415633382 15.681156472965368 16.08368309042638
Sb 7.969274032453641 10.293175009089548 14.738835917875388
Sb 8.553646024043383 12.4783410403107 16.592795984654515
Sb 9.322270867317142 17.354088048227407 12.302559724420197
Sb 8.491679934576068 15.158769672014728 10.613994477784685
Sb 7.231788791733885 13.267707759068639 12.39106742173872
Sb 9.042555032134052 16.683916409933207 15.100336312958099
Sb 7.165220971636121 14.506798236449328 14.987865218977456
