31
Energy = -120.09735176 eV
Sb 14.098276393196722 13.191834627004154 20.396139813732276
Sb 11.677206831142167 13.503183599654735 18.893106949014523
Sb 15.97022448356969 11.988698492851285 18.589680484677977
Sb 18.004156275156998 13.975743617655375 18.102432162394805
Sb 13.302857318367073 15.923925847623842 19.906735503056044
Sb 13.734310944638533 9.848426750964089 12.085867810440794
Sb 14.526929499514218 12.113161153235358 16.088367084129448
Sb 16.562013982132193 9.847122883181239 12.679454799122723
Sb 19.088127709909042 12.847133964093954 15.68351968172281
Sb 12.864191393047161 14.454603455468535 16.40734657773409
Sb 11.94103842264129 11.095306467008761 16.833675919931697
Sb 15.680634810450067 10.555919641603884 10.083743512573479
Sb 11.032787406161031 12.648594141232365 14.666246484773056
Sb 16.880544106062118 12.592538076738396 13.779446942842924
Sb 14.187065103738853 16.952140651942987 17.45200076883777
Sb 13.429128828910718 12.565695559563407 13.01868836390934
Sb 15.153342471425805 15.407693165259941 13.506867281206421
Sb 17.033936277166585 16.59207072779497 17.403994101709504
Sb 12.7666155615872 14.125172898300344 10.418138775210474
Sb 18.82830440683266 13.59979209900564 11.949672082040431
Sb 19.57670165464276 15.282455678945066 14.212040807538422
Sb 12.02768966932785 19.09587445419065 15.109464729009902
Sb 9.755950286698695 18.31999924758055 16.649342454807446
Sb 17.307330129253444 17.069846458029044 14.574043392308807
Sb 15.482891704930639 13.578400221450854 9.570335252220241
Sb 10.52796221774219 16.7902950975352 14.346585810789989
Sb 13.22836228232301 16.74332205258839 11.64133796175871
Sb 16.84793983204445 15.630018014911832 11.19233238604408
Sb 9.395218046016534 19.39792474821031 14.021696193476172
Sb 13.746231992855195 15.362677822105587 7.8003046520845665
Sb 14.827220238753926 17.394875996457607 9.33386559569046
