37
Energy = -143.7026036 eV
Sb 13.28625458235165 8.69712464545956 17.582159987341402
Sb 14.0919080030844 12.508234421435086 18.897315101583857
Sb 11.620980535442488 12.59569578476929 17.482967438926327
Sb 12.815642711227209 8.157617085538437 14.806545481239098
Sb 15.233013627827527 9.524100360937926 15.565399140797739
Sb 11.063506582185461 10.017024190018516 16.25610137972383
Sb 13.486598735204627 15.389453653430753 19.005128149066163
Sb 9.359057403876742 8.038288927304466 13.17150156547714
Sb 15.948979443172714 13.201913528620135 16.78220221979818
Sb 9.328620048032926 12.709890603617334 14.427083388668024
Sb 11.115898799751943 7.541743757271205 10.938698406094561
Sb 14.359625515572851 12.099622254272216 14.68707284826695
Sb 16.134934432834505 10.961115505299214 10.627520602243795
Sb 10.300733652788972 10.717639336989965 12.590267200223549
Sb 12.012814249480119 15.274279420035477 16.477336140968067
Sb 12.82901493801773 9.928017636511699 11.350436956542168
Sb 16.886944928688095 12.177660728508409 13.247135028457587
Sb 8.331516838765747 8.227338121035404 10.48755588759312
Sb 7.1259038925050335 12.574411113108901 12.520145156843078
Sb 14.527991147860657 13.736094639892567 10.456264478648807
Sb 14.929349006414425 10.787596692324554 7.819479881752012
Sb 18.505573410543132 14.91738384520385 10.767595832449437
Sb 14.823490959131474 15.83169107300965 16.456247736670374
Sb 11.203212253639414 14.789643159968513 13.199211873595647
Sb 12.153877853027685 10.401977166266251 8.583337593899937
Sb 16.335402270037044 14.844722694933779 12.659623401590377
Sb 8.868697854789966 16.469246625574744 13.039563013609325
Sb 8.544248325067407 11.154126303555714 10.351988660425523
Sb 18.32635885547808 12.374690277594103 9.39660648469703
Sb 7.934535467713314 14.81515104968254 10.875926432865139
Sb 10.659472900877866 13.814227318802892 10.49656902697232
Sb 13.227015514563709 12.981831362066542 7.80951535175604
Sb 16.60030931956634 14.576207309969847 8.621141191645918
Sb 10.460147108864556 18.101561115528376 11.21236401544459
Sb 12.888922022780065 17.319578093527618 12.546977374335142
Sb 13.782469894282658 16.66118098696918 9.94530093352924
Sb 11.074267932317305 16.259210228732538 9.03700565402574
