30
Energy = -117.58193274 eV
Sb 19.12366903708614 15.85326589434319 15.083634503533812
Sb 18.09231839537979 14.782968971645746 12.63517198915707
Sb 15.375196256345689 15.692928899426638 12.478871087661977
Sb 14.595223512785926 14.838244164225863 8.735867935292346
Sb 17.12783009822283 17.573064567183476 16.20319828877597
Sb 18.107158708248697 11.864740779806388 13.098217262721514
Sb 18.604075022078952 14.33750539057402 19.231671264459703
Sb 16.738275086988455 15.04490496657819 6.846446853042732
Sb 19.71555792958721 13.512777306308807 16.68838910388499
Sb 16.96440187431196 13.30842907443853 9.180707602273532
Sb 17.72483985309691 11.564238556353413 15.950983035636918
Sb 15.214587501707532 12.629325713095595 7.0327383111692665
Sb 15.72322066926927 11.076467309634277 11.834418306306281
Sb 16.945651553543698 16.668972423424684 18.941206904736017
Sb 16.066088870780913 13.873588203113858 15.987520803245074
Sb 14.109052292455438 13.098057289205494 12.881090384666823
Sb 15.76683377950314 14.03166023069292 18.846848702192684
Sb 14.600143129314361 17.092278459753018 14.844658786346915
Sb 13.44505162335508 12.683469837048545 15.634930400427516
Sb 11.632463274828776 13.904041437384487 11.637774055138365
Sb 12.592665445151132 15.347978207323749 16.078547785593106
Sb 10.221415245677695 11.449786084222977 12.053470755674633
Sb 10.813644360617577 15.684275217413779 13.803959656855119
Sb 7.8074149521931515 12.58241370008882 11.086230853738053
Sb 9.829641713935292 11.538265174662529 14.870968711426611
Sb 8.830673993129718 14.182039107207965 15.228177887007305
Sb 6.880623234549222 14.350228334926557 13.175567555929645
Sb 6.225128835136265 10.432561495891639 12.194020173466415
Sb 7.267040332846819 10.211845571729079 14.863375856083529
Sb 5.288194463222856 12.217758677646463 14.299416228908129
