37
Energy = -142.79137252 eV
Sb 3.100839348180663 2.6389881944646505 -0.18650229363221013
Sb 3.4008893112909058 2.501178078001203 16.60936592548746
Sb 17.255429073144406 -0.2851777288953531 14.236756077174533
Sb 21.299449183398576 12.463332771570022 1.9548310024803652
Sb 23.089961497446414 1.191583481223309 15.549248128071076
Sb 2.639573115019331 4.042105403236168 20.746404631750423
Sb 16.480527190874078 0.8016175039546111 16.78408595499248
Sb 20.769084546528852 12.829441815531485 -0.8703105023752835
Sb 14.039921535425238 20.967870760543846 21.268583455663833
Sb 4.826904575075724 5.764402206737296 -1.9030696005042431
Sb 17.4934237392306 22.24355290033314 18.665983315686365
Sb 19.832210651892172 17.88600354817968 3.2459281285061423
Sb -1.1007963810253005 14.916979521696364 0.7790865848700157
Sb 5.342254717132918 4.395583345360422 0.6948302754351474
Sb 15.181962465878932 -1.7802414089081535 17.092032397343992
Sb 20.14218244446669 -0.0845451886328121 14.148057434600346
Sb 19.529283852584253 15.92648020192622 0.9116269129717764
Sb 17.04084660597118 17.283737422599632 -1.2868979188352208
Sb 18.11967509036855 13.63764921109187 22.87991557691103
Sb 4.421650137867665 2.308558499998962 19.331180150724514
Sb -1.0299155046066073 16.720610389431116 3.2804367201558238
Sb 2.55987077871527 0.35119978054777806 18.270027119092255
Sb 5.778171315797939 1.7007737080853675 -0.4243359522786055
Sb 17.521123536141626 15.03067047029478 20.391130890940307
Sb 7.048554281475842 3.9996034314041435 -1.6779386789163238
Sb 19.11816832306991 20.187502827449908 16.98336989906278
Sb 20.539549669254463 2.530710789424141 15.288698610952068
Sb 20.33595179299168 15.600233953952934 4.91141245167096
Sb 16.94371532676946 20.37122020173845 15.089481317448607
Sb 16.418431431537087 19.51428903859307 20.338823083134557
Sb -2.65686763730897 0.2048963170858229 16.935021440476245
Sb 15.60241114159371 -0.10419304834819378 20.822397704989335
Sb 0.8068227960366178 2.5841416934691233 17.83978284995686
Sb 17.86858580062071 17.967664354211703 18.138473594818205
Sb 16.506164545873787 21.376937547985797 22.66704829290335
Sb 18.988383173327808 13.917217469182148 2.931667052384564
Sb 19.437958536688082 17.152896848872242 20.482097020148522
