33
Energy = -128.21893811 eV
Sb 16.153535924905235 16.320794620031723 10.984417288991791
Sb 13.213463709259917 18.564279215340882 11.538379476996965
Sb 12.54920036461198 14.264057886296905 9.373024941611469
Sb 10.777162521962484 17.141575611769618 10.911834550409132
Sb 15.373148597278169 13.796730598727883 9.881629180936047
Sb 18.75176922878284 15.539499118406438 11.944265371345182
Sb 10.827459999837428 18.99929306941536 13.098992115048555
Sb 19.372878412918475 12.863824841060339 11.072250464035656
Sb 14.284973856309401 16.481456748897138 13.301777903517877
Sb 9.71010349630065 11.007014340064016 10.215639521794957
Sb 12.224355922612306 11.448665265056576 9.09881518281909
Sb 9.260358842750321 13.150647951873108 12.138117167322436
Sb 15.764769943172011 18.19356368621878 15.0995252058582
Sb 11.725904299415287 14.645732275820821 12.129951519984346
Sb 19.09311205416613 13.412897738615229 13.877710039293119
Sb 14.818048538351025 12.787728899071265 12.494993886175974
Sb 13.346946100837084 18.813438781550413 16.40001666260473
Sb 11.619245896725516 16.97354304172668 14.993589630082973
Sb 17.385409436622012 11.456018915112057 12.654136222474605
Sb 16.51219285032012 15.936655767596063 17.09511948111254
Sb 11.43753765593423 9.351206144490359 12.183812559675292
Sb 15.739969224545852 13.341055774123738 16.197536890416927
Sb 14.067440269896052 10.237180426565597 11.360086947707854
Sb 9.88046596785908 10.967550233282529 13.955867095298691
Sb 14.239012991524326 16.942563929988207 18.609818721236085
Sb 12.996870540312147 13.979813039937063 15.683840114506227
Sb 16.279434545647508 13.37719487447186 19.006120019634935
Sb 11.401131605107013 11.620115086967957 16.29087578281436
Sb 12.315765541313212 7.523050703719701 14.432937276232328
Sb 12.172100361921837 15.031444338908393 18.215701382583774
Sb 14.775596654091354 8.783056385521299 13.95896749138304
Sb 14.00702794699506 14.261559357698191 20.262065684870965
Sb 13.273384912460065 9.430578705334474 16.35470218084802
