30
Energy = -116.64511377 eV
Sb 12.54912385119594 9.087563340160463 14.358550066612
Sb 18.200819624101612 11.499431687415164 10.075838107977845
Sb 15.73419991914976 12.184355116361571 8.656513352743664
Sb 11.69245492468789 8.3978042923389 17.070782412055337
Sb 14.0137033867318 9.998009305818076 16.641317595293856
Sb 18.036581561873856 13.850714294074608 8.479039633647854
Sb 10.044870320413843 10.517454858671996 14.135446784343545
Sb 16.968117319403202 12.270207307872923 12.583489964473065
Sb 14.515764105666404 12.833352805467852 11.2221676254552
Sb 9.508391031078878 10.307704737207787 16.952249279180137
Sb 13.251708990839324 13.866807369819217 14.664131737048706
Sb 13.405488915090286 12.716384588221025 17.293209697941
Sb 10.59329275302921 13.323633001485566 13.730089284494149
Sb 17.655015987081356 16.091258815273704 10.225221758129056
Sb 17.673337388817156 15.081456057082434 12.897429578541509
Sb 15.150528341072674 15.672761783508417 11.569213310327248
Sb 18.417469395122865 17.41880027968473 19.84834476190063
Sb 10.655274676901426 12.656949672645672 18.09864606525927
Sb 9.485466526638763 14.421018433173366 16.142925067753595
Sb 16.06339298172403 16.6375924105361 18.37291392491672
Sb 11.050361343264134 17.141808508945616 13.390894639024728
Sb 18.646280169370453 16.484792563355832 17.125442505584143
Sb 11.86559527850028 16.102055086282807 15.924661488177051
Sb 16.397254114624864 19.364945034901233 19.221178446849308
Sb 19.12053509032617 18.89606475537152 15.699686804309005
Sb 14.957907035038726 17.60723014864895 15.129840880737332
Sb 13.471022546093122 18.236634353159538 12.729447923547283
Sb 17.438843400834074 20.798782058066003 16.996689626337844
Sb 15.327995757173756 20.454004474677397 14.996584725639467
Sb 17.126315540250882 18.645936895997167 13.574371197227507
