34
Energy = -131.54428953 eV
Sb 16.40771440464097 16.822909782689997 21.218466699710035
Sb 17.639782746519533 19.364117424335653 20.737113945983836
Sb 19.229719500509013 16.925932846380604 20.86359410653152
Sb 13.730144573301365 20.706446195068025 17.424313395898718
Sb 13.09782186284769 16.178585865399494 18.464995139832197
Sb 15.611142779625906 14.9041791533719 19.207112050564533
Sb 11.2517456797707 13.752615483839751 18.054039971077664
Sb 18.4076063299038 19.728824721825 17.97117036716379
Sb 12.425435984333765 19.100975131479906 15.40618867080007
Sb 15.826154891276992 18.7628273160476 17.0303089671764
Sb 19.48487577087264 17.040879697314057 17.952252619934107
Sb 14.914933486206746 20.442017257995943 14.837912090178442
Sb 9.1973811240624 15.34538568912901 16.97906998817591
Sb 13.730892071219358 16.517037579430134 15.745612130534044
Sb 17.154763017023665 15.649251339987869 16.897598303854313
Sb 18.74685234831504 13.217179856865716 16.821587742363537
Sb 16.825628317923513 11.187235159761022 16.08719252562623
Sb 19.80717910082056 14.15218653972261 14.339854376018662
Sb 11.323475137344538 14.636059827720597 15.326314994913504
Sb 15.230332580520486 13.687498982020621 13.811022858219932
Sb 14.411502179029753 12.863968357351967 16.464436805044596
Sb 10.664397880563802 10.891259367867047 16.740509305850562
Sb 17.530750049464597 15.342803024187612 13.023204067530644
Sb 13.003278442525174 14.3932267783495 12.04283536448412
Sb 16.45986971787451 11.17283655755495 13.202679999306266
Sb 18.642402081639286 12.760097337823051 12.114502850773997
Sb 13.081074404853544 10.571079526929104 15.213879098705219
Sb 14.386731306272234 16.513684548851153 10.71763663525372
Sb 13.61129947753587 12.105739660636075 10.463739082599687
Sb 10.737619818029529 11.836489921797366 14.150581416991143
Sb 14.255744992672712 15.906367280909622 7.931637072355494
Sb 13.813967352405488 13.03984760924957 7.784447776934101
Sb 16.67954354890622 15.394252477452508 9.492188100123178
Sb 16.221376991791157 12.524457939992649 9.37213638068688
