39
Energy = -152.02857665 eV
Sb 15.226515963137786 13.5428492605572 9.629455217867065
Sb 13.818164122953142 14.26486569727495 12.034091132001501
Sb 13.503139451613121 11.519243656837993 10.836757437032738
Sb 16.76318959845906 12.608221439110281 11.945680732776816
Sb 16.02539689409215 9.879579182004557 11.369017042518161
Sb 10.414264206947948 12.164672992012687 10.447967981275077
Sb 19.852521844541673 15.756398207099641 10.672896320663664
Sb 11.137693336481368 14.883830024430585 11.028557007328995
Sb 19.626407834603388 13.051553762176058 11.64554791462019
Sb 17.754497315491566 17.614719599214965 11.335790377656533
Sb 10.528050702957561 19.203568196409535 13.937140129123117
Sb 8.634635519733004 16.993069146093923 14.155084992979491
Sb 12.721573335198139 17.592604147028673 12.922741745374415
Sb 16.763740292070704 15.828497869195504 13.401738755985035
Sb 15.032649957617432 8.91567260452094 13.844863162246263
Sb 9.971962053053502 10.879428706455313 12.897900501969287
Sb 20.30472519882614 17.71383971390829 12.722039769697345
Sb 18.750392808702845 17.033859250456008 15.090090883660498
Sb 10.877226012529025 15.205713012752334 13.877203760950431
Sb 19.74463670369704 12.566201568879332 14.525696065021373
Sb 9.660815551360603 18.27898586440372 16.51540727850649
Sb 12.75862690622996 10.800418038684601 14.028771661066484
Sb 9.10343354907539 12.923673198460381 14.665732922825338
Sb 13.346581363327044 13.210271011352747 15.614233839553137
Sb 15.636311883887902 19.396451028718438 16.304606824341903
Sb 12.119244442553455 16.814204005872146 17.125403508577758
Sb 16.95331112224612 12.78136244030103 15.283990461273133
Sb 15.836306924013055 15.293218082624898 17.737169594130567
Sb 16.439129719095448 10.051349693003349 16.080238320691706
Sb 10.829096950216776 12.485176480598815 16.951512957530774
Sb 20.21937455067006 14.837035714009964 16.24713243038543
Sb 14.615880818335066 17.018696604425052 15.028144774187401
Sb 11.876694321696581 9.79671479703189 16.614743599280764
Sb 18.162174643540986 13.53131679816254 17.85533902911713
Sb 14.228186462639666 11.184085654947063 17.592773104836787
Sb 13.016213647013398 19.559793527186365 17.48366283385238
Sb 12.796067376491385 17.867365741463228 19.773266543775676
Sb 17.163280415120227 17.808922647552915 18.18404239830169
Sb 15.41802523675692 16.772709671759337 20.22370602399336
