34
Energy = -131.73636889 eV
Sb 11.70432592989685 14.927460928658412 8.211750240631366
Sb 15.945304140583833 16.273431756410922 8.535747192357967
Sb 11.247766266758319 13.548441437363874 10.703148984714362
Sb 13.295493744315404 12.603509573225983 8.948635445274428
Sb 13.425101045940956 16.661115416196388 9.870483261788893
Sb 17.640065409408816 17.296117031129832 10.712085774240615
Sb 9.31227621006438 11.649819053395888 11.71733486904271
Sb 12.801042066302186 9.31149697478106 11.468258847210537
Sb 16.38497156634415 19.71036695825544 11.703148262463941
Sb 10.237083015271784 9.318353970040164 10.186451313418262
Sb 14.64255304934312 17.83117615628106 12.984981635650032
Sb 11.461011008035387 15.526906809289388 12.829682382587489
Sb 15.09054757506701 14.348124416007243 10.46876067871861
Sb 11.310756073198911 10.847457941621489 13.581513624971764
Sb 16.71802532864615 15.85228905150275 13.129007148535468
Sb 10.669029337205561 7.965190074966207 12.669126661027105
Sb 18.399623534863164 19.97444313322749 13.749063392666791
Sb 14.48301526581023 15.172104375800624 18.289162197130544
Sb 18.81844258969009 17.244191395148455 14.545763588629459
Sb 13.40365012191236 14.313404178789547 14.589662124368989
Sb 13.418947608864144 12.483969135634533 18.14203004804921
Sb 10.575217435056686 13.750111698657133 14.843914443959491
Sb 14.540941354764689 18.875474681740005 15.628961049691961
Sb 15.963612508638285 11.79513592134818 16.940694357425002
Sb 12.877346797247766 16.571461947523694 16.345020994530085
Sb 16.807500510397336 14.572536920437312 16.727546713865266
Sb 17.344105644446156 18.93246460286545 16.29837015724644
Sb 14.466052360323696 11.741198039056437 20.793786188183326
Sb 16.965634988268267 10.89444832265577 19.53246735233964
Sb 15.25853648348475 16.491811831390226 20.764605352061583
Sb 18.86535059550338 15.015030151476813 18.667891274200453
Sb 17.634821933511542 17.365881918849254 19.630694863640215
Sb 15.89801353239732 13.967905042433957 21.99544236114101
Sb 18.34569736403468 13.11903154943601 20.746669613834623
