35
Energy = -136.91015031 eV
Sb 7.563829606910752 13.47778349033508 9.014474334188503
Sb 8.972074339060955 15.99868464545454 9.028372304668741
Sb 9.610649937194777 13.991102614784213 7.0535779801522915
Sb 8.544572149257647 15.666086167104437 13.499721746693444
Sb 10.407635404479857 9.51914853336901 8.904909570492329
Sb 10.940190410265208 6.821897447046055 9.61551323135848
Sb 10.95548339434397 14.193223365063778 12.871884229045227
Sb 6.905602197204183 13.493059952882904 12.544586682127873
Sb 7.672012952809314 13.567249621011241 15.323887978584814
Sb 13.750137913911272 7.354164467011557 8.993115403747824
Sb 9.99492472089621 7.036491607986117 12.341711298704515
Sb 12.77720163172511 15.923821356192772 14.387638316048859
Sb 14.21949040430492 13.40391736869 11.460354452463356
Sb 10.159517782752701 9.756028502658609 15.62307907339088
Sb 14.26620027749633 7.9782612881598896 15.927716618818605
Sb 12.712765042664385 10.229135680679365 16.870799738811176
Sb 15.596613361292304 9.786687188451884 14.065195995905912
Sb 13.460303814518422 11.720824130846527 14.49673713768571
Sb 13.550169078241378 7.9464578090275735 13.149336148901444
Sb 14.56909604368681 14.081236581282509 15.716837579015362
Sb 11.172350034844898 9.629963182457962 12.897328246173394
Sb 7.409231500047458 7.449274345484964 11.072263418091191
Sb 10.352731218579862 12.644845969436034 15.5906302001555
Sb 13.76505694682761 10.160086491142392 9.887277694202313
Sb 6.603876573641276 10.173923187612449 10.547838072276859
Sb 16.21375681955749 11.37055145099676 10.849066211680833
Sb 12.29991830067389 8.608968737675921 6.791906988986069
Sb 15.362306460878532 15.356747452076128 13.245979901490351
Sb 11.617231034997616 12.96881565927295 8.909986341542536
Sb 11.563247243391086 15.51317631778318 10.250142813733426
Sb 7.701487833488134 8.582088300078228 8.40494305947997
Sb 14.514392775875551 10.497124590306575 7.176787014490815
Sb 8.89302678221903 11.925047002430556 11.074679626636508
Sb 15.921603988504154 13.731321798493124 9.152542670373744
Sb 13.861935145399785 13.323426818657262 7.139801041823523
