36
Energy = -140.07195954 eV
Sb 18.317522125478497 18.62849879495287 11.158743041994018
Sb 18.291594378264403 15.73697563406324 10.70042783611309
Sb 14.59873188460266 13.622382264408532 10.547335221190153
Sb 11.796417037581195 13.816785365902382 11.219157560291999
Sb 11.744236642411629 16.51983814743117 12.164987252342849
Sb 11.486782089554707 11.932803500969099 13.349771266659179
Sb 15.374468993561461 18.682222305199115 11.01298417231056
Sb 15.965005955507445 12.239744850756882 12.720945289953901
Sb 19.137547032430163 18.103318463397432 13.8917434434534
Sb 19.24638211363989 15.230198289576313 13.43060458261756
Sb 14.009260915700041 11.481813081457632 14.726703615655111
Sb 15.679934280856509 15.93709641608017 11.87780940436149
Sb 9.567033546629066 16.339681823840586 14.024877800723157
Sb 9.408431259870866 13.52438280007169 14.625841310432026
Sb 13.626328259140584 16.56942598324753 14.430127142468606
Sb 14.413546532095486 19.287970222489854 13.68565972458493
Sb 16.740953158063157 14.327664223449512 14.601371152242601
Sb 16.99690007874968 19.7660994649262 14.835494814694213
Sb 13.46488443161557 13.79213033544556 16.34398076456054
Sb 20.58270483915098 13.153795047563426 16.705167017795254
Sb 11.392289760587323 17.65594379161505 15.906727966651866
Sb 15.602343756623652 16.48648478534406 17.31779503819883
Sb 13.928318123961345 18.786949962886816 17.94300688408399
Sb 16.804323336282955 19.089316515698304 17.63732336389822
Sb 11.779420072651575 11.732887784100742 17.512415738591628
Sb -0.25465791473649385 15.94072438718318 17.413209161931757
Sb 19.347526164702852 15.738907653429568 17.093628888177893
Sb 9.541318155552158 13.55034810621046 17.522647230788657
Sb 17.851707128525014 12.085390029950256 16.11857684566162
Sb 14.758682678462312 16.9957552012529 20.044882050888752
Sb 22.73965277442523 13.87170271254086 18.962153474907446
Sb 13.935317445328172 12.863624172778907 19.036756343528683
Sb 18.393950537204176 13.45703501996701 18.568195518801677
Sb 10.62164107461691 16.12270657332739 18.226586975669303
Sb 21.3766671577145 16.41505124771868 19.132253444440046
Sb 12.527273553779729 15.135498761757557 20.1312623803262
