32
Energy = -124.53228922 eV
Sb 20.315271767695137 19.747780208876655 15.494858579253512
Sb 20.54906593268217 17.850402966302195 13.24810922788253
Sb 17.4275310265996 19.640609801065466 15.33327823415229
Sb 18.78342140334796 17.806846269728176 17.070172270746994
Sb 20.41391732167831 16.060319709606446 15.489986229024474
Sb 17.936426726639763 18.901727313343176 12.625257486968932
Sb 13.586678299233654 14.590803085950188 18.127334897595684
Sb 15.532807750149505 12.424011330352938 17.901405627476734
Sb 16.06355939846168 16.689214351588646 12.473402137433176
Sb 11.956614865129863 18.462464172996746 16.50188227282608
Sb 18.320668557929324 14.952627671420494 12.333096293264273
Sb 18.80548862391281 13.689203536253695 14.87125816096516
Sb 9.855483962453436 16.525001561367493 16.559781023000536
Sb 16.954989481726383 14.692995712287736 16.784295211935184
Sb 9.24703444909507 19.28576605120905 16.023551953575936
Sb 11.261968583013422 13.254376033312361 17.161273586345757
Sb 10.651622680400923 17.710114363682482 14.081248392338725
Sb 14.59049638158158 16.013986993546567 15.752906693664407
Sb 16.879055716559343 13.15489874693006 10.574896543968302
Sb 15.655613665078743 15.650923863166847 9.738656460090578
Sb 13.189062025584347 15.014364357173653 13.422394995248709
Sb 14.318459554855338 10.844799276856062 15.858061151320376
Sb 14.100359492700296 13.588214209834891 11.02746029261454
Sb 12.321698674811595 12.455216416606863 14.439888786366257
Sb 12.132766585814279 10.540568217709538 17.734800952757173
Sb 13.258763195492874 10.45601204061123 12.345436317147016
Sb 9.465838885194163 11.60836536898201 14.372669450803519
Sb 12.311951978313054 8.256688014403908 13.931516792432152
Sb 11.213881549681702 10.074450348348341 10.409505508777402
Sb 10.325021443339228 9.297544225627387 15.75872028767124
Sb 8.77671234343088 10.247431846096667 11.995237514299369
Sb 10.264927372058477 7.784647426114423 11.928099426383016
