35
Energy = -134.5961477 eV
Sb 12.724356361389969 12.60030282154256 12.5374123537275
Sb 15.768299224900002 20.05072692877479 18.712729872292357
Sb 9.856170993218422 16.014525553020864 16.750988002654807
Sb 14.691592214802506 20.117539992260028 14.828177878901725
Sb 9.844579017915107 20.940094128862647 16.686092623019633
Sb 15.71704120430272 18.07416782568758 16.592346097767617
Sb 17.694160121965897 20.19035933258433 16.613225077531975
Sb 18.399082455206653 11.897504117903997 15.091959620758908
Sb 16.42633305125932 10.739939149157227 13.252290066940205
Sb 12.565593094116986 15.285676068266996 15.948330829038655
Sb 14.448715239808923 12.12918378731337 14.78048300957759
Sb 22.313168427964875 14.575094029950543 14.442385302541513
Sb 16.082737200421423 15.276221717242372 11.029019527759072
Sb 24.46863658157201 15.51399854118937 15.979180503539375
Sb 22.621449426187738 17.364678482346324 15.182608102502176
Sb 14.310887533255013 13.173877331540226 10.182146085982934
Sb 17.610245430625966 10.277439462114863 17.32727633712657
Sb 16.966406232037684 12.522883053366167 11.046116186574228
Sb 16.569889789920282 14.096894336896044 15.336494996970263
Sb 10.609285831068274 13.261670109688895 16.723713872508394
Sb 14.862537055530506 18.878579617172793 12.398294048035833
Sb 21.38217789900647 16.531678993082643 17.95629498832888
Sb 9.270965461844519 14.383228571936984 14.460932975996684
Sb 15.864290639958744 14.087339810163947 18.122969774333747
Sb 11.746263474679735 19.274188823895543 18.012969457083724
Sb 20.611436096000933 13.967257830390844 16.79112784682943
Sb 14.851165704346506 16.268587110481974 13.425813421994174
Sb 12.488829778126883 21.90868612567649 17.18849007230031
Sb 10.638999881300752 21.542269376695376 19.360543761179834
Sb 15.142843828538513 11.271663450454037 18.38699216388275
Sb 19.088904662103733 16.307025083379216 16.126285488036952
Sb 17.678278248572834 12.248889011318198 19.40332874774024
Sb 18.51158001417539 19.236629272086166 19.235450139204612
Sb 11.853667608057394 15.274118956147442 13.139256411124515
Sb 18.510964657353448 16.365802670599233 18.916404417150368
