34
Energy = -133.24968054 eV
Sb 18.6648113696526 13.520659403791804 12.007476138594116
Sb 18.0005136317224 11.012863378218366 13.36817958179219
Sb 16.506180003211625 12.477486420411354 15.368260121314814
Sb 16.623515388024938 14.843944411872613 13.616447216780253
Sb 17.40173368457106 12.526438716790693 9.564226948042247
Sb 15.18240068818975 8.333987875956236 14.243881853474322
Sb 15.7736269264156 11.051580408413633 11.459737982199567
Sb 15.76534685174326 8.16835056806884 11.371866200116333
Sb 14.186816626263012 11.087819324915476 14.295166903515126
Sb 10.706191314595454 16.482314263954446 15.702691904583368
Sb 15.563564650742128 14.76620692779468 9.435547887048068
Sb 12.335428334050718 7.802330604596997 14.665090294667145
Sb 14.34561798406499 14.242618020616517 11.96436179377186
Sb 12.397321313299837 10.178995200245996 16.377581145544333
Sb 9.704053427846567 14.069878732250167 16.984995679896226
Sb 12.848330337137545 16.724075732480056 11.699136063702307
Sb 13.083356409421512 7.473249220485492 10.494269492173528
Sb 10.832331223265333 15.191214253717865 13.071309680125545
Sb 13.172100987207383 13.60516909620065 8.240027132525835
Sb 12.746829484456347 11.65217666198142 10.377183630374388
Sb 12.622274619972773 9.44878847719165 8.459924740927915
Sb 11.64398717028922 15.873753039956073 9.162604402087704
Sb 7.945914362066477 17.187562596829075 15.260196748858545
Sb 7.043638300522334 14.517293106913025 15.905304338900923
Sb 11.521657096196746 9.141921192291003 12.234544992978545
Sb 11.200670413721411 12.553305175893387 15.042233941317939
Sb 8.29968371684142 16.245530600430953 12.296051699228201
Sb 9.904203375562156 12.183806730604706 10.685574769563424
Sb 9.082209772560542 14.673423983424764 9.633877788026172
Sb 9.937994569993537 8.367352026507481 8.319844206666268
Sb 7.141775738214433 13.70712572357707 13.110024430026055
Sb 9.057023302206662 11.549827832597744 13.38951035609649
Sb 9.20063755053887 7.799337204433223 11.054892564864005
Sb 8.118201550642901 10.099555261798441 9.697919545428839
