33
Energy = -129.18352447 eV
Sb 15.59939063401408 7.240057596842388 11.956314109592226
Sb 14.981166173830493 9.200032255572625 9.928851833887201
Sb 13.00618273785484 6.043392183393756 12.577535429593441
Sb 11.092610003696914 7.557087750256113 10.984855880130535
Sb 16.03957279386396 8.673334387628843 14.40039579764838
Sb 16.80137510503313 11.357951136033654 10.644001088947796
Sb 16.96267553564589 11.272459976954519 13.54498035105917
Sb 12.409959344341543 10.119224686462562 10.813046571316447
Sb 12.058533510656183 7.263858071435632 15.046492422999952
Sb 12.958729493663254 12.022690250689449 6.884741500113444
Sb 11.351585055169414 10.00972107872238 8.062316386040283
Sb 13.314805154668019 9.701918205250399 14.18327344376835
Sb 15.651372202817537 14.057772163730824 10.21151923384436
Sb 9.619432462964282 7.827515140129622 13.507594719959444
Sb 14.419995713161928 12.623574405102037 13.519348567168949
Sb 15.902764050340616 15.046872059179378 12.963998411233485
Sb 13.731599794608496 11.779957354213673 16.226519614434896
Sb 12.726631152129952 13.809968902942899 10.430800121644834
Sb 8.905557574398841 11.17007191297723 9.041765201072346
Sb 13.519437085128928 16.63955198930849 13.53153172445883
Sb 11.56134092373383 14.514528066884171 13.840657719607723
Sb 10.264800437483947 10.63466932120865 13.78964556375451
Sb 11.419130976846592 13.551013453491853 16.53632857632876
Sb 12.57061198957107 16.687889641881966 10.80693505633019
Sb 9.079218828142743 13.810713771307274 7.898316628643485
Sb 9.843798466981617 12.367771953404471 11.516821138591904
Sb 11.895264688691254 14.492989584455108 7.742790164652743
Sb 8.92886677321586 12.181235897135508 15.824833451993676
Sb 9.51125763838202 16.461490761133277 14.217016460195527
Sb 9.74861466507729 17.189216303713224 11.419160622521527
Sb 7.153718995824922 13.281997316739982 11.839143907523605
Sb 7.862093523438862 15.428731876639704 10.044978441283016
Sb 7.514004499893444 14.3868385304506 14.469587844930894
