31
Energy = -121.02601582 eV
Sb 15.625275351979894 14.021479903476111 8.272014087766657
Sb 14.235984981603558 11.654160859113695 7.288377997772044
Sb 16.529764868402278 12.804983169398216 10.756526429659942
Sb 12.952656049918373 15.05098985709211 8.567268529281536
Sb 14.786666821885106 13.313759740639163 13.046041256618494
Sb 15.849959920620687 10.319307987270367 9.329408251376343
Sb 11.849987766836687 12.130833491896572 8.945787396805738
Sb 15.602729693267205 10.522634553133141 13.24109652857011
Sb 11.8846677304137 15.807781133078196 11.0722807433806
Sb 11.967366815029127 13.15053269827303 12.34384521991457
Sb 9.412410575304731 15.382904174962707 9.579057948580642
Sb 14.064451770852385 8.872854900849187 15.124648681219355
Sb 13.761283343119988 9.76127816347166 11.221707321247132
Sb 10.148800597540568 13.756303056802258 7.2558195922416
Sb 12.422541359213726 12.810889624622629 16.796550738182052
Sb 13.570904515548063 7.236737190743694 12.786158654000616
Sb 11.365634288463703 14.627750624845499 14.823334817656193
Sb 11.991427311824735 10.84730389796029 14.675674330297111
Sb 10.721986366483607 9.557596680538383 7.811129146559258
Sb 10.963481028772597 8.488368821744535 12.430897488550976
Sb 9.558573814230648 13.114453070808686 16.50843853765609
Sb 7.399333390792292 12.875276040740886 7.826472188943689
Sb 10.733261399082448 7.425211050162336 9.74292192648994
Sb 7.576934563531898 13.424796245371533 10.697532657891482
Sb 9.038033775138329 10.972072083013165 11.226125050822164
Sb 7.904520998140044 10.050331062093454 7.472402077153146
Sb 9.456852197815618 10.271859354719824 15.884935584660719
Sb 8.451910583423626 7.29912983200594 13.298677677497288
Sb 7.631243872905699 10.076648519224399 13.645945215291997
Sb 6.807751449655474 9.590240667536445 10.077870798976933
Sb 7.926512909604932 6.974441655813611 10.443963236337142
