38
Energy = -147.35769017 eV
Sb 9.280512411167777 16.46860654393099 9.37419969728667
Sb 9.309373724124631 14.124179309367513 17.35358007562338
Sb 10.780717132027156 15.454691447062517 15.197146359730892
Sb 8.023295044026948 13.580252203252433 6.934310455079597
Sb 6.88467232033843 14.88406144606146 16.0535272423159
Sb 10.951588182989472 16.019263367114064 11.700523106510296
Sb 8.392081217835285 15.741512526569727 13.750517329121655
Sb 10.613351265888758 14.828884299536087 7.390184649120925
Sb 7.8010417142239605 14.018953070183986 9.81623731799174
Sb 14.704691002509966 15.733307089017025 15.684909885371937
Sb 14.250854860490664 14.838965679951722 12.764829237757572
Sb 13.597811164786917 13.549585212895753 17.026553881982704
Sb 7.834604844030817 12.121165537033628 15.796290153867021
Sb 13.576441151570508 16.83475400868951 10.778305992569305
Sb 11.45850167495822 12.608754804025835 14.706064285361379
Sb 9.871187291152134 12.314802902223652 8.708455073999149
Sb 12.685660983173133 14.098335200769913 10.389517518321433
Sb 8.919426375738611 12.465906326064715 13.175700800315756
Sb 17.12246574438818 14.168414804559294 15.747643034056544
Sb 13.825154649575342 11.495336365350267 13.347917214217604
Sb 9.26921466538332 9.295254287130884 10.3919764694125
Sb 15.519616788330476 11.746441674003872 9.013795671580565
Sb 18.750266367150267 14.211261293325723 13.336884920725725
Sb 10.97566712917898 10.336740009527158 16.518090759624343
Sb 15.507431758354773 11.764815465384945 15.790427158943926
Sb 16.679618625694943 14.307168034667649 11.341828215466457
Sb 12.024751539156613 10.177127200033123 10.595566613179633
Sb 8.626952452969885 9.52781203597381 13.198411620763233
Sb 12.252392693423982 9.258903341346494 7.837805351788511
Sb 13.30754119273658 9.22181514403341 15.086517822038239
Sb 18.086174390453575 10.734282652369272 9.850841622212885
Sb 10.11952868647429 6.527984143481276 10.641050244785022
Sb 10.664714876762185 8.135983718689785 14.68266768702192
Sb 17.37677430351786 11.792588858580016 12.512972440244518
Sb 15.157785022791446 9.23367499918219 7.604205824829239
Sb 15.643684646842916 9.271661098831332 10.446574763652594
Sb 12.320881783862193 6.519611039063729 8.79869611224248
Sb 12.707793769896197 7.461366308691656 11.529496838863356
