32
Energy = -125.34438443 eV
Sb 17.420991395994534 12.623939345186853 9.721805826838079
Sb 15.41719830912847 14.078632762829145 8.231218987683741
Sb 16.12798991818241 13.41811041826703 12.178616391176902
Sb 15.70380053902499 11.245274150006782 7.843021941669121
Sb 13.539809094885532 16.69920653301912 11.16019756926237
Sb 13.51521994095864 13.868181634090762 10.451910290043148
Sb 16.34200667387324 11.111614058521841 13.803163972209111
Sb 14.100458666249267 16.462825192473467 13.990282712796319
Sb 15.165967779694565 12.418899935245461 16.110372006147426
Sb 13.305479489857106 13.686506152432694 14.26023330648795
Sb 11.088676206028442 14.800941605466775 8.757412210136255
Sb 13.421547285627804 10.64734243022276 9.50146021674335
Sb 10.659607884408205 16.747491117628698 10.871601242870087
Sb 13.720335644205827 10.252872566990508 17.426052378365448
Sb 13.817554051369877 9.67539639698573 13.31393217688682
Sb 11.580891549710707 15.849067956937072 15.244882837979771
Sb 14.277567175774635 8.206282638984744 10.829394793128282
Sb 11.46967261087663 11.03241455016961 12.13753499236795
Sb 13.234561265810804 8.038928493957108 15.636496296070003
Sb 11.56603900689685 9.030930813823796 7.929604466080971
Sb 10.406950585929904 14.687392629278126 12.870850649908078
Sb 11.023125712049403 9.6310412445697 16.523472247457804
Sb 9.76670974942219 12.631536855382702 10.099515329904452
Sb 10.498269613758064 11.874013931071032 14.72694201036095
Sb 11.61406447258055 7.189533335541226 10.185067644204215
Sb 9.105878527922208 10.533876713228228 8.208578080041216
Sb 10.046014653073774 8.528328727374786 12.174443588114906
Sb 7.056782679778542 13.47558866489853 10.543122971538432
Sb 7.517636883607356 14.404023643361786 13.289913685972916
Sb 7.597571945401973 11.686573111502636 14.328065212936808
Sb 7.920242445785856 8.945313305555784 10.29140980161326
Sb 6.39454356341444 10.941084406277962 11.78258948428563
