37
Energy = -141.19813529 eV
Sb 17.37870316036438 2.1964133100621863 17.712750573072206
Sb 22.348590148729155 0.618096081905531 0.3320844562063846
Sb 18.96019356406813 13.178716255621298 14.338701372605925
Sb 19.98414640397905 2.7558340588870935 18.806025272105227
Sb 17.31940371757847 18.785193597696406 16.734167836895185
Sb 17.634086343818005 -0.682236295836997 18.209289388179602
Sb 17.98094284891914 19.876389505885165 19.31945296721919
Sb 19.07510131128429 -1.1058603746025086 22.879120167242203
Sb 21.368163173328888 4.829859406244344 -0.39662035255486944
Sb 23.495917379273532 3.182607173911688 -0.33394620075076453
Sb 19.11773188800587 3.1223246321308116 0.1860362541346257
Sb 1.6953146712107836 14.73822714528258 22.783430372088084
Sb 0.2321519397072037 18.788071456307144 21.631204900284718
Sb 15.711989852372252 4.64820811886682 -0.13691088411718064
Sb 16.28454749120708 15.058004312603066 16.202303700114953
Sb 20.434900727260167 1.3442815929435545 22.300544414295246
Sb 22.66230861051021 20.572638995804006 23.350344428835882
Sb 19.77220487015034 20.298125952035544 17.129240664749066
Sb 23.545177562408124 -0.927274266843522 22.137723303081415
Sb 17.57128701370872 16.98285623816558 19.008999504534373
Sb 1.8317371227193124 17.392324532099966 1.5950533061400782
Sb 21.62390200219954 18.144823708092407 20.44717469863191
Sb 21.109254966366276 21.691779197458793 21.15846371942147
Sb 19.755302432321614 1.9565567592654725 16.055212704335922
Sb 2.6710770394412573 14.769900498427319 1.4168164392519604
Sb 19.66924547336383 15.180862294570806 18.21899284800177
Sb 17.0167803085417 12.253855716936252 16.257305036739435
Sb 17.75599800715333 4.171322189443542 -2.1366004179398947
Sb 22.345482337210267 16.230079438086378 18.402866873318807
Sb 18.966053663827747 15.883511332202428 15.52680260770293
Sb 22.286105002985117 19.02471008675849 17.806664344578163
Sb 14.684392763631696 2.1591546815971645 -0.3575627739078222
Sb -0.16854720333970252 16.727557962774046 23.62191651532229
Sb 16.862535613976924 -0.8500088769506962 21.01797582107341
Sb 16.149739789132195 13.38418297278857 13.795390034771811
Sb 20.43971107568701 -0.028933789801273174 18.067112469270914
Sb 16.04740968470034 1.918896901324256 21.096620669151562
