38
Energy = -147.27107796 eV
Sb 4.8880213084610595 10.311081803204877 11.490225819263706
Sb 15.992866290155078 10.81167446253935 11.758815873703005
Sb 10.201989698207646 12.243572070248305 11.508574525133364
Sb 13.670295758097774 8.30064732913676 5.905298056739952
Sb 15.349845603518338 16.622389717480267 9.809176999028997
Sb 12.315673502830181 6.4441745680058595 15.286101378809954
Sb 14.672744278898806 8.326631546125574 15.583887655001321
Sb 11.978934387900534 9.146994553628048 16.15037756056958
Sb 11.345830954929358 15.887018682080999 12.704370778647752
Sb 15.17143171693399 13.862577452016398 8.889283019323535
Sb 15.863204901652232 15.91389844904721 12.535228386312147
Sb 9.73021990200509 8.693802705464346 6.543794922676074
Sb 12.123194159753064 10.295939501905076 13.458751920808528
Sb 11.802237975201566 7.0559055319757285 7.7274793707045895
Sb 11.781320776240623 6.5547775326473205 12.523502908893608
Sb 17.4450315437042 14.754641409825272 10.428600706547007
Sb 12.639504015587429 9.023351389980625 9.762835392393715
Sb 13.6820179018512 12.187591081635365 10.722707119728991
Sb 7.898846542017375 15.82623687985907 10.403249487012319
Sb 8.896384527858867 13.208304268877024 7.7068231485900585
Sb 12.232963972744963 12.086944801578946 7.158208191239598
Sb 7.2385752617135735 14.784375878538974 13.03818907126491
Sb 9.999759945630837 8.7749603025637 11.909751216888127
Sb 15.89543914274803 11.073387894686121 14.574028588544216
Sb 14.173691785182172 8.45635166340966 12.488757259551656
Sb 13.497547796960344 12.480898543999032 15.1585988215376
Sb 9.786801424668289 13.907083473547635 14.009579557018467
Sb 14.446346649544648 10.345432559282246 7.928853522756584
Sb 10.138749643177057 10.73702131729491 8.692617403794854
Sb 7.501403475291805 11.210318172747298 14.682562729387103
Sb 13.599660392209328 14.186326824991813 12.877881348906774
Sb 8.291262632598214 8.516830973880534 14.209777217006081
Sb 6.5465733992615665 13.584449486708467 9.194092259425657
Sb 10.489983939784475 14.647028812613778 9.872135109211634
Sb 7.236704308391921 12.11637240597992 11.831663049279515
Sb 5.74925350767937 7.970342795872022 12.852035057000558
Sb 4.7462164226470005 10.228587004555644 14.344687772736599
Sb 11.65251098374348 10.167303156388472 4.971972179539001
