31
Energy = -120.9931712 eV
Sb 9.729217902752819 14.730847630020188 7.602718094547582
Sb 10.24466705456914 11.924153161143686 8.175126435278575
Sb 9.811662450524123 16.144514986773782 10.087103403744848
Sb 11.886949739468582 16.600804890582804 8.155953621415227
Sb 8.012734867329241 11.297847688548472 9.93205310534561
Sb 7.829376569778107 13.500713763895929 11.751930935057247
Sb 14.489908229706991 15.762328070227376 9.112239202106181
Sb 14.139889903882064 13.134187603764767 8.113660421268813
Sb 6.603367486229873 12.004840955090225 13.85776641404787
Sb 12.303075366382698 12.099792041128756 10.125324549273795
Sb 7.4778150997591695 9.238644302097406 13.62286370472204
Sb 10.814929839088968 14.016271877722042 11.78813942285672
Sb 14.654981961778335 16.335620508352783 11.969753905920673
Sb 9.181097016542525 9.008349896885592 11.297334670046446
Sb 16.52711301262649 11.68687915741468 8.899944201637425
Sb 16.281447261306333 14.25489444129241 13.155062649279518
Sb 12.204297082550681 15.982300310052326 13.486481694527814
Sb 14.037862656032518 12.489341905871095 13.39129501448057
Sb 11.739473678644504 9.740831214393763 12.43081955518254
Sb 15.1379614435839 10.426465403284025 11.083720975375869
Sb 13.780694588617061 7.885572442177401 11.41788419911799
Sb 17.892111212449077 12.80313296326382 11.234438597223848
Sb 10.83631635365212 12.217524860254173 14.714541016333019
Sb 8.483985450675881 9.687084468777861 16.36271418507994
Sb 8.316314166472928 12.582173697501144 16.13560706665173
Sb 11.847714877285735 7.981730891919287 14.757849923582043
Sb 12.889859512979363 14.090740668337315 15.579431742597135
Sb 17.554887729838104 10.212084211267097 12.581327530609272
Sb 15.72708486785643 10.598121119676593 14.833036306007862
Sb 14.69606338578689 7.944955162871965 14.185673702467275
Sb 11.342666988248567 10.092777461810277 16.633731510613046
