36
Energy = -139.47918515 eV
Sb 19.43929897813554 14.571605973059608 19.264240971205826
Sb 18.572407594177616 17.27583182764891 19.653820171278326
Sb 18.431470262720893 14.821494005003537 12.187029968384683
Sb 17.551664149271335 17.91541180569331 15.44005412911664
Sb 17.42791105488531 15.832729098305734 9.68733921629436
Sb 17.797558746940012 13.668640126678062 17.052604075863112
Sb 17.039248831583166 15.088715381000657 20.776893624191175
Sb 16.253024500945052 16.40068021248807 13.318925781641232
Sb 15.787527783728423 19.804181186153492 14.168753115211368
Sb 17.045925687012407 12.351363187988804 12.800343059954193
Sb 16.236859452363287 17.670084973241803 17.981470335307055
Sb 17.038912981038997 11.301889453675626 18.555167630357808
Sb 16.229332287428015 13.635491700117518 8.288631441192493
Sb 16.602989891887827 11.457865111723496 10.099502283753406
Sb 14.554496453028028 15.63967039751757 9.531509932368124
Sb 14.5930246218704 21.209147262816927 16.331233176365004
Sb 15.492509147302911 14.90152548779373 18.268003049537967
Sb 16.41913381134803 10.05816012649286 16.017911584132367
Sb 14.390587856622133 11.508084810134758 17.40317213350662
Sb 14.943997897064714 13.880045125617585 14.06648255501281
Sb 13.638506497703816 10.65013219207681 13.767522309697354
Sb 14.373038140106386 8.607547116775443 17.461028431173865
Sb 12.94131191917369 19.1438664428432 17.485254380571934
Sb 13.342489340802155 16.94244774980661 15.612791579199707
Sb 13.217810529563108 14.845446919122391 11.966558460832667
Sb 13.889888849464839 10.776994413379667 9.475584678378366
Sb 12.551794202220705 8.469109541579286 15.253702325429046
Sb 11.89445600471315 20.77897425150599 15.340792439872178
Sb 12.571056618395167 18.669684924362567 13.445269931248337
Sb 13.103204665960687 8.89295421660621 11.553306929915756
Sb 11.993731260371911 12.719823704956479 10.45336822360197
Sb 11.088766785430431 10.785890395793613 12.439068531883528
Sb 10.890948470945416 15.854446965089888 16.610024547336675
Sb 9.688620135488197 18.242324145187673 13.387692321990222
Sb 9.147208933489255 15.596294323963644 14.341789109135144
Sb 8.885071147017442 17.860684566573866 16.116157840929283
