31
Energy = -121.32346085 eV
Sb 11.975311346301257 16.36500357354128 16.32193482216193
Sb 16.585662899561232 14.41472549771193 13.078350163636017
Sb 15.42464886349684 12.012697509353442 14.210531705280637
Sb 12.980511603301675 13.787866156367231 15.074360076849551
Sb 17.71550862287572 13.495606270165018 10.533922137742286
Sb 10.591615977160597 16.685039365441888 13.839451538491845
Sb 14.026956575424524 14.706156286139086 11.667854123015465
Sb 12.090323034598429 9.821385366459424 15.285717821751705
Sb 9.178656690636041 15.815953684371472 16.212592797483534
Sb 15.87521055676959 15.506433639452085 9.638089216040028
Sb 13.942990084696925 11.781785784630555 11.751239408276689
Sb 11.304890163509425 12.147055511804446 16.792759285899326
Sb 10.904172124306895 13.842435056364996 13.034943522058091
Sb 16.15286545942746 11.135650102105188 10.061579170231864
Sb 9.082245849997392 13.0650060251827 15.20816483828097
Sb 14.645155449825033 14.502693350406613 7.234664921101861
Sb 14.61671905188151 11.67018529614158 7.667991706862615
Sb 9.928435656697312 7.916156674546816 15.740365513817478
Sb 10.898425284314186 10.334137494896956 12.670672962252658
Sb 12.497307858872318 13.304837004546624 8.753412540877193
Sb 12.20478414667578 7.864012465496732 11.875485445143385
Sb 8.431530307204904 9.470087459683768 13.85248781461399
Sb 11.406141273670775 6.1163204960983855 14.040953570354242
Sb 9.093588012467073 11.785983554645158 10.14414810058804
Sb 10.638757956076336 9.678290114511327 8.909653391112053
Sb 10.043582035112964 6.031759669218901 11.521185907534093
Sb 10.850489735634278 13.246408636804217 6.373704242109103
Sb 7.653395946829885 7.57018097002596 11.88451217000335
Sb 8.249982844613598 12.71661289778951 7.482843189506963
Sb 7.851714478963655 9.25197925849359 9.490509852000207
Sb 9.78425540055063 10.583390119057192 6.27175333637689
