33
Energy = -127.8916171 eV
Sb 12.928578964370422 14.575026121230088 8.836313876875277
Sb 14.78782930098743 12.41543142277445 8.399692293599156
Sb 14.54760541500289 15.51156908791707 11.048578479287105
Sb 13.564458403073228 10.176790414084543 9.70155890188879
Sb 10.822738370654719 13.719451734450761 10.690845477685002
Sb 11.27125831350007 10.91789653314485 11.243785812585658
Sb 17.39332626517648 15.661810268775515 10.668174179500598
Sb 17.40050672428958 12.93855901999218 9.596534409069706
Sb 14.258407676279536 18.352816754037896 11.471906747439567
Sb 15.600486077036551 9.13205858057606 11.454007208122347
Sb 17.351265127221065 11.38081714342202 11.977962903945922
Sb 11.507322348078105 17.45648012861856 11.32242125270731
Sb 15.117803716159548 12.657055271903817 13.292941900382791
Sb 11.922499735528818 9.94697543263504 13.934331039096625
Sb 11.918187209033361 15.117984298662199 13.022714048331684
Sb 17.48982874998109 16.235862549970747 13.585694849943197
Sb 10.136872121215161 17.365332668643866 13.841802139345978
Sb 14.103010313054053 17.01709824469885 17.3702651910341
Sb 14.615095021717586 16.99634515808583 13.988663964562212
Sb 17.452882990189046 13.580526731785325 14.78504964654723
Sb 14.781878619826227 9.92246590226496 14.170063270299456
Sb 11.110234983568402 12.19628832313423 15.56225461878978
Sb 13.523167966661779 13.779850975614313 16.047834602123917
Sb 11.558904904217407 18.490786271642456 16.018444838829318
Sb 14.26845350604661 19.36317375795796 15.656169487595818
Sb 11.939790666187065 14.334891801360246 18.444789181540006
Sb 16.972030735709183 16.927799367608543 17.989833710688785
Sb 11.77924578012942 11.41889438250034 18.31086896260113
Sb 17.721575798500474 14.209460662078756 17.665801087224143
Sb 16.021921311545782 12.689097012510333 19.42046706206346
Sb 14.519548789617811 11.376244446499683 17.34652856522088
Sb 14.004694310262003 14.44921823648671 20.457982828277313
Sb 15.05532966694304 17.13268117669632 20.12245734456007
