33
Energy = -129.32554141 eV
Sb 7.325294189374172 11.818248488487917 13.097430791215919
Sb 10.648056130163395 17.670463256434736 10.27776259793767
Sb 11.335165061264561 15.402787643517522 6.719505668749875
Sb 6.476222990949754 9.788531951431782 14.930079587246352
Sb 9.925958906856101 16.757151933861053 12.89616693373063
Sb 9.9385955633156 12.213298105100776 14.283032793062995
Sb 7.992356853076761 9.026674279511273 12.62496660964968
Sb 12.745436315315427 15.869063237715828 9.206632979807889
Sb 12.25201240654052 18.429843566114716 12.54540772481712
Sb 13.748264114283591 14.002881910716921 5.76022742876809
Sb 11.101739366900372 13.521843393497644 8.925475532000464
Sb 15.317390935601937 15.51611082854897 7.596634128648605
Sb 11.370762113392443 14.237203067108323 12.805455492762968
Sb 9.611706898726682 12.440802748387759 17.112342545955876
Sb 8.33572980302275 9.850054975651636 17.146524015302024
Sb 10.816644217280643 9.29266497871348 13.399448943432173
Sb 10.570353256927161 8.356957786096892 16.13231065188375
Sb 14.56752664804641 14.169160508300408 11.567787647677376
Sb 14.580170952180696 16.722000394183233 13.017212187919306
Sb 11.897475564181095 10.60198345790447 17.476197760388708
Sb 12.937265603991891 15.390274052117833 14.974382497741889
Sb 12.841809700884257 11.815215757902372 7.37829934657361
Sb 16.52521980501211 13.722706058443402 9.444918660976384
Sb 11.8317300378542 6.719469331170371 12.395324189426557
Sb 13.137898784849584 11.18647004117128 14.936255516238695
Sb 13.866112857567728 7.959533512083721 10.74932744019722
Sb 13.560824449545171 10.815740843465335 11.349963983644287
Sb 15.172172395694947 11.189182190443695 8.9123122822425
Sb 14.850112601640078 13.349450302100774 15.786725128996615
Sb 16.565412935880694 13.270136016701214 13.457483388715962
Sb 14.519424284538443 6.942523327632363 13.37552290247216
Sb 15.273920465396717 9.253383689941101 14.982143839916708
Sb 16.174744261482424 10.511698837278823 12.550249273637569
