34
Energy = -131.43180346 eV
Sb 17.503206931178315 12.209395934493218 9.496520960482822
Sb 14.041628103514979 15.595297461792278 10.598208900674171
Sb 14.770014438471696 12.845677323169445 9.337435048944721
Sb 13.571754129770277 11.646984352652265 11.644802718757404
Sb 15.590688015308332 18.07921389342984 10.98669181665687
Sb 17.473851411039057 9.441490622669575 10.412221175479372
Sb 17.64017791273499 12.602562698702027 12.358679681334136
Sb 14.834399899859669 9.051177756226622 11.551810471584743
Sb 13.942717142030755 19.957891834089217 12.485334364928416
Sb 12.015318708842932 16.155317212165322 12.854505865484397
Sb 18.55002236227469 15.149896794143599 13.353661320226916
Sb 11.101752528494185 12.636622015470124 14.866196420239294
Sb 15.218272505749207 12.303018174181826 13.999159057596854
Sb 11.601678785286571 18.97246404136413 13.876403170255225
Sb 15.747118321646044 16.01949924783737 12.982499318107946
Sb 9.582565807380739 14.89321941211783 13.827639458087502
Sb 16.992765704177366 12.195083722110953 17.26845526754341
Sb 13.182918569651322 14.71367138092356 15.081486684730175
Sb 18.703822646145415 9.976085470297189 13.014439512777251
Sb 12.735441738830627 20.4601814839166 16.140376416593526
Sb 16.07033401089213 9.463810772352607 14.195028446302999
Sb 15.377800988525088 20.116358241509506 14.993567285574175
Sb 14.680314643511096 17.48772087456353 16.11592573983433
Sb 10.86850076618783 16.060537576382842 16.25530098510702
Sb 16.994928571321903 14.782744225896701 15.810351116478316
Sb 10.335807014037863 13.466633144184115 17.549935661773205
Sb 14.275265595229698 11.379494659137702 16.879690498840496
Sb 12.562441322915994 18.218578438637618 18.066257529886528
Sb 16.573619412551714 18.234354975242958 18.220751811047077
Sb 18.38797448282157 15.92230991427089 18.106775957704077
Sb 14.412481359058907 15.15755976373142 18.494885721259973
Sb 14.568363008939345 17.529983451974584 20.16929982451122
Sb 12.801333604997332 12.795314506193279 18.95430030107846
Sb 16.80499816330277 13.994127230849482 19.565680096797585
