30
Energy = -117.37733806 eV
Sb 16.606265482101612 10.750586139626808 14.509386093937557
Sb 16.12043741029626 16.685364054809476 11.39721241528473
Sb 8.98557362151752 10.096712374733942 11.382552237543562
Sb 9.934213921273567 15.365025713279632 17.084852684833898
Sb 12.434870852885828 15.102437981750654 9.360882144271411
Sb 13.732851132945331 12.596456246759846 17.283417617959376
Sb 14.552433791586521 15.329683375157455 17.671909436246306
Sb 14.406858163758338 13.023336999209723 9.115280710309289
Sb 8.220783600544038 13.762859566599687 13.98826298158844
Sb 19.25577514559383 14.27760328389423 13.439793714559455
Sb 18.65575398007464 12.85726941787798 10.984862414170559
Sb 10.60142955851845 12.277983427912282 14.477657274762663
Sb 12.680031512875384 15.052496902787112 13.869688721801127
Sb 13.473227013405369 9.128817489563072 11.372154241092021
Sb 12.609103088283089 8.797779254351349 14.001884331567027
Sb 13.807038196695272 17.142128776631935 15.53691699885016
Sb 9.992719229021668 16.082195789888424 14.28962153957309
Sb 9.809303060648109 9.55782428073953 14.099371044863416
Sb 17.009738735485417 15.989339143968794 14.018352532692711
Sb 16.64606313048652 10.786476949552709 11.59984502210718
Sb 13.236566440139887 16.785859782082664 11.55970362977692
Sb 12.189560079161422 16.948502161353684 17.914669425070368
Sb 11.47701806593639 10.520704297903206 9.934240595492936
Sb 13.802726813563496 11.485769537442843 14.489965588680105
Sb 8.571536868793796 12.985566094730412 11.210394540010107
Sb 16.833886939829476 14.577787400049834 9.539693522518654
Sb 17.240428258954527 13.414261330505756 15.336958833746326
Sb 10.857157901916523 12.641925519531807 17.33441622792007
Sb 11.479463855099072 13.08129900319829 11.275319963090045
Sb 14.819073241404107 12.937836455481248 11.962621242794967
