35
Energy = -137.13847828 eV
Sb 15.9138006897516 14.157503663988674 12.459369331022213
Sb 15.515144396200833 10.555316108095484 7.337748316992257
Sb 15.798840561713776 11.467813078958638 13.525152747768102
Sb 14.668314741344593 12.12995944405657 16.07519973251663
Sb 15.599389931613123 13.28230504278748 8.302034201467372
Sb 14.915606015667652 7.849104485173481 13.087593212704306
Sb 14.387643124363604 7.6744086157233165 15.902214613686384
Sb 14.32037268946446 15.953014746461744 14.099062329766706
Sb 14.604435219956631 8.91935029056455 9.479793670453576
Sb 12.677707896927457 14.155558004052974 15.649442799682689
Sb 13.446140838576245 12.397398094110065 6.571581018902185
Sb 13.871793184357035 13.356064497498554 10.621687238881714
Sb 13.498241012136907 10.217571565941332 12.225399385853697
Sb 12.804037359304788 9.974642588252108 16.618649790932682
Sb 12.75760213718739 6.218305078360478 14.025900653987447
Sb 12.815429304497004 15.916149583424188 9.868586656785906
Sb 12.151520663024654 7.5129844153180745 8.921836346166144
Sb 11.881467893118392 16.4376377352712 12.547536570948097
Sb 11.60995372887148 11.80341853864172 8.717199573420004
Sb 10.596629523034798 8.921647923335637 10.90762572042895
Sb 11.127607103875237 13.695114376793184 13.193083975424411
Sb 11.335192038452352 10.429163624132428 14.259572776091366
Sb 10.7057045657276 14.518740631890706 8.351074815988008
Sb 10.386939859071992 7.821091223930249 13.628679578076694
Sb 9.858223146440253 11.150224113674478 6.561367228441595
Sb 9.219522941747837 15.036264274813082 14.925153784558686
Sb 9.922685423799996 8.314225464110162 7.151881081153017
Sb 8.828459561343502 11.88643649681613 11.433492834704364
Sb 8.269203966737043 7.958623674637401 9.495734631076761
Sb 7.469117838667869 12.963895543728178 15.891254191238735
Sb 8.161669108243824 14.09392142427285 9.663699498944759
Sb 6.58926069684893 12.130957404308983 13.266398821896203
Sb 7.356262520665631 12.124604398398374 7.6447017707989335
Sb 6.8003283267323456 10.417998693048963 9.906226652281584
Sb 6.477270987914257 14.900104152809824 14.025583444338086
