37
Energy = -137.86677807 eV
Sb 15.970600837852734 -2.1838746532041533 18.975872621500738
Sb 5.114253308832859 4.2103183742833785 1.8029982768149442
Sb 20.560933084218675 20.628264022975344 1.216913002984657
Sb 0.464445926824624 15.300789573325815 20.293653252170614
Sb 15.276498212189336 2.295577607537133 17.616797611542214
Sb 22.46049647574309 17.037200589174308 17.645051887042168
Sb 3.1665637222614085 15.408137452620034 20.49759769400549
Sb 15.658335808489404 1.806131817223589 20.324983879093114
Sb 0.8670779016012446 17.03475354861694 15.235202725069735
Sb 14.740109518781155 20.56902886391461 -1.5069984739453854
Sb 3.8822361640100462 0.7546163183827524 0.4394130597547891
Sb 4.140251045287071 3.1985887903436168 -0.6870701754040559
Sb 0.2225254286071435 17.499295758809506 22.170803399308102
Sb 14.237121608029126 18.615192875151774 1.1306942265467586
Sb 17.707145376875495 21.011697413485166 1.681255466968147
Sb 20.122442806962454 21.313069163381474 18.287715939078158
Sb 18.662742591234657 21.516499962352746 15.860282428252797
Sb 1.5208081609024573 18.85680380987876 17.404122479467098
Sb 0.93277170651743 21.28667099583363 22.842524955036847
Sb 15.147015702811855 18.229856762125767 17.473513985238515
Sb 12.699671210552316 17.333798015145845 18.359293075797993
Sb 2.683507227182713 18.26409440078229 20.997587636555142
Sb 3.0983042696794185 22.350600802467238 -1.853319485392784
Sb 3.597443658552596 20.118910614073464 -0.05898819819008629
Sb 16.542746633978048 16.045019907622834 18.72387925889811
Sb 13.98682255387121 0.03662957152396669 18.822228839044328
Sb 13.416040565304067 17.985263199422157 21.47809003277719
Sb 20.661571474556382 0.3270662858948395 16.558601695083215
Sb 15.4949517217636 16.016184201699105 21.426056438218808
Sb 22.311397680498057 19.297296688269977 15.810752059000425
Sb 16.738749625689984 18.981898379684758 -0.1623243450346727
Sb 19.389144057832716 19.238506579013343 3.1897770467670172
Sb 17.861795089616628 0.718830930134592 17.410483128362046
Sb -0.1649035205734499 19.82857148242676 20.529180041795566
Sb 5.699324627376569 6.650119999136712 0.9149242985544115
Sb 17.966570240345092 -0.3362777987469691 20.079961925613112
Sb 13.945323577420096 14.867193059591365 19.20185006011189
