30
Energy = -115.86035609 eV
Sb 13.227614655785858 19.942261891129135 14.599434112349217
Sb 10.911611188544327 17.10027113019178 17.463888264378046
Sb 10.934566484050046 18.96328490013375 13.201535788474056
Sb 19.396991142582987 18.9548992523636 15.564765132153038
Sb 14.375777437463189 16.677783795053013 12.365394369235139
Sb 13.287863272581953 15.928882157729548 18.571821315598473
Sb 17.10577907058786 17.266912926195534 14.936424707739477
Sb 12.570253215611451 17.099289947941255 14.696921787602907
Sb 9.368861848112177 15.087722046244185 18.517250720953577
Sb 11.618907973047657 13.959671204207394 19.891808069553225
Sb 20.08089920008039 17.18775874798875 17.76763567906705
Sb 13.40603260020055 19.358274463364175 11.782659335642307
Sb 15.17612833810203 12.433430183319857 17.063894912101116
Sb 18.231980469248022 15.936315427524654 12.688051247377965
Sb 12.490212796650269 13.550489643164273 17.170271294670332
Sb 21.615956317249125 17.16335994114579 15.353510418951487
Sb 19.1711688566792 13.418618486973516 15.81248364669241
Sb 11.614390317767429 14.216540939967931 13.110523966570549
Sb 14.902901743964945 13.777277844348452 14.521136531667377
Sb 17.52859309189371 13.204892886765837 13.423864624209765
Sb 14.521134276161892 10.911547052496195 14.658318760017751
Sb 10.62632475418422 11.613825609707018 12.402164884073047
Sb 17.776042638340762 15.518488304558172 17.126824477548613
Sb 20.65321049640439 14.908730487116955 13.858758881861663
Sb 12.792802602049868 14.914115030909215 10.77917288631532
Sb 11.681920549376574 10.36960838423326 14.746243181871208
Sb 12.59968388340994 10.998294407228862 10.438726358784683
Sb 14.41577760521525 9.057079656166398 11.547649273532874
Sb 12.422400060814857 7.961485957944002 13.329249443582844
Sb 11.892724624022417 8.185451970800889 10.497012173372944
