34
Energy = -131.53764043 eV
Sb 15.424195681828216 14.26115185562713 21.376929381116625
Sb 18.466422862370504 15.388879014117773 17.696677986941687
Sb 13.022032008709552 15.307161346738082 9.52558575081146
Sb 16.727384444241483 15.709292807267754 11.205428482251989
Sb 17.767567552770167 15.00565708985171 22.857150130977008
Sb 15.571230050843136 16.095679926722678 8.586266490406281
Sb 20.961613844193938 16.886661229541218 17.520791667781893
Sb 19.422792392320275 10.843452916037826 18.288715983678717
Sb 12.725142719959376 19.679537740802644 9.750275573963014
Sb 22.639831386046893 14.804160863342782 18.46883714519977
Sb 10.858723634409111 15.275197849906393 12.691699505782923
Sb 15.39847293627124 16.471526333066027 23.467337185746292
Sb 19.31390926814706 17.220870425450258 21.97693173200328
Sb 15.030069663925557 18.96047755849699 8.263413063928637
Sb 15.373660618513433 18.8067447679751 21.913812056974727
Sb 12.960363218849363 13.675229364954637 13.722333745444336
Sb 10.125299297118099 16.99690010083873 14.890190096315717
Sb 17.918160190954563 13.133105558222288 19.461143890299557
Sb 15.361204576845392 20.03905110055815 10.883158149447906
Sb 17.85605587962594 13.889513175898607 15.299092799188134
Sb 15.339055087271882 17.681605539297703 12.687890713703796
Sb 14.5125590822947 15.59320624648063 15.232448243853801
Sb 19.770099689675675 11.733945743022593 15.575130704292334
Sb 12.622129597288053 17.61105789085515 16.121689517590852
Sb 13.862038982067036 14.039933166431267 17.61289226599717
Sb 16.507758700788948 17.49582297290734 18.105035480347983
Sb 16.235210175821653 12.397934302998674 17.203128591808255
Sb 12.670327750090381 17.36072850370535 11.668131072434287
Sb 21.6600767367252 16.813538890484477 20.300358260706894
Sb 17.71667117002253 18.899330409918534 20.337684196091075
Sb 21.83556741841257 12.146980425389277 17.543036156835086
Sb 14.416128725222093 16.180578588494008 19.502960233238863
Sb 14.582409790928956 13.68197140887496 11.267947189644667
Sb 11.747294948390008 19.175860005892822 13.874916452989718
