37
Energy = -141.34945205 eV
Sb 3.632950700936276 19.928919351400094 19.5016720673548
Sb 17.21803849550077 19.18716972032866 0.028268662581803217
Sb 2.3927497256626853 18.669459539980327 17.286321097924603
Sb 6.194488649097296 18.444148077287476 19.024160560605097
Sb 17.113481161033526 14.030122751532488 22.02285964341008
Sb 15.821682046522865 14.793365540729406 19.706367682387008
Sb 12.537492454811323 19.37947566252974 19.186452670974962
Sb 4.141412190328511 3.8174121221566675 13.991289288423186
Sb 6.01204009044937 18.187028535572978 16.17746254494236
Sb 14.265428268957178 17.489299776079502 20.55169180816406
Sb 3.78769517893016 21.898630982041713 14.242178850251422
Sb 0.02662118958124386 18.299484403675947 18.98872452305344
Sb 3.3670618867282323 3.8863903590883644 16.594852461809666
Sb 15.63388671832422 21.843956468165274 2.3684000734607964
Sb 14.610271994053832 18.158235464396924 0.7208756472316722
Sb 5.048865147402747 20.850103109359175 16.659531934010776
Sb 18.360427089557554 19.034630397884275 2.683313998830185
Sb 13.55484198779972 1.2026599190030924 2.7295091208076045
Sb 14.247547453320713 -1.7449209228983757 -0.030276294733045172
Sb 2.430930532709257 0.6867118820038149 16.31554228214735
Sb 17.996936159830543 16.528983400348725 18.915667927672278
Sb 0.45367503298036016 20.52364365071968 20.741249857091056
Sb 18.400890078084828 16.54591555159182 -0.8882427103793338
Sb 11.943972159849855 -0.8954108750184505 1.5973712892327971
Sb 1.916037336494032 18.09829534891093 21.15998603059849
Sb 21.208571022922825 17.03681619480734 -0.30033771564225087
Sb 1.4217356005483786 20.73141071263905 15.46158141094633
Sb 16.365383198753857 18.924457510930708 19.246702294077597
Sb 20.554682544801896 19.800979618415 21.9228175084281
Sb 20.742502561624306 17.38320092381085 2.5483227089918636
Sb 14.367174830771424 19.230879062698577 17.200681071629347
Sb 20.918915970785662 20.24085901392089 2.1144332280202804
Sb 1.4439115526724877 3.747186423449891 13.02513115766641
Sb 13.350931068056354 21.37010566742474 4.082146197838763
Sb 7.793329858583041 20.140937048715468 17.326664881705188
Sb 0.6186169726614654 4.314185164371413 15.729899156655497
Sb 0.2915810506724218 1.6500212210297196 14.65974390312722
