31
Energy = -118.99577762 eV
Sb 15.455354281670655 13.51430546364548 9.047982676523665
Sb 13.380137848949094 11.842969499319391 10.32147244872358
Sb 11.650290179077096 17.561732553473384 8.896775205121372
Sb 12.403161046607027 15.192372512450119 10.361172925861677
Sb 10.64165010400542 12.926212157024286 9.823262889079658
Sb 16.99049542667836 11.28278150759217 10.226897167961454
Sb 16.501204354806582 15.05632867604349 11.230683035250362
Sb 10.560738763078255 17.12867085939169 11.521845447733972
Sb 12.789005489171862 10.23817366807317 13.572236695661488
Sb 16.48138027788946 12.516418102979634 12.772317558920319
Sb 13.469023744808828 13.011051704593283 12.943562747781623
Sb 15.018811822053598 9.330607687429996 11.30782828606732
Sb 12.93450022484214 18.734368263967234 11.20897385368395
Sb 10.321685390889861 13.401815430879322 12.638850429375026
Sb 14.958480996486205 17.118737839415864 12.621658657116006
Sb 16.57405872689585 9.490073434420196 13.720727438870394
Sb 12.844628307787081 17.450098048422156 14.631475327020759
Sb 10.79881900344849 15.445364155001108 15.275897916542581
Sb 10.044551774832073 11.145157127369064 14.42099291727416
Sb 17.005986194615765 14.766786168792953 15.242579367000786
Sb 14.831626217322054 12.948328102881069 16.19997679468062
Sb 11.639322611561045 12.800418177197436 16.201328805844213
Sb 14.640465806065828 9.887863048668603 15.752977280509539
Sb 14.169045356556794 17.97383086995714 17.164528992637603
Sb 16.89875036229596 17.346639927827486 16.580002504240728
Sb 10.87071933835626 14.95830924767908 18.129927463715173
Sb 18.497207680779105 13.81738520164291 17.601884717713936
Sb 13.731314129356882 15.273687306136445 17.925686257704946
Sb 16.227497660099186 12.33858394489162 18.731336440504133
Sb 17.677513823023332 16.18017326556763 19.127367699549374
Sb 15.40051643736788 14.728699428644813 20.205733432707948
