35
Energy = -136.94114207 eV
Sb 12.248446106910697 8.141142640930905 15.682062135014927
Sb 13.424460164007387 6.588120599452843 13.553125538237078
Sb 14.86547896738162 8.828622060157421 14.689977744531284
Sb 10.413622066116853 8.506220199410974 10.484942906818251
Sb 13.362365327754993 12.517474487118227 15.514430798137742
Sb 12.947307180411212 15.181846576393035 16.385370542693902
Sb 10.759820595255029 11.365699317888813 10.234215982932898
Sb 9.121665726811365 8.445973190456783 13.047905308118311
Sb 7.030356777868516 10.343498119261936 12.433745703418799
Sb 15.225577510365166 15.926372953587682 14.782295261168814
Sb 10.265263325271233 15.338432158893037 15.277430998087064
Sb 10.366134970804081 11.217948590976988 7.335806654260116
Sb 14.104868147738827 11.129860905043044 9.016783516324189
Sb 7.809001122473975 13.087837217661367 12.873731625137697
Sb 11.818793771757546 17.872422564946202 11.677408144545238
Sb 9.992242742040808 15.64973292480162 11.15198159861192
Sb 12.937141313948468 17.383609781418045 9.050427054501121
Sb 12.081091931226347 14.633009161557933 9.407158964576983
Sb 14.578501644509632 17.0672558096916 11.443710215947755
Sb 11.239396759321977 13.90184286484838 6.7385910817048575
Sb 10.689155268790389 13.554230305064966 13.046324439879186
Sb 9.661193605774983 13.503191668418 17.451608340025135
Sb 7.902799678041523 11.937891207378474 10.207387936279472
Sb 14.318008196474427 14.21731795846858 12.042550107953144
Sb 9.639628678531475 10.678271129805145 16.871053352332808
Sb 15.239530487487741 13.74079489225654 9.27941517899685
Sb 16.185070125276926 13.397900408087631 15.773448649309291
Sb 13.036548467643636 11.659871858758073 6.353015534297751
Sb 13.854541907695582 10.534231715278223 12.523292125460966
Sb 13.242809018459035 8.100298569940133 11.070935249031763
Sb 11.999044442387255 11.875962859984085 18.03736464444941
Sb 16.962968666489072 13.326781100592532 12.964203182802525
Sb 10.920900818084815 10.293655417576117 14.289522572426458
Sb 16.984083466661822 11.43088063123275 9.262838453521736
Sb 16.748290447880485 10.597907580315763 12.022047886118933
