30
Energy = -116.98123007 eV
Sb 12.177189089287774 14.133349330028537 17.381305009662473
Sb 10.772691339458031 13.381107008932647 21.963071276824536
Sb 14.076903042694893 15.437746811426788 19.06049511212855
Sb 18.92728465421447 10.480519664093817 13.349824786908409
Sb 11.534944593432728 15.879856027007813 20.812675349400983
Sb 18.42162284399455 14.348630836254069 11.52153758908605
Sb 16.344396113262437 18.06660611078424 9.085511418343657
Sb 10.397016176352482 15.604887997519471 13.036099229833964
Sb 20.893020315455622 12.064645568737896 12.445760232839053
Sb 14.828941458549178 16.55464780845289 13.150065570044834
Sb 12.712117631998835 12.947549554309914 10.835238131592863
Sb 13.9910170706394 13.758804701141049 15.006691289608087
Sb 16.283078814688267 18.713650379104898 11.876762122971815
Sb 18.503842556415773 17.230499225340925 10.832850999032297
Sb 17.83340947148958 12.041525254246611 15.453296143084396
Sb 14.953885556545748 13.604942065224467 21.117101811141477
Sb 17.839670457205706 14.701694042356127 14.311255250853934
Sb 12.915768680446945 11.612436780611425 21.075101604130705
Sb 9.727482553699268 14.263134796362385 19.462100859540968
Sb 15.081949072044145 14.517691941501031 11.133349498795729
Sb 14.98617705574857 10.800356984934176 17.985583289994285
Sb 12.218429807388725 11.4339125025635 18.328901715162782
Sb 15.100276019631117 11.098701362429122 15.100469925798487
Sb 11.644883584557686 13.025790817273602 13.522641241482651
Sb 12.320102625291248 17.71339805677209 12.4509759044099
Sb 16.153514102070158 13.336628973364421 18.523588152539066
Sb 12.057768289710273 17.235902273312995 9.608511327744605
Sb 10.565564564950447 14.825536698586735 10.205773989422848
Sb 20.60063210366655 14.72683433771305 13.447059207109616
Sb 14.456476467110326 15.911889602342532 8.763162531357723
