38
Energy = -143.4089951 eV
Sb 15.861454743437813 13.341531922322941 1.0558778038602692
Sb 14.838040864647509 14.316759088579222 18.949415734997846
Sb -0.6602469598972718 17.32390621323046 18.310589708515042
Sb 13.183718510602631 17.903506219045376 16.966299436951825
Sb 16.74638240287991 10.982858229092384 19.1089948614136
Sb 1.65247470200945 -0.12676965661249967 13.452902341693546
Sb 13.62838785755591 17.624694697522767 14.26876196851446
Sb 1.4801364113658533 15.605386828462674 17.398571927690693
Sb 17.224132403928145 3.163888936160638 20.580491584579555
Sb 18.209944700853388 2.2461844260751533 2.278050880671563
Sb 1.9435009487409682 19.154304418168806 14.139851009950524
Sb 18.455023307132524 2.4470077784383597 16.732689579635526
Sb 2.9425359514783076 19.716885559829855 18.408212144778577
Sb 18.08024503872387 4.819435682437682 18.370529136551546
Sb 15.184198184982343 15.396312121017914 14.832701122332912
Sb 19.001305401378783 4.297349342361814 0.4331525582821239
Sb -1.1073888091114392 0.7063654356640744 5.256851525018719
Sb 19.879561439444068 3.275583637379677 4.403101687760629
Sb 3.901026909336047 17.217198302503952 17.53564125883279
Sb 14.805681727799282 11.86394792608515 3.4419877640243923
Sb -0.36433286173737434 21.576164908232638 2.783375673576213
Sb 14.571869021226183 10.819511302823441 0.7915089469781298
Sb 17.244103106510437 13.464196402644843 20.262629725912653
Sb 0.6292475285142051 19.413586659645578 16.732226935107516
Sb -0.9076534556628434 -0.18000781017943343 16.81707693179557
Sb -1.0553928300438926 0.6759595814617604 14.055260579214465
Sb 20.64527148735841 1.6060660873100323 0.8621812312380852
Sb 4.307528594052674 19.572490554022718 15.574191901395373
Sb 1.074428933419419 1.5902320341679077 15.717966237299411
Sb 1.3738306583269002 1.459357259569761 3.974403238286275
Sb 2.494683550329806 15.896027330537395 20.081835183651442
Sb 15.686214144475725 16.573703396443417 17.368254138949613
Sb 22.024644246725252 3.5817366831071373 2.4799058232894433
Sb 15.375738886068195 12.25676034900363 17.075941119973837
Sb 0.9410365867089747 18.239222723827275 -1.5966325808565984
Sb 19.209015147550716 1.3643968169564706 19.327603288313288
Sb 17.129929614653175 10.98268423033642 2.044888107028399
Sb 20.67935095938289 3.533318716395415 18.14035663235298
