32
Energy = -125.39826821 eV
Sb 15.028996466881464 8.839923202631915 9.95978477254701
Sb 14.77869831607737 8.672490164623603 12.872001360208603
Sb 16.63980116757684 10.895197910938718 12.770470481609655
Sb 15.706476047063099 11.634187535104552 9.286934699192845
Sb 10.128751616094537 5.831399896471926 9.904556875353776
Sb 13.337098781171536 11.632790281405983 7.572451083095758
Sb 16.885035910339298 12.875422891845899 14.933643388979656
Sb 12.321251661582261 9.75815142944522 9.558887835696202
Sb 14.613258761881783 12.647043277767363 11.7557407749381
Sb 12.41881618328617 10.335967436626412 12.9575490253336
Sb 16.43404095798355 14.68270504033479 12.73082965102435
Sb 12.8178032059841 10.66942711805812 15.813128557009538
Sb 10.476421252169535 8.505411105979139 14.152701893475502
Sb 8.867313726287568 7.129964365824972 12.184801424909741
Sb 14.524303822118817 12.838447484776818 16.594488967781576
Sb 8.48988406470168 7.676448745343397 8.336466681074674
Sb 11.337470552084874 7.578685393513672 7.9961717061068365
Sb 11.942625997753677 13.308566542394047 9.473345475134025
Sb 7.588198290346414 9.200400581528038 10.660604637721615
Sb 13.34036724952933 15.399657779034124 16.135496715426715
Sb 14.53441110910142 16.58307951940388 13.775887472903259
Sb 10.272129605450406 11.98358452184117 16.222397097126468
Sb 9.37764086367127 11.385252210590373 11.358157367237556
Sb 8.622892864664943 10.7161419991957 14.148668160138314
Sb 13.076131883770215 15.98475496116139 9.469117450014187
Sb 11.127971022464962 14.08513243019843 12.70212188775056
Sb 10.595978445731108 15.39203140930395 8.055807408082027
Sb 10.612183381390032 14.767470982657413 15.422162077997214
Sb 12.138888610383372 16.703233741988868 12.11018669467638
Sb 7.202190290553197 13.26049398854923 10.96899748863993
Sb 8.185935207906802 15.626885122440035 9.615110347456438
Sb 8.534232175797577 15.356850420820582 12.458530033157613
