36
Energy = -139.44306044 eV
Sb 19.128670050773188 13.864270946032809 16.505836166619275
Sb 19.643788372080486 8.833057047555247 12.092623421277976
Sb 16.785722641836436 14.6506383149824 20.042643250580948
Sb 16.93298776300274 12.680519133430652 17.966263946415864
Sb 18.860281661439746 16.663288128583282 15.935706427851889
Sb 17.621961802722613 10.181642681260882 13.598081924001587
Sb 11.656892336516313 11.755518067815945 18.72446488619406
Sb 14.044525956394896 15.487311158197935 20.110109634806367
Sb 16.061670982324717 17.311906324456753 19.18891336597446
Sb 18.725023902850726 11.465671723614385 11.298205388399888
Sb 18.711539361483762 14.725126488498146 13.78843714233451
Sb 17.01958604071722 9.188390652633696 10.985945319304012
Sb 12.728011400701227 14.375499795844753 17.775279512808766
Sb 16.254105064806144 17.82772350501731 16.353002108839796
Sb 13.396814555393766 10.432058011592373 16.898017999421487
Sb 14.692068256851046 13.004593258461027 16.18425556895242
Sb 12.588146762913905 18.666965287677026 16.86114242003499
Sb 10.768859896770401 11.273547174025124 16.046823236078044
Sb 13.877502342518557 16.353845103893875 15.61031602380158
Sb 15.888588529466627 14.855826030984403 13.231126710598991
Sb 11.632784297899908 13.685085840633905 14.583749780319186
Sb 16.115821906455682 13.864349249145649 10.558253952104756
Sb 13.443600514256975 10.286614765564284 9.928096108101613
Sb 9.869934273461329 18.1347845423592 16.125632938682436
Sb 11.553529536755715 19.731668095367592 14.38322613542257
Sb 9.366962122408824 15.480030214000687 14.992774477699815
Sb 10.947639248154521 10.289301889944367 11.418978451199282
Sb 13.01932842648019 14.23382267262133 11.044525922997309
Sb 12.50338311798173 17.333782684172462 13.044547204946278
Sb 9.748540144033933 12.648714877968546 12.590461691761654
Sb 16.36328816549336 16.67761494974688 10.990987386740619
Sb 13.061621023506467 12.77828078148354 8.545404508121605
Sb 10.946052593723167 10.77212772477305 8.581550591602074
Sb 9.75074404342411 16.73630606776573 12.430029025269459
Sb 13.535563869968817 17.04902783836445 10.37413688955888
Sb 10.06541154145767 14.627551509110935 10.561565982024582
