38
Energy = -138.32021684 eV
Sb 21.328150596523034 8.048810659455606 19.990382085770644
Sb 25.828338761073965 23.76419718758101 12.459054539263374
Sb 24.341963568482015 21.02022461819897 22.878756859415788
Sb 15.09362406668334 24.11767800127274 20.70749284406051
Sb 25.304351743978028 14.172819617866999 23.892744198212142
Sb 2.3904202723190067 1.2119599915614627 21.09804774190406
Sb 23.572947092637133 25.632138674579338 13.700340803910857
Sb 20.801661962963774 21.730502136788406 21.69709513206121
Sb 18.54137017605083 22.78983720126167 20.12719475204948
Sb 0.21978383931233836 17.74523315080151 24.064824984450116
Sb 0.7922530873044772 21.43969379532375 0.8766291572167029
Sb 1.9200294157749396 19.914437560376903 -1.3449554218816233
Sb 19.993311736966003 6.981428051189528 21.8369527824528
Sb 1.0404187417193982 22.178833305574422 23.4155511238493
Sb 22.824306427486746 22.387565922347154 24.845562470454396
Sb 17.78228122904667 0.07432376337047164 -0.3162213598209742
Sb 25.989130957773988 25.01747136355323 14.941110471010031
Sb 23.412146233876506 24.37882207158867 11.218380841365779
Sb 17.747961619120368 23.669426412232465 0.44964402981376
Sb 21.459559552916733 24.207943856133852 23.053882164733373
Sb 16.3354502492527 21.67370554185158 21.62308630130083
Sb 13.528090686520244 24.674343827932756 22.898292268154155
Sb 0.5474330543234522 16.947671302958327 0.44395218596816427
Sb 2.0885980666967896 14.486730702878996 0.13566036742494378
Sb 24.070095339496593 18.932780769815963 24.719804713091733
Sb 0.6437027234174485 1.9610296946094523 23.10478436761397
Sb 1.6556623117958098 13.843452390478665 23.713627135129585
Sb 17.602786811994626 24.08515944576398 22.504475755743737
Sb 13.943770116402916 -0.8717347473012698 1.0605455039061527
Sb 2.7586437424368757 23.135104341392992 -0.38922831221533216
Sb 25.54791315980032 14.399856758392481 0.411864811691434
Sb 1.154106401517785 -1.025740386523 0.4765785929262209
Sb 3.047423740492387 -1.0258140634966328 22.594230605995158
Sb 19.574817061252006 22.439014337365904 24.23743561112469
Sb 16.563552953392865 -0.6626504815657237 2.200473491970022
Sb -0.6374598602620564 23.321281616411095 -0.8370830042956562
Sb 15.519227310701435 24.771029139275164 25.107665430083802
Sb 2.468345287710752 0.641643997014423 24.841089316210304
