36
Energy = -140.49476744 eV
Sb 14.867492559236245 16.5623335925749 14.169425510095206
Sb 11.670619225942007 16.261000655622585 9.870243598751559
Sb 8.7906743773767 15.887654745340551 9.530334976442912
Sb 11.518887829408467 16.749021561433892 12.709531326923308
Sb 8.589379052555751 16.807478634794204 12.265406481782511
Sb 12.05362141573372 13.883833641604806 6.887754835027422
Sb 17.73754420240871 16.5445049931198 13.818776436794426
Sb 13.648652995837203 14.258360715638599 9.250072979342814
Sb 15.311371987676631 15.800586404176002 16.90979193335281
Sb 16.08687216173946 14.446546356576878 12.636792516366398
Sb 9.692584274465954 11.999731597344503 10.693819949369086
Sb 10.339327166356027 11.605712679063902 6.514314451376074
Sb 7.435227097847446 13.364741067169515 9.530893131623682
Sb 13.169777345534845 11.490410429395604 5.802370179846345
Sb 8.590681122300095 14.429952715884026 13.894998216218278
Sb 11.397025034891671 13.914638581510829 13.394951770903209
Sb 11.41715023882908 13.783744015940435 16.32775396234339
Sb 13.000246602536823 11.70769595571933 10.43152235194692
Sb 7.308920690104667 12.440408838762234 12.267166878279923
Sb 15.527919695242483 10.96374959092933 11.649786685950827
Sb 14.040162363597073 13.290957439362286 17.483037102111375
Sb 13.69761232596208 9.947146149422156 8.245050155029874
Sb 17.50853420573247 12.801154849972509 14.517373256685845
Sb 18.013813959128235 14.991625329827526 16.29979499601019
Sb 10.943064749247293 11.114178470270504 15.197885765584624
Sb 10.980283051444337 9.093970152055906 7.820711206145439
Sb 11.295819596114315 9.216389353983493 12.413162996037489
Sb 9.363953916168533 9.166417680072662 10.230295301748356
Sb 8.068880497969763 10.423172974407178 15.192607119986226
Sb 14.049592228885228 10.426759674513612 14.070362413336843
Sb 15.754324594750868 11.329708796077572 16.216750455265853
Sb 9.19678658030407 8.011817919878645 14.155060251535607
Sb 15.385116227865911 8.085068116471994 11.09473734829834
Sb 9.918115421124817 8.929355442057853 16.8011186734103
Sb 12.936665704518317 6.877985919977911 12.01687584438627
Sb 14.940362572120549 7.639248030004294 13.93653201264847
