33
Energy = -128.15506547 eV
Sb 18.653071710667664 13.75499734535703 8.201914898601709
Sb 19.019246419465528 15.648495316371642 10.334247743140997
Sb 16.66074422223348 15.76051823975822 8.73179900622951
Sb 17.039147950976872 13.603485268013678 10.564695721588807
Sb 17.16137668210142 17.495885653711632 13.348128513515324
Sb 14.88042290939167 17.283101906109003 11.601987773549169
Sb 13.327897064397199 13.31422368356459 8.692968345393783
Sb 15.308913675762277 19.708489390516444 13.081683193856522
Sb 11.792642639811737 15.709039643752432 9.084077018449625
Sb 16.14997464951718 16.924768140703744 16.037559344755998
Sb 10.46920672183898 13.275654774658053 8.33122679581257
Sb 18.26785297539036 10.997061864510949 17.06919537078546
Sb 13.584458664037992 15.263744806942587 13.164752674283429
Sb 11.153574369358598 16.1666147842766 11.931223603584545
Sb 14.427355407902896 19.126957521278392 15.763714125541943
Sb 11.590909707085979 12.513974218946466 10.861029287743207
Sb 16.75063572360239 13.347781135777938 17.801143353165394
Sb 12.559659225510948 16.93485752391992 15.280024725747367
Sb 14.086770575228664 10.683100795040618 13.994155291082413
Sb 14.270827569310244 13.17704009265149 16.35192720874945
Sb 10.989779290200875 9.688891651565859 10.75267815267994
Sb 9.389043679055433 14.387853404825233 13.420183926375874
Sb 13.438793080030798 15.58145044014858 17.65971839395485
Sb 11.417628620106525 12.386721561740895 14.237970209964836
Sb 16.280410971878908 8.98222157981976 17.611339724001
Sb 16.86098364468074 11.031780988405957 19.559463342686847
Sb 12.35229365255751 8.56781328663549 13.022825796732883
Sb 9.886499258522381 10.008167489116364 13.403181620972855
Sb 13.62879012474203 9.280378074470097 16.4490791038181
Sb 9.608242063414064 16.244047597350544 15.588098937612417
Sb 12.94957997041402 11.46925051286128 18.2044965747694
Sb 10.53234372146198 14.763134700118849 17.841787234662515
Sb 10.411374035916415 12.024808641201632 16.93131679979745
