33
Energy = -129.33691334 eV
Sb 13.009906962029726 11.815742200356594 17.577606942968142
Sb 13.918640068969518 14.432659988268988 16.875605421179305
Sb 8.68055273172746 12.590376941898867 17.21191886467622
Sb 16.77448792800738 14.434854448573649 16.689983258298046
Sb 14.301566277014357 10.075921995983693 15.67324596815936
Sb 6.501428671869944 11.199402282152306 16.027337460448226
Sb 10.974505297833456 12.050400109900709 15.514496487871847
Sb 17.459756472329047 12.29731783673345 14.814824943939414
Sb 7.073998712897288 13.882643671528815 15.19933365119844
Sb 11.53662148716963 9.251619289422925 15.163336197868231
Sb 13.660005634657814 14.362646878124282 14.009412699490833
Sb 16.0202876263497 16.095970333611792 14.415376078363614
Sb 14.957549747261627 11.861198322618135 13.507646446991663
Sb 8.369343201380342 10.267583414375144 13.825915478328346
Sb 18.22414218108796 14.633464792307148 13.307204715359102
Sb 10.468423383978964 13.029388388533047 11.84408684111203
Sb 17.437570662663532 14.615067571299011 10.518302763943696
Sb 11.102367886841224 9.692815799040943 12.331255398584885
Sb 7.671920266073327 12.729908218998668 12.566132810291956
Sb 13.572250360070823 12.035457534342044 10.426742291499368
Sb 14.620602592719182 14.712642122852984 10.31906966399382
Sb 18.12755713432974 11.995201753661329 9.618561976602347
Sb 9.77360356994954 15.410354019579419 10.226578092815952
Sb 15.734472509523538 10.44509216732244 9.391640729095826
Sb 9.921686098950813 11.467155600742059 9.450685231636726
Sb 6.973000175486261 8.445182010226759 12.102215247002892
Sb 9.57319665244512 7.4009619510062326 11.347637803187073
Sb 8.344505614583834 13.687606157664158 8.417387900704055
Sb 14.86945325380083 14.415929527393764 7.466510623903728
Sb 12.65879039817592 12.518136646775575 7.663032168984145
Sb 16.58290447260839 12.087696585456516 7.191935185383991
Sb 8.141275745895635 9.157482699488927 9.576505010966336
Sb 10.888399123414773 14.826891641855982 7.653248547246735
