37
Energy = -143.66487454 eV
Sb 10.91738946779475 14.84385510558208 18.61503210171887
Sb 12.842057646664042 12.816116992758735 18.745494879575737
Sb 8.49335318333423 12.913824046217687 16.55697758291702
Sb 11.03538509629352 11.519230948098006 16.628432177460216
Sb 10.192454223381821 8.820328245159883 15.782677314397247
Sb 8.777128566324796 15.684071010042457 15.75107920201539
Sb 14.293501414922675 10.62923566377803 15.317658908913545
Sb 8.396727746499286 9.159345240951453 13.561246453197118
Sb 12.741954639033194 8.116885881774753 14.760842183806758
Sb 11.539302795181028 16.30553157914037 16.25430786085928
Sb 14.910918934782453 13.452517283622914 16.997664117316077
Sb 12.192725584720826 12.219286915597246 14.114009307763498
Sb 15.96574114963719 9.812156468467695 13.07291537284253
Sb 16.84273471950609 14.458320920294149 11.307881122908114
Sb 13.488045370949974 14.685634201214446 14.854439945071446
Sb 8.364641427957899 16.0990746890026 12.91270858401041
Sb 17.785493021748362 12.002244338870412 12.59607592233632
Sb 12.281134056029458 7.821449443812101 11.935755982375841
Sb 11.833666654760608 17.921045934140952 11.073626565121515
Sb 11.079708379639158 15.450994321537946 12.289858817522282
Sb 13.952236946499038 14.055639055459732 11.176874115807124
Sb 13.890427951579438 10.097162879771432 11.081643169031812
Sb 7.221135616041841 11.744103685215519 14.20720695330323
Sb 7.075073390805324 13.677987271422225 12.051537512648139
Sb 18.367577965801807 10.988999622776415 9.947810272199632
Sb 14.185685264273902 16.793861922320293 10.25532870934627
Sb 14.504759123595164 8.122155879333851 9.009581215774585
Sb 9.84258256847103 9.129665694936046 11.071791680682805
Sb 17.955523146892048 13.617960015146078 8.751581478940661
Sb 13.001837327451238 14.206431644553263 8.428175206440539
Sb 15.801428866548287 11.726368829911591 8.869013139514175
Sb 10.95242061612576 11.767171637233162 10.838872255340686
Sb 15.749939026451228 9.649254419100819 6.889575371190153
Sb 12.871873058295007 9.420118979240184 7.010122181478343
Sb 11.413910790804028 11.745811058800086 7.974170488552932
Sb 10.446088219892992 15.358413619728152 9.459093452422715
Sb 8.627946946442812 13.002255460119537 9.683449300329462
