34
Energy = -131.7171261 eV
Sb 13.94867997248737 11.309005456410596 10.236891897585553
Sb 13.263343074660629 13.805165851915614 8.948042821773795
Sb 16.47359618249045 16.629382665513766 10.697489074944821
Sb 11.792220766740073 10.62212761128733 12.038896365455567
Sb 13.929928466883371 17.4831122869765 9.66176066047401
Sb 16.126213868147687 12.910420275306462 11.367638658556045
Sb 12.949889717282751 15.351460949369567 11.404306105419806
Sb 17.847240641286792 10.67774989086556 12.322277409789207
Sb 9.612236308545265 12.133421368631582 10.942944085227893
Sb 10.648256703915115 14.563716763753678 9.81197460041729
Sb 14.131173624461397 19.938994076899217 11.276177456415427
Sb 15.369043868694584 10.202722786996326 13.626072750366385
Sb 11.571460175717132 12.486642814771303 14.32196562914006
Sb 16.872921534405215 19.25531712022476 11.897822414098622
Sb 15.040533880036486 13.090260147873238 14.084904792528095
Sb 13.170434588861488 18.23116600056249 13.438056821310262
Sb 8.751181008809 12.600810014080682 13.748587127714439
Sb 15.845798854287429 17.07130957091436 13.52333565746952
Sb 17.964424880537834 10.91636902992817 17.026149623191714
Sb 8.574045633429506 15.243721203761943 14.777481963772763
Sb 19.20133951410299 11.911819975344285 14.58199431114886
Sb 13.431018863193005 14.934026718117508 16.669962962777024
Sb 17.71986995993975 14.37393286493968 14.31144429725228
Sb 11.254807395746218 15.767238995400481 14.485993284933231
Sb 11.223094425983632 11.0355249687244 16.877151040074516
Sb 13.89551162460068 18.89644022094311 16.18610247497268
Sb 16.129687445472765 8.893927241064356 16.0914578749173
Sb 15.431728499983082 16.795537336541752 17.598234731273394
Sb 11.618224068171076 17.274945002533354 16.978038538969418
Sb 14.100850572348563 10.801312655721658 16.896541519768896
Sb 12.13770225553127 13.160853970329455 18.684165436819658
Sb 17.937738278549347 15.335681077534131 17.013095630552733
Sb 16.06371647475949 13.118846938151139 17.44568376812665
Sb 14.501509470395488 11.7064587490684 19.556780813218296
