35
Energy = -137.34415658 eV
Sb 17.62402902220727 11.327479580435648 11.847247153239328
Sb 16.84887090927855 14.023687027572908 11.234533220639557
Sb 16.595484154991112 11.616411943478068 14.58118673707037
Sb 16.610934062510346 13.93761203521737 8.369945391975072
Sb 16.358686283295274 11.046341446892454 7.987986338360707
Sb 15.858280190050106 9.558105402663779 10.394905666165794
Sb 15.390579654266464 14.26054416142197 14.438468408147955
Sb 14.107230080429453 13.495814775416672 11.9452633555965
Sb 13.818092493029225 10.8588739648003 14.242043884390743
Sb 13.792955390018168 11.084822674846205 6.6718018662207506
Sb 13.01687153162092 10.098790924965321 10.91678075933062
Sb 14.010288235241196 15.252936561099844 8.104129509376063
Sb 13.491807128222947 16.106211809808627 10.85580336982408
Sb 13.223951315455778 13.041927388878431 16.11300670059497
Sb 12.273641887497384 10.32919624055757 17.695630656947653
Sb 12.594457593079063 8.954093022079036 8.230468639424876
Sb 12.795448638029612 12.739960200077915 8.75615194436868
Sb 13.257474158153762 8.444413148619548 15.778932837352574
Sb 10.599001249755036 16.37667148854487 10.658222076953454
Sb 10.29551972206216 12.78923696036942 7.393499907592053
Sb 11.090312950507542 13.428424037649275 14.087978595777843
Sb 11.586287375996445 7.5440861916446105 11.46221078957294
Sb 9.85730803800674 9.948718047022497 8.004793496238278
Sb 9.77447743185101 9.893320905718491 10.895706714038617
Sb 8.838611169599256 14.474854560098388 9.256050745018754
Sb 9.973870566805193 16.107334520429454 13.508854464768605
Sb 10.890401085646477 7.578361859384592 14.283369490679684
Sb 10.02378835025275 10.314265934179952 14.245125803660443
Sb 9.34986773969102 13.428298395613377 16.415609218349807
Sb 9.495345503594017 10.58049614209906 17.041721724618043
Sb 8.75912060798459 12.86339140715515 11.608722232829018
Sb 7.3285754767445725 14.930915748680068 13.004192747009533
Sb 6.923409385327166 10.67331335588203 11.196966413909673
Sb 6.807523799486663 13.01912733199834 15.125605993787575
Sb 7.154500657034539 10.288964642420044 14.064086983891196
