39
Energy = -151.82168193 eV
Sb 14.498926090510446 13.155186220337287 9.000316122197182
Sb 12.991182578252554 12.222465138550303 11.398370543743077
Sb 12.167631207898863 17.35147028337928 9.507878368104475
Sb 14.736890620760608 16.067401197649826 9.159060762438427
Sb 17.236336217297723 13.86048662967555 9.694522427888325
Sb 11.560274981207813 14.917461302488338 10.962012317165534
Sb 18.006365878781494 11.283200573225933 10.755987152018854
Sb 14.198434223917525 9.898381976541438 12.855982912022396
Sb 17.55423729842222 17.46169842982575 11.808165426916476
Sb 8.921469982682067 14.053980337540285 11.766459843080048
Sb 12.789188025227764 18.926420232367974 11.861479897919281
Sb 19.097884051784362 14.719470332549738 13.278596650916223
Sb 16.4296102447439 11.638765647016395 13.106408811752846
Sb 12.625908323908245 16.436804368819622 13.367511448789212
Sb 12.684562882503661 13.490466875181538 14.37972453668202
Sb 20.07974035259524 12.0907529151818 12.641456653292437
Sb 15.671506741686875 15.238098983153218 11.775915928010303
Sb 16.709532846292152 14.441944339363355 14.971488546633603
Sb 15.55853698786314 19.642501013520317 11.913025253493153
Sb 13.982468888300488 11.157762807138294 15.484730018773734
Sb 18.6506678315218 10.59622781909291 14.671498417163704
Sb 18.31773939378558 18.46610895879585 14.423736916108176
Sb 9.948288524984758 12.594706181370945 14.091378865299243
Sb 11.846295872561127 10.08548928646387 17.141622149244053
Sb 10.206218375617421 17.200830128377767 14.764770471623756
Sb 15.678216959638617 19.643495879007727 14.82089535330193
Sb 18.32003196481973 12.69164135416076 16.66482358025827
Sb 12.740515068071185 14.374095773185207 17.222194034711826
Sb 8.39630705240278 14.990567835728115 14.41569682362823
Sb 20.288330315915967 14.702548335875962 15.914257712000044
Sb 18.03824339808339 16.50933338659842 16.544893327969493
Sb 10.581210424135273 12.561002455941159 17.855263993733228
Sb 13.933255478944512 9.903604379671675 19.099432446037124
Sb 14.47529175652522 17.189876132840237 15.747668598931815
Sb 12.628701149262684 18.74880872568861 17.12199287980629
Sb 11.301978363490935 12.767385734038198 20.636695927411896
Sb 14.152565126284427 12.415924561349625 20.478868557885225
Sb 10.845554399786005 16.527127635954006 17.484548031063333
Sb 12.496057120752662 10.322662833574283 21.556825293205787
