32
Energy = -125.33537435 eV
Sb 14.571556243184597 8.799166436353604 8.531677089601656
Sb 10.517948853920725 8.45607516096071 8.194554872568645
Sb 13.511574102492371 11.995152942882067 7.204705360757947
Sb 16.042285794883412 11.299026850089776 8.42635526456929
Sb 14.745546285508517 7.018595118853127 10.8780161405189
Sb 10.001556257214846 6.79859862863486 10.528453578820377
Sb 8.394136857902236 10.370127395215746 8.154398360835554
Sb 12.370906038503396 10.40680950410315 9.390382742046533
Sb 12.266490492722086 8.063105220744111 11.932009489063114
Sb 13.756964352655915 14.702091311585848 8.224040559588484
Sb 8.862519960914119 14.820030194385172 8.511752471364522
Sb 9.431949701591797 12.431460203733604 9.989997920139094
Sb 6.624055571379352 9.592891447258516 10.244776967776367
Sb 15.709710130413669 8.610052739447521 13.090682371401993
Sb 11.343759919720224 16.32515727898926 8.545346187620654
Sb 16.06084502569571 12.41776908501828 11.117520854818922
Sb 14.124307281091365 14.480496189397023 10.999958797428757
Sb 6.776521966636363 12.391468668878458 11.019771021729214
Sb 13.955137558536032 10.84203107325625 12.342717810967292
Sb 8.26732786915771 8.309420244227647 12.236045476764279
Sb 13.522138053984744 7.275110182951021 14.46024369700365
Sb 9.993874545561361 10.536560809285609 12.917171716842391
Sb 11.299411040880315 13.94157527601179 12.282825157767055
Sb 11.130565496342147 16.74282508526585 11.406224706224233
Sb 8.290548445031982 16.291014695409835 10.969317399678834
Sb 10.110341470099971 9.816359379037612 15.730815646616133
Sb 14.224043129230962 11.770535938661352 15.059510545030154
Sb 12.909167925728834 9.489725471551997 16.240764644624505
Sb 12.168429979258343 13.799774824806986 15.066792717239155
Sb 7.6639650672758055 12.0207427941688 13.853433633633276
Sb 8.656909007956045 14.667547710566929 13.402290754914285
Sb 9.803128880619633 12.626325444360289 16.155069348138674
