30
Energy = -113.14175016 eV
Sb 17.61020322875717 20.715992506846238 16.694036705982047
Sb 13.382058272898867 21.40076004767112 15.785575931742207
Sb 18.408391862730625 22.790070755290127 19.010536716084246
Sb 15.504555929904134 20.08675480289752 14.427773486336331
Sb 18.089332905337795 24.91340492624357 17.07565857440088
Sb 17.527369410188943 22.992034570819598 14.908708513705307
Sb 15.258254337917512 -0.09981267048179562 17.785273678426677
Sb 15.729789284485355 23.204833248395094 19.859373127650468
Sb 14.813745540235056 23.85555526104861 15.26586082389876
Sb 15.089299497145234 20.923204438317406 18.052971285479355
Sb 14.42517686246655 17.458606537398218 14.150112410970058
Sb 13.56071758872509 16.48519760158276 16.70149664613175
Sb 12.976262829599667 13.42844868475837 16.397755535438385
Sb 14.835110283237372 12.027114677762512 14.73961142892621
Sb 14.903636042734183 11.710053227584357 17.649380852210424
Sb 13.282771936751116 8.024725247863994 15.821139222380815
Sb 12.381146619506671 9.960865597839142 17.58599004961592
Sb 12.248364941261448 10.256874231625691 14.626008878209333
Sb 17.105318593623146 13.130536401805756 19.50258964145515
Sb 19.360812995947853 12.85669938432945 17.997047288233436
Sb 20.12622509746757 15.150784734972573 16.419433300952154
Sb 19.06692281002929 12.906162916795852 14.966564843369898
Sb 22.23927050735346 9.685444291737008 15.79166036739917
Sb 22.026540386463388 12.197506220653601 14.591062336997542
Sb 22.244632651054964 11.87067756319367 17.437858104766807
Sb 16.893625411325 13.852645224336491 13.335251300152787
Sb 17.17447867565858 16.61739572703668 14.01594580153536
Sb 17.961260888204958 17.013882673763327 16.729359622854023
Sb 15.911261834602614 15.692499355451677 18.31649661504458
Sb 14.42449574166454 18.161759677620907 18.920499876929046
