39
Energy = -152.04476433 eV
Sb 16.572202782579325 13.850548790349565 10.723534735990768
Sb 14.43274569243661 15.653698045501544 11.656044202777126
Sb 16.628696939080626 19.740558637752898 11.454058712117632
Sb 18.669302800161628 17.754613920199237 10.724260767533186
Sb 14.435580334691032 18.203684655236113 10.299849710533447
Sb 17.688266694746694 15.769041595148591 12.591572986504383
Sb 11.599665929943862 15.793262354499984 10.818718509786233
Sb 10.803958750088238 14.803792673348172 13.395188935723604
Sb 16.320275044627035 12.334361090388837 13.158571797038428
Sb 18.662013965616573 18.035315871562318 14.784090333499337
Sb 15.892092761535746 18.670637759461407 14.028194395396751
Sb 14.260697933414042 10.468386961594463 12.429739939712466
Sb 12.785437319687377 16.636440289400856 14.443863486061483
Sb 20.414240439191207 18.94498481804028 12.666412098357627
Sb 20.142565662867504 14.346468401233006 13.131536973318527
Sb 12.105971582729135 18.34095377198059 12.064995986640321
Sb 21.803849520826116 16.644958598722255 13.82384419280739
Sb 16.907431460934006 15.658934736809405 15.996666202547196
Sb 13.33938551310019 12.992362595987004 13.48701287377833
Sb 13.272364774250416 10.638387041858033 15.17248421499345
Sb 10.74977458986646 17.55651395484373 16.347326577540297
Sb 12.290184380984421 19.202214685092716 18.16855593630773
Sb 11.432447980777038 16.575431573517037 18.98272001094214
Sb 19.195798773304215 13.812440159055333 15.869423037014311
Sb 16.15132773144025 20.45079925371805 16.374058174421474
Sb 21.08550411352203 15.886694102438204 16.6100970377985
Sb 18.978043983432414 19.918196601080144 16.917540022533757
Sb 15.554300077121209 11.580780530877053 16.691301994491
Sb 10.843065457091681 9.775577286715128 17.94043593484235
Sb 14.39197798536881 14.254593748530587 16.56225714667608
Sb 14.78187032185405 18.05797231680038 17.265890623954203
Sb 13.874334558640225 15.01512582106798 19.358015610641772
Sb 17.768349550136442 15.6235374138102 18.773467360352083
Sb 13.145574996448945 8.654789679140642 19.244556018256397
Sb 11.832380047789288 12.186886714718403 19.23417273454234
Sb 19.77938834989388 17.65149221925638 18.565191649849126
Sb 11.022235402575513 9.856865094079996 20.78846221204678
Sb 14.541168312841393 11.214152986933334 19.38961979592925
Sb 15.648336616933259 17.247352381778374 19.869076199272236
