38
Energy = -143.59374904 eV
Sb 22.818453586013774 -1.068009367804441 15.35716398616459
Sb 13.543774712085307 2.07343616217686 -0.9769689389101216
Sb 1.4225749464791955 -2.1531751901985112 19.025021161821964
Sb 14.89162043408051 3.3321201462179224 20.96079768723778
Sb 17.78938441799529 16.92718542580946 4.502739947111995
Sb 19.444412497935215 15.27000880808648 6.209811709342518
Sb 16.390249107824 22.334900901281465 14.310869444353038
Sb 17.323189174251134 21.673239332696873 11.601456194464452
Sb 1.849381888226925 20.528766429836796 -1.1447912377857556
Sb 17.576480702217815 17.284435187562508 11.54517679588052
Sb 17.664082535796666 23.503012143552176 17.789137004804786
Sb 6.0249289917893005 20.305670172520905 0.19133871171000777
Sb 3.745393539496285 22.15222104535243 21.623966393055863
Sb 4.25779589123218 18.340798035722155 0.95981258684124
Sb 3.7866768355792875 22.138868608678337 0.3950128806979527
Sb 22.96563271307043 -2.7375574376654184 17.696719439480074
Sb -0.25986491013453206 -2.214773759686888 21.341512346503205
Sb 17.299025631330434 14.19552086211466 4.88448984879854
Sb 18.260571031294976 19.219839380312465 7.978841055347303
Sb 18.72064860431948 -0.29060900601192535 15.122521700721526
Sb 5.64130055643439 19.960459095927607 21.23939827662254
Sb 20.469840517221567 21.568169192705415 15.499167795252545
Sb 17.69688474122864 19.78904713995607 13.783686433122359
Sb 1.978092183545449 17.721095610202998 19.923713507618807
Sb 22.38600513542821 0.005881319304708557 18.19891000065902
Sb 18.409341159080416 1.9152143297413458 18.894646736841874
Sb 16.226629292294906 19.307985132165623 10.002157017918115
Sb 16.03090894608876 17.91046865267435 6.6808358534212955
Sb 19.892858804214814 -0.4214744645810436 19.647670959914628
Sb 3.752552157543092 18.126681393077053 22.3196772178167
Sb 17.219380864826775 3.581093262105039 -1.4883286689144446
Sb 20.222275972282866 18.224917713187722 11.2717982558538
Sb 0.47252426564124594 0.3088246137337521 20.22780545452344
Sb 17.75862444226468 16.463162275684073 8.477727795270726
Sb 3.5908772904223363 19.510031049785145 18.836300101279946
Sb 16.772138218213378 1.1591011160952427 21.1654778499695
Sb 15.72338822263583 2.3064005689608313 0.6077491944318184
Sb 20.03885220716512 20.790153594826315 12.415186966498625
