31
Energy = -120.94003294 eV
Sb 6.093234282670515 11.840985999145435 11.805683418815546
Sb 8.91960708829638 13.381151838067844 8.954439536274835
Sb 8.45216993610825 10.967981072878933 10.423350632703515
Sb 6.701448591197807 10.91949935396867 14.461548544754063
Sb 7.042740056176564 13.68715735544113 13.770986415272656
Sb 11.806707378398425 10.28865948883455 7.723630136466907
Sb 9.412709808880997 15.418193706412337 10.969636292194782
Sb 12.187894451078362 16.284175622243755 10.233707872937012
Sb 14.720857365034561 10.611825446770482 7.6243905687184546
Sb 9.209168452706333 9.514775691007523 14.11769209358233
Sb 12.767492401134591 14.782600820920416 7.785407484740274
Sb 10.595661558637378 11.26648983233008 12.324953756589773
Sb 11.919509761761834 8.96811719335397 10.309268432570166
Sb 9.89545461824544 13.918236818662802 13.40188580988151
Sb 11.660465998667469 12.65731306134868 9.314306030929862
Sb 10.206558674721263 10.470165051175616 16.654118345784948
Sb 14.800337192390934 9.074364877978885 10.079252082429317
Sb 15.309851356180063 13.406731567784915 8.173058175860923
Sb 13.051060721889218 14.418547797617313 12.264254251852531
Sb 12.367327609253541 8.671373115086912 17.24675574715908
Sb 11.935075511854928 12.75757147283728 16.341955565609627
Sb 15.43923540715771 13.266715552205557 11.025477171664658
Sb 14.272117820034035 16.047348805372398 14.257336278354936
Sb 13.650786247663406 11.562397902874642 14.096611189612924
Sb 13.55393950532486 11.151938501142807 18.177749137261724
Sb 16.04662530063394 10.715817553822161 12.02317368669306
Sb 14.751078671450406 9.684074454648021 15.987055489371658
Sb 15.192084735399519 13.592311969545406 15.502805440605071
Sb 17.0226304218095 16.670827255436414 13.540748987847959
Sb 17.833548501224186 14.685511963839373 11.672380641368363
Sb 17.91465591774999 14.049174200978456 14.468416125824483
