32
Energy = -124.19505338 eV
Sb 14.349427280507385 13.706679448334647 21.784351733594754
Sb 16.70103962158345 13.13845520932679 20.1629607782764
Sb 14.195413390028973 11.880953367008017 19.57849717912396
Sb 11.256468636531432 9.092369028360206 13.053455942928755
Sb 13.046819432173093 8.684510614397647 10.858697065512791
Sb 14.419603931526915 11.041267290498277 11.767158095833956
Sb 19.62175542316747 14.255869283207678 10.558420277510626
Sb 10.090564379496227 11.687578188852504 12.622632904962918
Sb 16.430946938618533 15.738066417497459 18.892824398656767
Sb 13.031623759787344 13.312451689964474 17.309387361259304
Sb 9.106162736807589 9.36956756065801 11.146667219137345
Sb 16.81215850897748 11.432315700403231 10.136799201220777
Sb 14.073278367046164 16.273376780868023 20.474415032066155
Sb 17.083770680391275 13.946111928093531 11.453317973932634
Sb 11.858812098094093 15.318091752942001 18.97715604048921
Sb 15.46901634164939 14.567303012690566 16.48727955785189
Sb 11.10539789999377 9.834209930760878 9.014593580151947
Sb 14.155022317860523 11.891895567694014 9.063187228807472
Sb 18.363450614419765 15.698540713599296 14.188255560990667
Sb 20.039208893668327 16.668558839454274 12.037681326041543
Sb 10.455740453611707 12.495234172709347 9.86762515208332
Sb 12.702436267952812 14.320989917435842 12.45814785864085
Sb 17.22368223953648 17.388275356408577 12.165660163093197
Sb 12.73040242663757 14.336483972873964 9.560109486656783
Sb 10.765667808276481 15.224189107394697 15.284672615916481
Sb 11.61466870284362 17.32071706045899 16.92188681413812
Sb 14.26459195129083 17.033716814530525 15.643840369339447
Sb 10.880708784469858 16.569406707095844 12.776838518282508
Sb 18.848028501777083 18.073762523695454 15.864213939979045
Sb 13.772126787752596 16.981453312203758 12.799827901770705
Sb 16.235012911440787 19.16355877474777 16.194895748913854
Sb 17.702406042455245 19.758047622569663 13.807969750813664
