33
Energy = -129.17415249 eV
Sb 17.46137954970442 11.848879336522648 10.079660352100358
Sb 17.172494806054168 13.622912717794412 12.370791368029233
Sb 16.2028530627648 11.703869891163482 14.302582529999034
Sb 15.290724577892648 13.75667758737676 16.101432765704725
Sb 15.789470355810051 8.534616572772766 8.022833922284793
Sb 14.579770705690336 10.930921198943443 6.991948671194846
Sb 15.737229396758776 13.224443977668676 8.275539272948967
Sb 15.880836012026005 9.536018561633853 10.748366354200018
Sb 13.493569509177643 14.425795177851791 13.94018662689496
Sb 13.501312537070069 9.514974477710657 16.122091217524478
Sb 14.983323179294672 15.401144819434196 11.650888348199754
Sb 13.69441080398865 10.59160830404734 13.383921779664538
Sb 13.090243482364937 12.205649436607462 17.21802985642546
Sb 13.522955152226368 13.410810475761751 10.137881635836402
Sb 13.421775236260494 9.611278340341201 9.281697368791871
Sb 10.608826677342599 9.593286192053617 16.285535638875054
Sb 11.424912305584385 12.07481813456945 14.844676869703079
Sb 11.611352475838972 16.56308491578703 14.555698331801114
Sb 10.17016605434202 7.8586552126273475 14.008917562051984
Sb 12.24205728315686 15.013932132201573 8.013768435465154
Sb 9.631722459346834 14.512563644424015 15.139756004875629
Sb 11.189747126494087 15.578650983195555 11.839491257565186
Sb 10.436985009419894 10.017766410264203 12.039637505668734
Sb 7.941038038208051 10.83625884825629 13.270124529352188
Sb 10.75842275440557 17.064709884144246 9.398342866925796
Sb 7.25437564284511 7.063696175746078 11.074458518423201
Sb 7.2677501317990645 8.106920338371026 13.75779080262966
Sb 9.37349987841595 14.748433846818225 8.392062458704729
Sb 9.533155288030997 8.342886925280094 9.865560718311695
Sb 8.503845380402325 14.953462377109139 12.487477644680554
Sb 9.221367855041724 12.83249803398775 10.647131302035486
Sb 6.5588653085624715 11.66680225317645 10.893473413648907
Sb 6.893682055663563 9.296092908342322 9.302364161467274
