34
Energy = -131.58250222 eV
Sb 15.545296649694341 10.598496927448585 11.056846337653617
Sb 14.383425066100617 10.483886160937116 8.369818789987113
Sb 13.817953458521906 10.380508420523398 15.03400057049262
Sb 12.857478381018575 11.423676334259497 10.57590316494498
Sb 18.106033239165942 9.677460416967897 15.858193616096747
Sb 11.700522070875857 9.717047543850985 16.908689218142698
Sb 17.20001402927934 12.860466406619745 10.25687016510022
Sb 15.320310144722724 10.909618769652713 17.47851541763707
Sb 12.806176127552554 11.232816135450907 18.877167940411947
Sb 16.066077137521596 12.699209157587978 7.570691071671794
Sb 12.428503476363925 12.870044847854096 14.595277992503746
Sb 19.291163540467817 11.016088041975632 18.147082426592352
Sb 14.57966737344847 13.981394429162751 12.992924058585691
Sb 12.944440477625228 14.275848424162485 10.633318664875262
Sb 17.544038786652088 11.747346576416758 13.96448864024895
Sb 15.840787896311076 13.714844920738702 17.64538300909181
Sb 15.393846943158806 14.856655847834379 9.293350250367737
Sb 19.52548900510747 13.770932596425064 17.424710275913167
Sb 21.459056111793174 11.938328970910264 16.427459423587994
Sb 14.808839548207596 16.694270670397604 14.018127334256649
Sb 17.578363627643792 14.225394530317747 15.386285909622382
Sb 20.216541556359648 10.703098989222614 14.111811252224491
Sb 10.482771494068858 16.624342101109068 14.27575274481292
Sb 10.911693826204404 18.502889041848473 12.207671324908784
Sb 13.039769724492796 14.060363888841723 17.127449093641726
Sb 12.732212975951827 16.831662108655127 16.10750381781808
Sb 13.702448320191314 17.98245310864723 11.691058123409661
Sb 8.800970329724166 18.145271921676592 16.013259258876506
Sb 10.521042813799353 17.443902189990073 18.21904533364144
Sb 12.864988126943219 20.505669273203114 12.847900108425964
Sb 10.246064531668976 20.130713463581543 17.559862855264456
Sb 14.692126017173157 18.795314791624957 17.212416989662785
Sb 14.57645120966149 20.789234670420207 15.175325147809996
Sb 13.069736551267521 21.051409875771412 17.619014350692986
