39
Energy = -150.14075303 eV
Sb 13.320830922119137 14.626087183304858 9.75343306440981
Sb 16.790559636384906 13.42124508440606 11.20901954208155
Sb 10.715844525420955 15.404222001272128 10.643133682593204
Sb 13.082058406604355 12.211069369811106 11.314516565321343
Sb 17.52061460337658 16.436884825447407 13.855164696824739
Sb 10.311732628254402 12.151401103307442 12.261381576902453
Sb 14.538366430932983 16.690669187874185 11.396226514382382
Sb 19.179158068194514 14.930156803947593 11.93915156574099
Sb 8.82553013685007 13.347000762631744 10.04123276128129
Sb 13.95209956153555 20.87360527013341 13.248344901073287
Sb 17.31080431790978 10.618210951661762 11.597573757985906
Sb 9.832113773849539 18.02253925803939 9.963345094709016
Sb 10.188190078677737 14.805300348703199 13.467633812176265
Sb 13.966961746659932 12.859931366704059 14.0345168591388
Sb 16.93829270387868 13.649602124269695 14.076301254750051
Sb 7.521652655735375 14.848777109500663 12.200937849671785
Sb 18.751149525125832 16.081693295049327 16.430679261568073
Sb 19.83257794662063 10.487406133860587 12.971214706247462
Sb 12.471538568500971 18.717355994063904 11.606952611834188
Sb 12.862831330314785 16.820328863956888 13.750277843357566
Sb 15.253473432328201 10.254659225697214 13.662097491759342
Sb 12.66659341938101 20.65201610976028 15.668206457154078
Sb 11.972647411698167 11.16042492889043 15.410658155048958
Sb 20.759634586155244 13.127077225218141 13.55381390723326
Sb 14.662348528031412 18.766228479108886 15.088159476727219
Sb 10.878970162023482 13.252070883778241 17.077017677071467
Sb 7.455206025192441 17.547780990351512 11.265411235828887
Sb 20.20855596625886 13.62157595277587 16.334484116385084
Sb 16.520983849655703 9.85871321246494 16.2005433496906
Sb 16.004485633085945 14.594469041377593 17.06689227495947
Sb 12.944930802927754 15.247408698557543 16.7486203633012
Sb 12.511784224711697 11.180126265463374 18.22227615063094
Sb 19.282699806571618 9.306607720368957 15.582525976733724
Sb 18.64579670827067 11.441208379869972 17.371074497922006
Sb 15.539134118866231 17.198793288874434 18.31671811761233
Sb 15.053999536731727 12.394190910289202 18.923542381767348
Sb 16.887725271473673 15.152589285473523 19.89737217342073
Sb 12.962272246141179 16.374549560473895 19.370722504330118
Sb 14.308969187588444 14.299141287300834 20.91194425441306
