36
Energy = -139.24911235 eV
Sb 16.798457379049008 21.531620249404735 15.545953285447089
Sb 17.726230970498165 20.34850883227958 13.124225274316162
Sb 18.14444338031605 19.56550388003145 17.424004862314654
Sb 18.25875090159572 17.924393491486832 15.032806289411111
Sb 19.426101189587943 15.295878914244295 15.829090911371463
Sb 15.480898195237174 19.77766751809488 18.500211118756354
Sb 17.08437866780141 16.06673872970728 12.010704397535232
Sb 17.071174868721435 14.211300820605581 17.180837432267815
Sb 19.082934194738236 14.210835442169238 13.172314976652531
Sb 14.163795982545214 20.462388057309052 16.001513354933156
Sb 15.602775052806667 19.092079936690737 11.910710426469107
Sb 15.858216113935082 16.389409611198786 14.656018575917114
Sb 15.44146870815039 13.882727668926423 11.000554393790095
Sb 10.737088257178321 15.22755501950531 12.159431362186828
Sb 13.851431479393986 18.37132066876971 14.045006190452579
Sb 15.041416470787931 17.199393897349918 19.79509231310323
Sb 12.920594438979302 15.039763582771467 10.211853898971105
Sb 17.772104351878582 11.699273296941644 13.74134490087068
Sb 11.293367977702342 16.14107192634374 18.515370140292376
Sb 13.92116016493032 16.125832433790215 17.366501248444496
Sb 12.484840539842144 14.851236195212937 14.44504240014695
Sb 14.968614761014708 12.427637913945906 13.455401882835607
Sb 19.00035038977786 14.854870630944086 19.179149324038246
Sb 17.905498873849368 17.24906075221656 19.879535348835148
Sb 12.064550576283379 12.313599662472653 9.755176648658745
Sb 10.123046717454987 15.507847362778088 16.02972956209505
Sb 15.35744131568301 9.859508497832946 12.060237960440697
Sb 17.714523823373646 11.460416718122312 16.644392614296788
Sb 9.625207730496765 12.672379605162673 11.310789642972034
Sb 11.34302797719501 12.760494733156257 16.05874362023467
Sb 11.958937463405636 11.51306904982003 12.528423374875095
Sb 15.04372727387271 11.107329518734058 17.753004219720854
Sb 12.662840660565227 8.821324992594604 11.754827110605442
Sb 14.165050522219655 8.33483498055889 14.182351703241071
Sb 13.034420501633555 10.052617138732098 16.186316564213527
Sb 12.997460476335103 13.568615405926005 18.34449031636178
