32
Energy = -122.45059927 eV
Sb 13.22715423377609 17.384209360477776 15.701854881684937
Sb 10.565297939363864 9.784661777875483 10.755564060772452
Sb 7.922348258075463 10.448225415584897 14.844138008918868
Sb 15.310282985961654 12.690885912160732 8.868856392864984
Sb 10.868933844724378 11.651312222444728 7.156552531340356
Sb 9.039037168166042 12.403762980469393 16.64602173665223
Sb 13.862269897057947 7.432348068112933 13.166885002938212
Sb 10.398787256667266 15.791008648752513 12.193303052611606
Sb 14.160838595048123 16.74198941825534 9.58187359846037
Sb 15.574885394835702 9.225053889730466 11.68221172920156
Sb 15.168667678083867 11.56900030313133 13.434909597906662
Sb 8.058843087822716 12.2120370027757 12.555971965219321
Sb 12.06409198264791 9.286721920810718 8.312830107838222
Sb 17.70524862833015 12.72300053845522 13.863637066938177
Sb 11.987822689940106 10.567413363764453 13.93023944194485
Sb 16.711809714978997 15.136684550133015 12.906398098214172
Sb 14.489833259091228 14.23298073810205 11.243754342862696
Sb 11.565712337752172 13.151583370131185 15.343989662948733
Sb 13.62818988100859 10.81312710433984 10.291374172649409
Sb 12.738007322555498 13.707994171644545 8.116103097475717
Sb 9.103004255320108 12.773593701749204 9.178728114516213
Sb 7.780491477711267 10.422270039739791 10.283383430778665
Sb 14.279210618685687 14.958885326111215 14.88483627905147
Sb 13.018091653935137 16.768653620808156 12.934342790710323
Sb 11.08416189381413 7.556289943938717 12.588895101524237
Sb 14.243570437798457 9.517201878603737 15.415278222507128
Sb 10.82568309343179 12.90353704374784 11.593682311389262
Sb 10.520035683074124 10.34039212902244 18.01993144866287
Sb 10.282978252744973 8.806530627833384 15.359990272587218
Sb 14.01215862880869 15.900374652514945 6.8640001604189145
Sb 12.939822495224853 11.627302310556606 17.350215062925916
Sb 11.381421008282693 15.973020389836622 9.456380704045703
