37
Energy = -142.76736379 eV
Sb 6.721917803073718 15.954181232442668 12.208166502041783
Sb 15.031449134663445 17.795802343929175 11.828859164975764
Sb 13.428033770596391 15.713199274137878 14.331036838896678
Sb 10.146637311041896 13.809419745305194 17.033461166638673
Sb 12.38566293453696 16.70795007737982 11.832737546599324
Sb 9.971820381508492 15.689865110730349 14.889712124027596
Sb 13.008929375891356 13.307453312799577 17.16414039331191
Sb 9.018636532064843 14.21861569184916 12.375490226159785
Sb 8.138069242858526 10.266005691697767 14.210174272739048
Sb 12.22317130293927 10.654789060051877 18.0552877201376
Sb 7.054997433218971 15.712862046869144 15.054674588865245
Sb 10.520799573532075 11.271352683894667 15.695984838511691
Sb 16.291227592908832 15.427791731739285 13.618859008175857
Sb 15.832860545661902 13.719934986124132 11.343793091448784
Sb 6.489715478410405 13.345595158208427 13.47797190746184
Sb 13.539481932886343 12.200470366651453 14.475101599727093
Sb 17.143769417897765 15.209786510855624 9.262600981018032
Sb 12.13345650335656 13.177528553290706 10.603672867874389
Sb 9.607249460729884 13.754674131414156 9.39745637523375
Sb 10.420545605960273 11.212709879598117 12.453119490782441
Sb 13.071939291569318 12.588485303696755 7.920656082553042
Sb 13.560816736429585 9.524217041897666 15.656749548816808
Sb 9.115574252907727 7.7723205726541105 13.167386282235077
Sb 14.109319075887798 10.656572400776696 11.131307231562875
Sb 18.599376641246337 13.223286144540161 10.762406632202092
Sb 16.185223870251374 12.93960493259649 15.332725872074825
Sb 9.599589654050462 9.265271208236928 10.447508781990857
Sb 17.765518794635796 10.958738159765451 13.942069696946009
Sb 15.262242926488245 10.786637279416551 8.481138547500136
Sb 17.537901976745218 12.570138211699971 8.177282233826134
Sb 8.956483561448206 11.239018890632954 8.195693083895152
Sb 16.390960302798906 8.749086879493024 15.184291266242582
Sb 11.804049255471833 8.696975145456697 13.089681443583608
Sb 11.523884440949875 10.224520274624542 7.549337618291047
Sb 12.403904138677163 8.533953006877624 9.97173841775938
Sb 16.31466265624528 9.064570405662302 12.33207387556927
Sb 13.21885260292663 18.585348065470924 13.874384192791668
