37
Energy = -141.73095061 eV
Sb 18.59731774221771 22.04069899695293 15.932042610332903
Sb 20.034051378471894 18.521785835788798 1.6197649714794653
Sb -0.2230622842393262 18.174655572322337 1.4532334107128975
Sb 19.604068917708982 16.768938465134912 -0.6543414455159979
Sb 22.904807821134238 20.389148872491162 3.306447428495863
Sb 0.6094756079634465 22.632062432248826 0.09382733797703235
Sb 17.305695581059002 4.451136834771204 14.933788448302009
Sb 20.45702639310681 20.75224666602563 4.883314836363105
Sb 16.15513344625173 19.24540326501684 15.463341366741655
Sb 15.76392653112223 17.48996250380392 17.71085421206467
Sb 19.622811350060534 -2.5623157853595786 0.5535554729973817
Sb 1.8620534227869796 19.967967343554083 0.45622552084679885
Sb 0.8457606319456122 -1.0653808051862939 16.139462814611154
Sb 18.742855043839352 22.255452733158986 3.1150872077128633
Sb 18.456304467918486 16.415768409031717 17.524354019794043
Sb 1.2221735838997856 18.99223529425815 21.545035468231298
Sb 21.018727444278717 17.897376437553728 20.809845402673055
Sb 17.41675317897263 17.964912243107452 2.67288355951903
Sb 1.126930964002464 20.317300129550237 17.724039875348687
Sb -1.377448142479193 19.94730905662232 22.379730606761743
Sb 17.700062021449614 15.010410516606516 15.301526284205325
Sb 1.7551822158030574 21.544609072349896 20.245836619805306
Sb 21.035966952355526 2.9413254976552707 15.68455211027107
Sb 19.827609742932104 1.5284055223968744 13.548710171494974
Sb 22.31853862798884 0.013394189688435778 17.660096479601833
Sb 18.87703426240088 20.512068675594932 18.239180234483875
Sb 15.27521327241364 16.481685954211347 15.045559216232501
Sb -1.8641237610183763 20.84315134068114 17.69863474696118
Sb 16.646281404797797 20.4107744595645 3.910017594253545
Sb 19.767697026808015 4.453256743767684 13.51877285548718
Sb 19.004751036175364 19.089634922777922 15.730919748295886
Sb -2.0682536528606352 22.348450166252555 15.223653665927467
Sb -0.7350630523683033 22.570167042631102 21.20481297496559
Sb 21.9363173974428 -1.183000741049976 1.7519386048374503
Sb 18.494134624097057 18.630089150269825 5.270992775488695
Sb 18.32202362823881 1.9589052025927536 15.983271492524059
Sb 22.443719466886325 16.415421550983396 -0.8775472242098685
