38
Energy = -146.17817275 eV
Sb 17.940437853297297 21.391522455653245 2.388695646114507
Sb 18.01122352653087 20.372929402997883 21.772538648239294
Sb 19.30192257732915 19.291233474686784 3.8220573905229847
Sb 18.382035641869233 3.1485920224344266 18.440930086979446
Sb 18.912868716228534 19.325702058605454 17.462552237402168
Sb 18.673815903574713 0.15814914212643122 21.590468343743964
Sb 16.677436523534062 17.465104947834607 18.19745398994524
Sb 19.37577277658071 17.59741297733878 1.4098517957716103
Sb 20.533067961173835 16.820018892159336 17.858072298197392
Sb 18.550234132343853 15.946735857364015 19.71468163166998
Sb 0.9999099464223672 0.5168433126556521 -4.346365911345157
Sb 16.982004760785863 -2.5327743510408793 17.250969673772452
Sb 1.0277141626837476 23.259548788273296 -0.5138288250690491
Sb 16.806099489342966 2.212432354673719 20.68034876844138
Sb 16.976585270409085 19.137881732698837 0.9049978830344394
Sb 21.745471703780936 17.948468519196044 21.896620976436694
Sb 21.44899920395077 19.305381741880414 0.31371813012921274
Sb 19.555416139820206 2.861351166582091 21.084229655338547
Sb 18.390093740776148 16.958942303921276 15.913955673386537
Sb 16.43108662193973 19.35723283773577 3.776298428454222
Sb 19.364775239213145 0.6333433982860893 17.496124525512343
Sb 1.8636392343204635 22.224360504361055 -3.05057021643353
Sb 20.047086384836685 21.58181853691305 23.342833032181144
Sb -0.8813993052524469 0.6118501817592112 -2.1559459377482395
Sb 23.126201727444794 21.838889445109807 -2.0213286453327477
Sb 22.437583486974667 0.22985226928516977 18.569786580691122
Sb 21.727230806304025 21.61033515869002 18.925409447209937
Sb 1.2946552121909516 13.238892025754792 23.108235750998812
Sb 18.87497709088041 -1.9364284042588067 19.518769841368034
Sb -2.113778952420197 15.442297183918864 -0.806338221719896
Sb 17.815751287906114 -0.6208953674954635 15.38174347978809
Sb 18.921346694166765 17.61949676867439 22.07600040717604
Sb -0.7294597023594414 14.003451603811019 21.187557998028566
Sb 21.7000522236256 0.9356061454490397 15.849697062747333
Sb 0.6357671296384375 15.853904763092856 0.044539624895287476
Sb 20.547034514082718 22.719041815384948 14.544818056284827
Sb 1.6922568362365722 15.54856164300672 21.489616832011993
Sb 21.318029694082767 20.61019916386738 16.24900030761569
