38
Energy = -147.7590116 eV
Sb 10.818202882259923 7.73061884129425 7.207640302229716
Sb 13.62185014095794 7.742914445983152 7.851501156916013
Sb 12.344106360810567 10.196565982273054 7.056279770397344
Sb 11.799554437159934 13.843931893711492 8.120373662379292
Sb 15.722802643590123 11.623602167034589 8.048576800163314
Sb 9.448345233471308 9.029737048917251 9.380184512221136
Sb 12.139633977730846 6.289280699381533 11.384817031280397
Sb 9.003311114447236 13.948818516599466 8.19967031266622
Sb 17.853292215467132 13.103181384985799 9.303379001599634
Sb 15.33453889754909 14.399909936441942 8.728293929784105
Sb 13.627635921318014 8.616293866972034 10.612532392583999
Sb 11.721444436370932 10.714496782417076 9.942587181251723
Sb 7.669295904218523 12.292946015812088 10.818634975887917
Sb 11.751385836920292 16.689027512432066 8.784775318811818
Sb 8.979168201251364 16.441288047211135 9.591438904218869
Sb 15.488042572153553 12.793049948138211 12.65146798065261
Sb 16.572236118752347 10.924589961792256 10.722109730951802
Sb 9.502942961882564 7.341976509539015 11.72568410342828
Sb 12.874350325628702 6.464716764530109 14.208315180745327
Sb 9.502535699346254 14.46178061845341 11.682881549790608
Sb 14.887613931525431 8.531668439553297 14.495442535460812
Sb 13.45858489285605 13.938938470940883 10.884037682519692
Sb 11.308173347447225 16.872402091191674 13.289899264071018
Sb 8.139907366152809 10.934144213114315 13.391120939245324
Sb 13.321261343520657 16.820619644766385 11.256627408483675
Sb 10.709844828041849 9.680612527044508 12.980549852001571
Sb 6.771467041125041 14.441522717361508 12.560727212055054
Sb 13.556650500353756 11.075515864865318 13.957645089919463
Sb 8.629955279733187 13.422858678901683 14.651132435264977
Sb 10.840066673925804 8.11844512043869 15.425914961949648
Sb 14.505448084752862 14.689741997788675 15.45653114113719
Sb 11.622098926626341 14.134467950083012 14.591976158197829
Sb 13.268224898496161 8.80609049220552 16.904816613746668
Sb 10.919565979280382 12.246907881288056 17.030602536156962
Sb 13.724811927057663 11.719024060758635 16.804892852155117
Sb 13.683735218978255 17.416216519511703 14.896009313142216
Sb 10.70986336686571 15.14068474107809 17.125045107842194
Sb 13.326766220357445 16.281386480283697 17.54659485469068
