32
Energy = -124.08372914 eV
Sb 14.663409096453043 11.995894214012717 18.34754917342576
Sb 9.35559874640842 10.770473251917032 11.854258308036316
Sb 13.068425172687473 12.527600472535958 10.619088622630967
Sb 10.875183891286131 9.119580433638086 15.960373566660767
Sb 8.608985417438989 10.888981703939864 16.32323979796704
Sb 14.711393995329447 13.379089940292568 8.493732516715944
Sb 9.46362900374389 14.686067871321436 14.331169298901187
Sb 10.266935828805057 12.690338077275907 9.933632207601796
Sb 7.94848750767801 12.284922411550532 13.870304384437775
Sb 17.610740016271112 17.264681570261597 10.424186190011687
Sb 12.039125071578274 10.737101769468298 18.121043247119857
Sb 15.969504689982397 17.89046461140999 12.682362282405494
Sb 18.413821966333845 14.006202334680237 13.188100702600037
Sb 9.90108002790609 15.158128661264817 11.509115636212783
Sb 11.776888038291462 13.146057380101054 15.080954542764683
Sb 14.988523936917568 18.36306988031601 9.992062945296528
Sb 14.025612833441418 9.849014826631464 10.150273075610915
Sb 15.703888837628018 15.877919172857716 16.286672656302592
Sb 16.450412556163073 11.337823244202896 9.629606047235287
Sb 10.301048479885909 12.970217794081037 17.525987467974332
Sb 16.116882552283815 11.325160330021143 15.966820582374666
Sb 14.166667988919395 14.83844667423392 18.47926839142677
Sb 13.276084452379452 16.07307115878864 9.401250637037728
Sb 14.185423898975918 9.445847724115724 13.05297799515817
Sb 12.839534518141228 15.647840861901226 16.01446408367988
Sb 17.630312620342846 13.76509225291622 15.997423801610395
Sb 14.666163600529083 12.216414844079306 13.621878237775885
Sb 11.09132032645625 17.696155436156378 10.978806921489094
Sb 17.204098555951635 11.466080122378521 12.468753672245109
Sb 11.330413623248496 9.066447264687021 13.138092929282925
Sb 16.1826988932191 15.129029220062543 11.727508934457147
Sb 12.756102687185257 15.714316541093886 12.1993100901084
