37
Energy = -143.82932737 eV
Sb 13.043375605060627 12.543719591024876 17.62351047408305
Sb 8.341432783853055 10.481893542457518 17.301586771727536
Sb 10.12969285566168 12.803127016571725 17.16729110757032
Sb 14.769950371796218 10.119246662107546 17.585282021342017
Sb 9.532378582936548 8.218029274805938 15.917782286598209
Sb 15.737340375261129 14.771000284713454 15.141087217169122
Sb 6.979361361532951 11.984976331122413 15.301081986365716
Sb 8.044524161689367 7.875612841920356 13.48450266910074
Sb 15.187194014265447 16.35400787299978 12.7955035824589
Sb 14.102382321023565 8.461339715731299 15.328574534778065
Sb 15.650052134114182 10.83656983058072 14.918101466200001
Sb 9.662609312134375 13.182152928086715 14.328262128327502
Sb 11.676639928449664 9.99950595738961 15.341030552478383
Sb 11.16791809569279 15.79483087348597 14.09538033038403
Sb 6.449873965391005 10.219192161482198 13.126676717042923
Sb 13.552975748448375 12.905534798438575 14.807717979674264
Sb 12.78068027580211 14.994865607185227 11.850307476483756
Sb 17.010113475886204 14.108319504625426 12.62671418304811
Sb 13.63743951925331 9.667701423905221 9.326433547160569
Sb 8.878425944826782 9.856917463496478 11.571622678063651
Sb 14.973719466466155 12.361259531831088 11.523126211200307
Sb 16.48791678036464 10.376176464930225 9.978996165276737
Sb 9.320687827017318 16.752050653186966 12.053420396982755
Sb 8.602549709877513 14.188985268941442 10.953086081663418
Sb 10.458962308662427 12.576513785493914 9.41636532242251
Sb 11.687121033554401 17.364046887213846 10.579578444868737
Sb 14.703949991828011 8.163191983964687 7.127102813113178
Sb 11.034452286543088 7.928580037089529 9.261579577114153
Sb 11.986608775427275 7.085658918324294 6.689819330293872
Sb 8.806129243491002 14.644088633789323 8.132624323081348
Sb 10.57795230364291 9.586472181000364 7.088663106811529
Sb 13.527066026747447 10.731064526123003 6.597549597517895
Sb 15.055510357724442 14.14786583208627 9.231903863959115
Sb 16.12330865806623 11.914993579214538 7.645289651088642
Sb 12.526697128361057 13.886886835262011 7.861749818579243
Sb 11.111421305655023 16.411745680010768 7.90922220184545
Sb 11.16186217994687 11.182151735862398 12.7917496005791
