35
Energy = -134.29659196 eV
Sb 13.394629522623037 16.405233105883035 9.128553316900383
Sb 16.90873138463062 17.756219042909116 10.400711192062499
Sb 20.13078828551539 15.696397711653143 12.280883818279996
Sb 17.60865232971411 15.023696053312806 11.036814128712077
Sb 17.85789077676374 11.059082855000307 10.68371095734581
Sb 14.509700109913014 13.770356373994943 9.487993102992446
Sb 20.047106262560092 11.47368813523344 12.443434952202786
Sb 17.981269924747217 19.585574033249497 12.382303150371925
Sb 19.6105711042652 17.914418794174747 14.053827842983857
Sb 14.266179884804538 17.985562556770947 11.375174048431713
Sb 11.723330973833674 14.223269665505894 9.980394214766706
Sb 19.4932915948884 13.673308163022698 14.260355985333607
Sb 18.104739892557063 9.513108343849606 13.163796201705173
Sb 13.501230475843544 13.922291499711251 12.227057676643986
Sb 16.077360145070838 11.546388921305473 12.931057901772686
Sb 16.732755745212877 14.29120743456959 13.683648680674546
Sb 16.96259065382363 18.689562309978943 14.927233285345938
Sb 13.358088953515761 11.109171717373107 12.724396466880535
Sb 18.043275092561352 15.672837360212764 18.383464661502344
Sb 14.739327091362997 16.947988999283698 14.219328281845362
Sb 18.325534611658746 16.690317268823797 20.888509076087697
Sb 17.457191243626035 18.428253835547675 18.771313355209774
Sb 12.841255715704625 19.090494653024844 14.729746160030103
Sb 14.70478014181713 15.645375159412144 16.994698429172075
Sb 11.861011947448677 15.504344686087297 16.912991798698716
Sb 10.977781994085591 18.238535809213257 16.89840961829086
Sb 14.589060967898332 17.82930272098139 18.77255953777745
Sb 11.19392505187797 15.165835262549109 19.75677093228361
Sb 13.219799338090484 19.9400476509087 17.436958079155286
Sb 15.138122501920256 13.41254304271172 20.725678130835966
Sb 17.25175936251058 12.950001714134233 22.60160694847401
Sb 10.201077403892414 17.83522515976282 20.08152438502911
Sb 12.690390528238202 17.181412725035347 21.104495529085103
Sb 15.75494395020856 15.3963423094864 22.653427888416463
Sb 14.537057837930664 12.890413029995203 23.482715337843036
