33
Energy = -129.504516 eV
Sb 17.420082073430407 9.763032426421523 11.501142737469657
Sb 15.207108097571465 9.243276035564799 9.68695793580093
Sb 14.204408484283563 7.819100331152962 11.940268716964045
Sb 16.273923503911373 10.339671962478144 14.081114498249097
Sb 17.53308039431654 12.444045397469036 12.524956649989004
Sb 15.696923291971236 14.307201301959115 8.832687012158365
Sb 13.815490504008393 12.536446847617349 7.491807805345737
Sb 12.12379356702986 6.687049564979224 10.340121854103826
Sb 11.429513119315182 8.865081163821623 8.447393038782394
Sb 12.88922935352579 11.027060894147553 9.80865358297272
Sb 13.468952338798395 10.500298255331215 13.197964957009692
Sb 12.85901191390174 9.14188794538833 15.682408524532807
Sb 15.019474598133998 13.231325134768513 11.417346818934115
Sb 12.986733679529324 15.16701023989288 8.311277605743204
Sb 11.288191168475178 6.804724645744369 15.0191904718256
Sb 10.146992057689328 9.470823298914333 12.061312692516948
Sb 13.625532307934868 13.276189964494648 15.021911071790319
Sb 14.859599863727519 15.337345127776146 13.413404617948514
Sb 10.03368800790499 9.153594518664606 16.19260760550319
Sb 10.035280054726 6.66971960203453 12.40025995702743
Sb 8.772215890372282 9.400962043116033 9.512073893982347
Sb 11.71800916067441 14.465923878658488 10.851193042033904
Sb 11.028392375573551 14.251745449219893 15.65585736473637
Sb 12.732709616588972 16.815212584817413 12.161240307728287
Sb 9.872347973516456 12.836364776195843 13.422824123457627
Sb 8.403225437632909 10.390833377585325 14.139360258420067
Sb 9.305166880103057 12.222102463657817 9.968695708763104
Sb 10.813485307778725 16.825795651314934 14.30100466401177
Sb 9.563812054476081 16.185600232526866 9.955634964042842
Sb 7.39176234062159 14.241419337396803 13.485933326545677
Sb 6.696109437541049 12.811165226282604 11.08431164724
Sb 8.45362860364056 16.747927270596872 12.561923554813053
Sb 7.6421473280939916 14.330083836807631 8.837179776354278
