32
Energy = -124.48202553 eV
Sb 21.916599394549213 12.13527180314524 16.87132786378456
Sb 11.52542934030697 15.851112782144043 19.708051361684916
Sb 20.630641929756848 14.588855513400937 15.917439527999756
Sb 19.444072401666276 11.267232372485594 18.116738273548744
Sb 21.217121861897017 12.442524249093037 14.128387233872282
Sb 18.413732809129634 13.909311181753111 17.645041903893546
Sb 12.769531585289648 14.649422507170627 17.397578269399094
Sb 14.071746915413769 16.845438306293733 18.759246008899627
Sb 18.345029495245992 9.615838761305241 16.0647959469425
Sb 7.186266166765058 15.081119235688503 14.73985810525133
Sb 18.893344467528788 10.879876414323281 13.549561560666445
Sb 15.655135239402293 10.544277376306935 16.478768109984035
Sb 16.856801118954664 12.90983748865978 13.351575345460308
Sb 16.06354917723212 13.382310168210552 16.0613721750089
Sb 17.72112343522884 19.011645523634943 16.82433513706103
Sb 16.381034104602964 17.26929840153736 15.014361750394997
Sb 15.12403633578378 10.587291309388071 13.623899018845544
Sb 13.848485057891056 18.529318532483526 14.671692071319393
Sb 13.173288538785588 19.221590830067836 17.361693563833924
Sb 15.66119855965153 20.341306139585424 18.294192021451952
Sb 16.881093858427594 21.602132239020424 15.895819631055254
Sb 14.569867463221941 21.228481429811495 14.223347364059233
Sb 17.501184723744124 18.27126877173464 12.517394241913236
Sb 10.638941954937904 16.539099697842417 17.060004111730116
Sb 12.540221210369504 11.880318160807336 14.051407710493484
Sb 13.299637642621002 14.616172395832903 13.730740316059912
Sb 18.471613861317326 20.845803481933007 13.22277484268575
Sb 8.617396691334651 14.449027255732979 17.09714414320536
Sb 10.471718888782625 14.914528492412039 13.063999829205846
Sb 16.018522421499707 20.622964391812342 11.785090691287358
Sb 9.09088309933474 12.953058126241494 14.672840078704905
Sb 12.193953540695084 13.167597061819794 11.506096247271628
