33
Energy = -127.70642396 eV
Sb 22.60738223044047 15.926647252765523 15.429739266396249
Sb 20.913595590725603 13.713320503093756 16.11113550993072
Sb 21.022261952591002 15.992512457246931 17.818515010805516
Sb 19.75579592567942 16.193065722596295 15.268628811405192
Sb 18.09683031464966 11.525512303341364 17.581392665354823
Sb 17.58721407615644 13.901240740900846 19.122059429651248
Sb 17.5372274020148 18.74737962272067 17.909830119188086
Sb 15.902883713708448 11.55768167087378 19.484240378250394
Sb 15.819174322220338 17.316878231884267 19.77402370168814
Sb 16.313854769681072 12.398175752397764 15.401841433315672
Sb 14.903582579157774 19.740810806451822 18.487728744639053
Sb 16.176245896983943 11.03990457579547 7.781716323934216
Sb 16.517256423581998 15.019391145536087 16.6514619376497
Sb 14.264210877818371 15.200966949754257 18.427201206722668
Sb 14.366871755673552 11.158872225013669 17.096121236880435
Sb 15.38571708566567 18.30510590618387 16.030302441330026
Sb 15.407741621481167 11.18420124498542 10.543005975992745
Sb 11.690899622447814 12.152686872628559 17.51183836758405
Sb 14.376888226024844 15.068181924331187 13.930369757124637
Sb 12.789358004809804 12.864676652093687 12.913143599821707
Sb 15.308739838569041 20.383876254727756 14.016982554073222
Sb 12.10071459783126 16.98773470953059 17.594456755275534
Sb 10.804352879998586 11.882019133351378 14.749300130884547
Sb 12.388328460711339 16.985248608046742 14.760707520919286
Sb 15.784045142515147 13.599983582220052 9.08105612515972
Sb 13.552045817145164 11.917273873937207 8.50879921501631
Sb 14.619829204268553 18.879147938683296 11.636344499459119
Sb 12.585865630131646 19.615579206013642 13.472838269041729
Sb 13.989360383978168 15.969319799466014 11.237660106063577
Sb 10.342859419916161 14.714075919413954 17.799366245759582
Sb 11.23030114479627 14.680384869341701 11.36198920613138
Sb 9.085700869411088 14.16683445614255 15.23199372794163
Sb 9.958771501613226 16.203288501116727 13.419634520432297
