39
Energy = -151.02950552 eV
Sb 16.319231526478017 18.06975065360996 9.8387762865708
Sb 16.344761764618372 15.255301069327324 9.260382099609824
Sb 14.518468539905973 14.746248731537626 11.391546327434007
Sb 13.892416105701217 11.864641103204795 11.499416393385864
Sb 11.079472337527077 11.622723539763085 12.153376689876186
Sb 17.657765213067215 15.02118067100154 12.163475257260462
Sb 10.534902695081175 14.230258283543606 13.203324226827643
Sb 18.79967956156223 17.50318521664169 11.249067592755459
Sb 14.704501718025044 18.722127879936394 12.16302453373547
Sb 12.482488223669366 16.885105813075786 11.890673694381514
Sb 14.623252398612694 12.181618054298152 14.28451291579341
Sb 20.215103657098 14.923913984298693 13.795595009528034
Sb 17.351048683479217 11.735126145367351 13.502281583550483
Sb 20.24275788843465 17.454130606705906 15.205582457625749
Sb 18.384133843431368 19.049422052699256 13.661535725540396
Sb 11.103336485630297 9.857539818650912 14.46118195640057
Sb 18.5987044587606 13.424634611282373 15.60248350838599
Sb 9.137045453877102 13.942315028648569 15.580356108587594
Sb 16.227779980505687 17.19792008121402 14.122149633947853
Sb 13.1889517463261 15.159986405022758 14.247709244686561
Sb 9.894210154445028 11.376388470529267 16.581999103566385
Sb 11.1166599571396 19.163451134010952 13.77119742977034
Sb 18.3634214061735 9.450086620017759 15.03031010160442
Sb 15.269963156438893 15.245646208946773 16.883828510434977
Sb 12.317387411287257 15.264325714326262 17.049652952928806
Sb 12.310522959028207 19.000396894155898 16.41242501307074
Sb 18.640840213974965 17.530727107776087 17.632735809947107
Sb 9.725129661202208 17.780834943502505 15.834369119280897
Sb 20.217799673576575 11.15522246118683 16.430638433347536
Sb 13.875005421867355 9.54915470005296 15.20404144748469
Sb 18.061004702880698 9.89591771036469 17.86009566839398
Sb 15.845161343032165 18.04309060653739 16.94448653842734
Sb 18.93445418635461 14.762105795590365 18.24622664704791
Sb 13.81227941592583 10.410406134539707 17.96959954124737
Sb 11.076476121844744 21.518578699533077 17.013747060293902
Sb 11.948550766369745 12.592679954331185 18.14443866031639
Sb 9.026943896927689 20.592092134294447 15.312502468534559
Sb 16.163745046090114 12.002696761885097 17.410920118239847
Sb 16.356559353080737 14.18098532802007 19.352251259610018
