41
Energy = -158.95031775 eV
Sb 12.878433626184433 14.669533173176262 8.871791712030838
Sb 13.453406294082916 17.313764835142635 9.79244706763959
Sb 15.230278910346827 12.903335839404647 8.620161616584053
Sb 17.646429882081005 13.901006819978447 9.829799330024064
Sb 16.39144700944449 16.054145321178584 11.308520789698079
Sb 10.108047149900008 14.482257780155138 10.999398663837665
Sb 8.578595738770263 16.877456519604735 11.523496889052666
Sb 13.538534077380351 12.902263365047366 11.037385233214446
Sb 10.996763357311297 18.42183327854324 11.031998002761343
Sb 11.668993712252988 10.887880488097327 12.383902451478187
Sb 9.226373808007649 12.383748687650224 12.81902186408237
Sb 18.578122967599125 16.849004618636755 13.126950032970992
Sb 17.108491135624426 11.980214461874967 11.944013463179713
Sb 19.38559173841501 12.295412073295541 13.725547820559026
Sb 10.93499632060637 14.44833067997547 13.80652675814881
Sb 13.39886244751874 20.14301979814946 12.664875305581853
Sb 8.893218771348165 16.445182757634747 14.3677414761648
Sb 15.262468335394786 14.01371934177703 13.137097579983381
Sb 12.957940734851444 17.255489559920733 12.809876278234439
Sb 12.507379817842661 10.850513714770482 15.09019696173885
Sb 17.96880706186701 14.602141175680705 14.803081096796424
Sb 15.71539987886456 20.466972964225004 14.476858882709438
Sb 16.136440463685762 17.64765496110927 14.536481596807922
Sb 14.137458708922127 15.174574500873376 16.119841523455833
Sb 15.56910039760873 11.480839207648744 15.47861247184539
Sb 11.669876138175995 20.310645294051785 15.014505093431232
Sb 11.312171423652762 17.528265608380135 15.50405659871998
Sb 18.00128867519957 10.020831189411874 14.88971172947801
Sb 12.047379426499802 13.160464872217867 16.807268657572088
Sb 16.372104402392893 13.574388179219788 17.585897081947575
Sb 18.495057733757587 15.577581823766467 17.52897026219394
Sb 13.981856901499341 20.09371005283259 16.781391235144966
Sb 17.073794596591156 18.049070111309508 17.24726742356875
Sb 14.336543287768595 17.427676667794337 18.000538352101234
Sb 14.703096210969461 9.480869951603635 17.358310517243154
Sb 19.07985954565141 9.616248021427054 17.583557329879955
Sb 18.948903404357118 12.254594344611412 18.673390042768187
Sb 13.088226492804274 11.311692041677945 18.915063722347135
Sb 14.970922284544823 13.123025027870003 20.064551945860863
Sb 16.78076161959424 8.96377959543801 19.251623768779037
Sb 17.18194650833118 11.372232292537216 20.803642368084443
