48
Energy = -186.30624146 eV
Sb 15.991846162377772 17.904849727163448 10.934335579110668
Sb 14.07669933138544 23.025653929729067 10.9012128217804
Sb 14.228094606382848 20.074668833997205 11.761339052217787
Sb 16.91334799358439 22.672535151983155 10.966185077589735
Sb 17.105572810892642 20.113656419160776 12.462660141254858
Sb 11.71478386889294 14.219998468126612 14.141424033233415
Sb 14.129039255869236 14.443095547990128 12.615229685073718
Sb 22.48983916974758 19.236294953036555 16.204436981063044
Sb 11.349733178125598 16.470565821716786 15.93492389025088
Sb 12.562046374639623 18.472441801459492 13.642548042262954
Sb 13.890939356420422 23.518883641907852 13.721079589994673
Sb 19.7889150430659 19.50651353875702 15.271464053718708
Sb 23.08617553585157 16.534074921999697 15.34202567543602
Sb 16.015629029377795 19.968892613427265 15.34481743980152
Sb 12.256641711766326 11.776716743394774 15.610566768692749
Sb 18.657325187409697 17.00907248118048 16.201718831016343
Sb 20.523930707151372 15.415545469498738 14.709581535849868
Sb 16.151988820415845 13.098336793526773 14.144130335136587
Sb 16.70100444468917 24.081462355878973 13.509947488853369
Sb 13.30041125280028 20.892149782222333 15.376214375711589
Sb 13.815436047478089 17.12452683551946 17.37367342770065
Sb 15.06434346744254 17.01455027681478 13.574488065985413
Sb 22.15250266190728 18.391916679595624 18.940351608624006
Sb 14.699367655431097 10.709118382543608 14.602970109319587
Sb 17.69893365644315 10.121962734581507 15.99672954444155
Sb 19.95120403934998 13.47564766401062 16.767152712100348
Sb 15.78185810414215 14.499991327040556 16.637953486252545
Sb 13.59789748556613 13.056856607408998 17.781289760008008
Sb 12.686302736721546 19.168751151220164 19.08176007452982
Sb 20.630681216027067 10.672719372224718 16.5997492665526
Sb 17.235419063442468 12.24252437206334 17.94229280146922
Sb 19.025437781629083 21.31326034931741 17.41146789096778
Sb 16.810320650147343 22.63367342766293 16.02573950463796
Sb 11.993620658055319 15.315410909275538 18.624761360586632
Sb 16.797389505412752 19.59181583083173 18.219914441975252
Sb 14.477011633303404 21.31610756705763 18.32161844669791
Sb 17.573290814666358 8.738561222105224 18.544783309149
Sb 19.607355934272963 16.96798636469756 18.942466813254065
Sb 21.200263932780995 14.548158979754788 19.092745088778603
Sb 23.557885118771516 15.946063345242473 18.143411527667002
Sb 15.159029583996892 10.503665365991345 19.05968810689313
Sb 14.222287613992808 18.269312962425364 21.384705493945532
Sb 19.555759883157133 10.687468611539522 19.264945285271175
Sb 13.935712420000167 15.345831679300932 21.454567611303073
Sb 16.10630455383544 16.507539228864797 20.030064190954224
Sb 17.614865431683825 13.520960425081828 20.974963326926687
Sb 16.584823243423912 15.608672258610675 22.730649835740632
Sb 15.345072050610645 12.085877857597525 21.493596294756887
