46
Energy = -178.6472158 eV
Sb 17.998007924502378 18.479173889064672 13.077197588528126
Sb 15.431033841001026 17.76060826746614 12.01323566563882
Sb 14.443068588736576 13.792858863190887 6.395940329813999
Sb 13.080557218630092 14.62075928434435 8.765327971668555
Sb 17.68726111254656 16.01665733251988 11.56109378995357
Sb 10.984941774498171 18.026569999475477 11.34508979632374
Sb 16.00497515874215 17.136988735753153 14.772799444683425
Sb 13.199977638373205 11.215653219691148 7.090632069037208
Sb 10.750210392817367 11.388392426736004 5.5373805653767345
Sb 17.477415929205765 11.887905347724745 11.66931242009634
Sb 9.53976203643447 12.577608302233815 7.863080066793486
Sb 17.38198926932489 14.651256002421148 14.109015771303179
Sb 15.766835684500258 13.671143536425967 8.959573689699432
Sb 8.495108184355896 16.700410334244946 12.01464867224766
Sb 11.793979479509927 17.862818875816917 14.141073023063603
Sb 15.96874292532042 10.790884572385561 9.407740503694518
Sb 11.843972160104416 12.005880876624955 9.60801025470442
Sb 15.178644726012163 13.057236619223495 13.145159500407248
Sb 12.983132284157813 8.159954514177503 7.275299754061717
Sb 12.55746949144016 15.736953098842601 12.292158093456138
Sb 10.453995411075656 8.517479332385795 5.870897219639828
Sb 13.730468665067734 14.59417688466063 15.859858891282153
Sb 7.557539472565299 10.607392847971251 8.540688436552552
Sb 9.203571740716525 16.83914491356711 14.860194938728297
Sb 8.836785771694558 10.942731532766413 11.161435973841
Sb 16.83928529331434 9.42751379155763 13.109662916616218
Sb 8.939315072318273 8.134013820316692 8.291058048771479
Sb 10.062263654042523 14.264756076939637 11.88655713121325
Sb 14.668567008978032 13.642677676542863 18.394903521706883
Sb 13.33759552494882 7.400092603650728 11.370813686940979
Sb 15.886307088457164 11.12956730957057 15.252041228464565
Sb 11.501417188975493 8.853059618440238 9.57266577330133
Sb 12.464457633863 15.10913160904406 19.60280570320131
Sb 14.354650817794209 10.075440041156781 11.747303064939222
Sb 11.721390275516507 16.133036751271344 17.002211887925302
Sb 8.229908192605599 8.729522269761976 12.92427555012036
Sb 11.188716470822602 12.577583205333493 16.04524575276521
Sb 9.003613395192765 13.783949517927521 14.52153469342648
Sb 14.390224379275061 8.719119082876212 15.804445463540238
Sb 12.892883737431886 11.51542402810331 19.359175623594695
Sb 12.380171327771892 7.458711909826932 14.10360081681616
Sb 10.739676333755474 9.808927457790025 13.823573508558065
Sb 7.162506535182528 11.361245828407924 13.399325572225356
Sb 10.533742061275525 13.043903618021425 18.818698528804042
Sb 12.357259506728008 9.086953817878435 17.833416644852697
Sb 9.922359385939973 9.967367191682381 16.58873141398282
