47
Energy = -181.38943796 eV
Sb 7.8361720449964425 17.343398100710075 8.722106359997364
Sb 15.571485077902103 16.347678320777927 9.355101852749337
Sb 10.92507534736863 18.229951596000802 9.412308387905066
Sb 18.190877907595343 14.50162988231759 10.941232467278208
Sb 13.876716546359928 18.706970944199952 9.566499233215021
Sb 7.419727365137424 18.028509839851573 11.459227899959478
Sb 14.074385397340727 13.947419618393376 9.68381721287459
Sb 10.074461317169616 15.588916457254408 8.735140130639245
Sb 20.094906151330115 15.886887639258644 12.497415514661483
Sb 10.210241669738856 18.56071601602334 12.187312262749249
Sb 15.04428693671446 11.419024784625554 11.95384084579291
Sb 17.454253494186833 12.67169880859632 12.992055734944824
Sb 17.889789136332798 17.871988667623683 13.343809412853684
Sb 17.496077705376635 14.121900007592615 15.651238689756376
Sb 13.940574781574622 18.47106579724229 12.416521535293615
Sb 15.886707978299455 16.007438033068222 12.252723882665295
Sb 9.798594405198221 14.122766745214017 11.158450284080919
Sb 12.45296047006861 15.129666340853813 11.688217926349994
Sb 8.9158862078251 16.130373065665882 12.97803551644292
Sb 13.545581189559284 13.20234051417783 13.625454878012023
Sb 19.953499927783987 11.41505359591199 13.701976894295479
Sb 16.054083105942873 20.30853073044245 12.902793422849507
Sb 20.38066418715414 14.06515157044909 14.785104452498675
Sb 14.720178472185289 9.718158502546276 14.37761915668703
Sb 17.384870779465555 17.348528250584916 16.148461944334272
Sb 19.614040306015408 13.224508262114906 17.920366846484626
Sb 15.967412142496062 11.605611567254739 16.442975922527648
Sb 12.208143025109068 10.88742004182445 14.718669270574093
Sb 13.880372591163248 14.473436963807302 16.597308601967125
Sb 14.447338993947083 17.665272527286568 15.712688405730292
Sb 18.8590377171692 10.897149302462521 16.447448347959497
Sb 15.0067910312128 20.553662700807756 15.569453375727514
Sb 16.797329492004515 15.791669627729972 19.18992526454435
Sb 11.157069762306968 14.37564418259843 17.48289569608529
Sb 17.337723465554866 20.091755171293023 17.196682407363653
Sb 12.741539141957249 11.9253627457199 17.636119240892935
Sb 20.450627172456294 11.236573903374621 20.07697425170957
Sb 19.710764332687635 8.960210916553407 18.56126905323626
Sb 16.620024437642822 12.337667473099375 19.29880466792702
Sb 13.183415064774762 15.304286279765975 19.36519545946141
Sb 15.795100413831072 18.5627685804752 19.192517843346586
Sb 13.154404614060105 18.206929946844422 18.24310419624271
Sb 17.91382271334637 9.987255220533063 20.528330313638843
Sb 13.998097863058604 12.379566918615629 20.279700398033096
Sb 15.682148356254574 15.705614155167462 21.89926022886176
Sb 18.392473726718205 16.58666764294889 21.52055191744908
Sb 16.337673858248092 18.542609864961147 22.03070021597159
