45
Energy = -175.37134062 eV
Sb 11.8453124228718 13.731321699749154 9.554491694870617
Sb 11.1668119036582 16.466841507668224 10.28096736367395
Sb 20.77700048383129 14.22594976495047 10.286910004317487
Sb 18.97365066390131 16.03617037581494 8.933364084858386
Sb 11.046378932854283 11.642237501183748 11.40424856848848
Sb 14.481682384601783 13.764172281238409 10.661816370905237
Sb 19.681923221481274 18.151094743265162 10.821685909907151
Sb 13.904576463643405 13.72636711028858 13.52622787417594
Sb 11.098372409807439 19.335718189758524 12.32953087325698
Sb 18.560046695348753 12.849817714142462 11.443103943881335
Sb 13.923644317793444 11.241459394964927 11.981634540422833
Sb 21.496569639910202 16.32167003051332 12.134528422941653
Sb 19.713330022968396 11.309804092825278 13.584046874553014
Sb 17.133784987443363 16.819747596219905 11.005829207986649
Sb 15.263443688912476 9.108500874185452 15.211253393613475
Sb 11.184610460755884 20.462751835924138 14.999479924362854
Sb 10.128077226419549 16.675739558671633 13.003692840367261
Sb 10.996938534970647 13.386287452229302 13.687409542122861
Sb 13.808020686201194 21.62672285898597 15.34979858523222
Sb 17.442553707629244 14.889142404541817 13.120013925770436
Sb 12.915915904091898 17.08025065103183 12.494782697823473
Sb 19.795115086213002 15.919863613813405 14.381819006253709
Sb 16.833158849293028 11.35151088796518 14.217301307255168
Sb 10.848370790339203 11.175992406969263 15.62577293074897
Sb 21.011660613360224 13.437154469338525 15.10880882754932
Sb 12.195879670296595 18.548520996653174 16.892431784883424
Sb 13.430826685947967 20.891149857386957 18.11911260298366
Sb 9.724802984893692 15.520357274748898 16.392346447639863
Sb 15.650540673957554 17.091416407526154 16.808857752018767
Sb 10.640863876676397 13.110811972839068 17.878072925513464
Sb 14.609330993080935 9.475053667438067 18.014995206822572
Sb 16.871149468322535 13.12313446022582 16.49557183542706
Sb 13.686082304347124 11.382902875960136 16.086458242299724
Sb 10.014883891771849 17.45013492713013 18.534155872074763
Sb 12.58405801165439 14.925434191430956 16.741271995426327
Sb 18.43123356369435 17.55546630395243 17.478209698092318
Sb 19.53149732032128 12.799892258483244 17.49651711843885
Sb 15.809402965044859 20.02455796645317 16.730719053692297
Sb 12.320410723551907 13.644451648827667 20.607754993781178
Sb 19.289240281793262 15.266084753814203 19.029555197863687
Sb 16.526627305309066 11.434864744898219 18.869791444542386
Sb 14.807201816360829 13.775905276466629 19.063027535608395
Sb 12.55290538388524 16.243365849567656 19.364971537006944
Sb 16.315927219686767 17.78020716334561 19.516655124910507
Sb 16.876262075976186 15.120075701487261 20.631082230508575
