44
Energy = -171.09873481 eV
Sb 5.52451652742783 14.064424890085292 13.741676069796135
Sb 7.846920041820615 14.126213656592572 11.975179854851266
Sb 7.968707657963916 11.850382952715913 15.910127198992111
Sb 7.237224298867972 14.63841313917257 16.07449318756229
Sb 7.0387967106853715 11.662572079035591 13.200190096157385
Sb 11.832459865517182 12.6452792549691 20.142467073623735
Sb 8.673851876863768 16.00040250013529 14.016177306874765
Sb 8.84287203147123 13.045753503784876 8.446372590250638
Sb 8.916701529022726 15.744563809373828 7.554234927835769
Sb 11.755101976099223 9.741476245010105 16.49744729217215
Sb 10.736664064864131 12.070412431127648 15.197007968845053
Sb 11.351973496728029 16.337741674636817 15.03717769278273
Sb 10.355348695538066 9.70809562960816 9.236885154622517
Sb 13.49324891240258 11.51019459784318 18.0963863849645
Sb 11.733666018935267 13.743004859966495 17.44637917936641
Sb 11.52514449412277 16.721069758701844 8.384602697311104
Sb 10.82471853736105 12.418573048948621 10.548115376826242
Sb 14.950733895902546 8.061535225001348 13.004798805729306
Sb 12.305496458167548 9.938188369382418 7.183244701383775
Sb 13.94548231076174 14.586265861228261 20.237335463364285
Sb 10.288590327504009 13.631386616826004 6.0462402135388595
Sb 13.066558916861963 11.466700441939745 12.63582674892434
Sb 14.116257237326495 15.676486487125626 17.416983384391983
Sb 12.240962439427834 17.92401156829774 12.806102702453218
Sb 12.776360881462969 8.2228678333219 9.392376366556427
Sb 12.866099090137093 14.546905462350258 7.012081712753926
Sb 16.45133953050389 12.889497148656169 12.464258734690898
Sb 14.207557678394629 10.092860880799815 14.925637222284063
Sb 16.155761423623687 14.00245133224052 18.447568308253192
Sb 13.51271929692924 14.412352028700314 14.406898292748652
Sb 17.726922810124535 8.760557682867042 13.537317064063462
Sb 14.650876233422368 16.236462798750082 10.427986605986266
Sb 16.175078979980217 12.841628559479776 15.646162527677872
Sb 11.905951566229557 15.599603709993573 11.004167358336119
Sb 13.210192772350453 12.350089275485606 8.87543992735718
Sb 14.880581618941223 16.750970521791075 13.291400836278115
Sb 18.036813962181277 15.131987812065805 15.54308017565254
Sb 20.092798622271463 11.255920439742937 13.980205111089246
Sb 14.739864494372942 9.911728635768135 10.801132867433742
Sb 17.994091527806443 10.536156639283911 15.825033254143673
Sb 18.3679277810555 10.889498027733449 11.676277597815265
Sb 18.232177174216613 15.213795745172265 12.661975747873779
Sb 15.733091785612038 13.654570945981558 9.762143421611315
Sb 20.377501192139576 14.116235660860104 14.22406610353166
