47
Energy = -182.60432913 eV
Sb 12.240078086568102 11.94453874899303 9.13539276875645
Sb 18.19743132242668 17.623969786587498 10.180216940228563
Sb 12.6212557226921 14.783120693865794 8.549024017945278
Sb 15.472626346498101 18.435540409565625 9.687837520839238
Sb 14.701861990433493 12.242206847898913 10.636906909196442
Sb 11.985908486160358 15.895088951214111 11.12885527472772
Sb 18.693689789347015 15.222641894623026 11.847877048687485
Sb 16.996738415332565 13.073362204974462 13.05858298872281
Sb 10.74017008838782 12.172145521975883 11.613860852699908
Sb 14.506221888868719 19.944380150684825 12.017605327582329
Sb 16.998521503310005 15.72638254446426 14.162797139139919
Sb 17.848631456767244 18.664455097675688 12.852715859276598
Sb 13.017378497770824 13.602094171706543 12.623666968695845
Sb 12.096621055793635 16.79466324620884 14.390358703908259
Sb 14.498481211610514 9.91123624613659 12.358472906087629
Sb 14.76044712796111 15.723311537365054 10.44039625492568
Sb 17.00083548595478 21.375599496843073 12.482123739540869
Sb 19.777875153698492 15.732389438422251 14.936370961064114
Sb 11.633466127032053 9.65427917336795 12.697641097992257
Sb 18.793448269586154 11.243766139768587 14.455885773744837
Sb 20.24250126224613 18.626760297944752 14.473267140791608
Sb 14.762577105865997 18.536058753160866 14.622034574419965
Sb 16.564436285411198 9.69521340537738 16.061769723947165
Sb 16.35414634886066 21.06832622988577 15.286075512368837
Sb 12.173082100328156 10.189976209724362 15.536827001184813
Sb 14.679854601072616 11.462480648070073 14.835333324033899
Sb 10.957779131507804 12.672792026927999 16.422514128852608
Sb 13.055423186809193 14.643682427561162 16.10516422865923
Sb 10.666069678952717 18.216800492663854 16.378598777400054
Sb 20.29739016903833 12.285752060986294 16.668101091557787
Sb 12.881693203530217 19.921312217450954 16.392561383177128
Sb 18.808663867608505 20.112410156106833 16.504806041322283
Sb 19.36857874337677 14.83411624386916 17.720339241955124
Sb 17.731312665762253 11.473950812537968 17.980735183678252
Sb 16.586673747507774 14.045971399240425 17.296634913433103
Sb 17.115836882289592 17.977672208606744 17.553338433538237
Sb 14.367304068104678 9.962661014269338 18.546197787263832
Sb 12.143227201334126 11.776899582788577 18.933777873893284
Sb 11.652304505073712 15.832630464626778 18.354644804129038
Sb 13.877112471042372 17.76894338208072 18.36952403697291
Sb 13.071951414491947 14.148225013258623 20.34411066311284
Sb 16.392241943568603 20.354442100698908 19.171422559226166
Sb 16.102690934938476 11.09313632493251 20.453430556496897
Sb 17.85901587037338 18.137434083667102 20.32624633793932
Sb 15.921227247495196 14.007098573092314 20.1413401856926
Sb 15.243140575085112 17.114271055220613 21.10868447376642
Sb 13.90173706853712 19.635470819319252 20.515591273836773
