47
Energy = -183.96558768 eV
Sb 15.393782432552344 18.01351008347232 9.893680550653048
Sb 16.378183532751763 15.292595606182568 10.129917114719865
Sb 12.936883292297443 12.313390958366917 10.299267175527197
Sb 15.685932658016744 11.613754639133399 10.278535208059749
Sb 15.567040860031357 8.845396138380567 11.193577310332723
Sb 12.633743989121168 17.20557732115626 9.861640755816898
Sb 12.568639691934042 14.90609610947013 11.680533599437622
Sb 19.13072580714507 16.0634632572094 10.726954741526727
Sb 19.47172436701353 13.331575930007451 11.66006903790902
Sb 16.565030819881205 10.873349625678193 13.074199775687008
Sb 14.778447937223063 18.05709589030393 12.72332937631975
Sb 15.208329947938468 15.103365419262287 12.795289229765023
Sb 13.199260760741815 8.500502654001641 12.720961573155781
Sb 12.007224104914712 11.099757891580042 12.717531903059092
Sb 12.059934440285708 18.597517378809023 12.350709833418746
Sb 14.188844297473944 12.107304905973184 14.322047344921767
Sb 18.511818876829754 16.696131880703167 13.450633714722258
Sb 18.08323025910217 13.469895738394406 14.227815179429788
Sb 16.30401870719316 18.701336688616898 15.206704676003412
Sb 18.651677040392443 19.59301847014766 13.835238061702473
Sb 9.338243239207966 16.160277894238558 14.939108579504637
Sb 17.44352293652718 15.76554364754025 17.059966674279273
Sb 11.617771397309477 14.416718238176227 15.242942434832926
Sb 7.963627735866064 14.298042447902331 16.706547876140966
Sb 15.703196317634388 21.1898407523478 16.477565636352544
Sb 16.634423641865066 9.031499301159194 15.50422886678646
Sb 19.998120424891447 19.518897077164326 16.4128890627144
Sb 20.952965773869074 13.390198495499199 14.162636706523383
Sb 21.15330854031626 16.27425855095005 14.43854838667599
Sb 12.500727213054173 18.68214550156987 15.720629131692018
Sb 13.817529683341666 9.435730162269216 15.567995408528374
Sb 9.880543115048889 18.252063699706504 16.80298834059494
Sb 13.773328949349793 16.122777259033313 16.172668404414146
Sb 10.436471353127365 12.912334405125444 17.452743311730945
Sb 20.19866208925548 16.70934748022656 17.143924208536806
Sb 17.023133475443267 11.596322430910375 16.76802408798835
Sb 17.851074584720266 20.343546938804874 18.237983563114284
Sb 13.456756718543202 20.227940012180422 17.990569321297336
Sb 17.80095406928057 11.445734941521033 19.54452681810242
Sb 9.125966709725958 14.690221750159061 19.2826059190322
Sb 14.303769156477076 12.173202055806223 17.50469680803696
Sb 17.21422958894227 17.725689557497393 19.236323619447596
Sb 13.229305766378795 15.81297403425858 18.94947577831635
Sb 17.974277407813688 14.330842729507143 19.59987260661457
Sb 10.661800392705764 17.108700356554987 19.294807522352126
Sb 15.45332705589102 13.053667228671767 20.083838556725308
Sb 14.472087890679788 18.2504455144754 19.856855257601733
