45
Energy = -174.77949938 eV
Sb 13.329027159452629 14.487291967404607 9.242236428370742
Sb 15.870774007644416 11.531979158844216 9.877791010947337
Sb 15.467274624876476 14.117833211607222 11.145123480050842
Sb 17.6370414859025 15.426728502595767 9.748401037810183
Sb 9.321072392208327 14.933046836343793 10.557720397223825
Sb 16.337571944561823 18.0233680371665 9.475335656057466
Sb 13.731206305133211 17.265238967342658 8.62565205133905
Sb 18.098933376425723 10.403519196949283 11.325004966845352
Sb 12.031211374671155 16.368522279841564 10.947807186689685
Sb 18.30792722015129 15.401222752943205 12.584468952941545
Sb 15.4339394606331 9.830185264710316 12.17240386897294
Sb 10.090030591610299 12.295505000290097 10.912432190204985
Sb 8.660246543071425 14.971363105960569 13.354488151456465
Sb 16.148573871444444 17.76448451998666 12.38661209577857
Sb 10.693366375908463 12.966013274674216 13.611596124009631
Sb 20.352518147764894 17.338151533847313 13.164781852718361
Sb 18.452196323839146 19.51628166384384 12.836296456243929
Sb 10.411838474812551 17.053142441320606 14.353245465670367
Sb 14.240887639239716 19.4850814406795 14.027444202161336
Sb 16.97217225810603 11.8840105453963 13.508954671869002
Sb 17.874466159916942 10.241859283452861 15.728213258800166
Sb 15.341290292128448 8.850710841514159 15.927604598099146
Sb 17.612259858058223 18.961711675905004 15.509605247918866
Sb 15.002852080777629 17.084871030686344 15.390399323888328
Sb 13.521348359848403 11.11186683987179 15.496031386804002
Sb 15.692339035513875 20.98826564149776 16.110377088391193
Sb 20.40106427039546 16.417192968909422 15.975134736581376
Sb 9.351683659668778 11.13730399554255 15.443150644199493
Sb 16.494073451729484 12.005001752255355 17.532767088457174
Sb 12.83281141497731 15.570319457688289 13.714047426899498
Sb 17.953247180730212 14.822317951426063 16.098317869322774
Sb 11.348779107596892 9.249071272465635 15.799953975231391
Sb 19.77304662751081 18.868304525005076 17.37861980845065
Sb 9.395850212995706 16.07496408144564 16.862942048170797
Sb 15.415631517018193 9.54444742465472 18.744727776076804
Sb 13.152729242839285 14.44497515785215 16.984123010274438
Sb 18.76704819138049 13.498640184209188 18.58255069041269
Sb 10.441589818104243 13.371525233673502 17.34202861539771
Sb 15.043177456618706 18.803329000448457 17.908578236008676
Sb 17.62642172620106 18.18035797853112 19.19870509507282
Sb 12.768116283312485 10.699311356336061 18.28688606573401
Sb 13.687982943858009 13.276860699169642 19.57214756549232
Sb 11.767247954516398 16.56314131243205 18.458239556612185
Sb 16.71053411681304 15.519174502884482 18.594729860722875
Sb 11.069867768269482 14.28477443863089 20.135591087855403
