48
Energy = -187.29792914 eV
Sb 13.739673788613153 15.088363305027693 10.3446291908445
Sb 17.77785786300661 14.704539169094001 9.540870863209573
Sb 14.637535614495786 17.794893294909556 10.135919592238109
Sb 15.482215249362815 13.736717024634464 8.501790923702345
Sb 20.394977964279747 8.452912179247514 12.595308556136159
Sb 12.61661944228395 12.169160258463204 12.502082433059586
Sb 16.855671382567685 16.58666899626162 11.581785473115636
Sb 13.08805818831696 9.214931049227252 12.618740258557985
Sb 10.021968385757644 17.851478196045665 15.884386348270397
Sb 13.72548379560422 18.736177801490268 12.697326473656878
Sb 15.14512157920964 14.49687021293271 12.793262854403835
Sb 17.523573630346103 8.365534430766843 12.717524320038006
Sb 19.040486595467748 7.89043488791958 15.11587468563516
Sb 18.98027614848632 12.421245744676282 11.965762031369563
Sb 11.124785921447781 13.908181416127928 10.772573187657251
Sb 19.211290198921972 18.342468363434822 14.517920405114703
Sb 10.924865990189064 18.751712947706892 12.203654608082601
Sb 20.979700152094985 11.119983990507857 13.54640832505036
Sb 16.041242667551487 20.50412597508032 16.10113248016902
Sb 9.917391094127517 11.837846700214575 13.344828218125643
Sb 16.58465791221172 11.09165737205623 12.86467424030081
Sb 12.114687538603661 19.741229740971107 16.482250534708747
Sb 19.6445561635358 10.574732681894439 16.04108128330352
Sb 13.430464936683354 16.263281410022046 14.287800953018927
Sb 10.778465767539279 15.67153496636935 13.211000501811855
Sb 19.047114164827637 14.841564301398263 13.570181278672129
Sb 18.932558842420487 20.841848030458436 15.993209913808391
Sb 16.46227335838563 17.713200554648065 15.326557659122603
Sb 10.722925502011895 9.155042839883915 14.266384031858863
Sb 11.188020238306557 20.97974730272562 13.996268120324176
Sb 10.673116470569772 13.571356213699378 15.483545898486861
Sb 17.67097995758936 20.01283113915362 18.439475519936604
Sb 9.386918308172651 20.618848000896527 16.23090750564662
Sb 13.254678431174083 9.696739882351476 15.436009821673021
Sb 16.912834501058544 11.342450330029894 15.68665144442882
Sb 13.406756741049673 12.666733030887812 15.784788637645976
Sb 20.2332636496785 17.06984406547096 16.900564697195545
Sb 17.209669955534324 14.241721945233918 15.779533464531028
Sb 20.080949347783477 14.233131036530082 16.196358198616103
Sb 14.19563666696109 16.85750175167391 18.434972693195128
Sb 11.77414651791931 18.335500884018607 19.86784762855444
Sb 9.556663248875568 17.092410101113547 18.665732228766082
Sb 17.518221823129604 17.145534164627918 17.97333972203954
Sb 15.325424721472537 14.030943897131259 18.93396401620072
Sb 13.051208876969634 12.393134657750243 18.66495692663699
Sb 11.783033776428155 15.108289362682012 18.51879438038073
Sb 11.942297842691099 15.793293411319908 21.323172274743857
Sb 14.837357850516634 15.88932974546339 21.105873960185058
