43
Energy = -165.548176 eV
Sb 12.473763357127021 14.562411609862169 9.632714653216125
Sb 13.806553404131932 12.238736826749138 8.564416063588732
Sb 14.667793641955068 16.159962632954045 10.785229146876137
Sb 17.552135999552704 14.84362091024632 10.328990330858048
Sb 9.580897017904698 15.073029840635067 11.644865048855266
Sb 12.635815075986754 10.099068622772545 10.140936791591779
Sb 18.883937039232833 17.486431368094415 10.41832822750234
Sb 19.932191343400014 13.520474149973131 11.636543116660723
Sb 8.488817451613253 15.546085637975322 14.304346873265091
Sb 12.124903513304934 13.84999506647852 12.401466726457288
Sb 14.43813131690827 19.026513138040357 11.223450655777997
Sb 8.7051370758884 12.286451020952558 11.798535671685856
Sb 14.270660309556776 18.5857868642146 14.133513138333317
Sb 16.312144716523044 11.737176506626534 9.917097561398167
Sb 11.277212586719925 11.063341436051962 12.516033740286101
Sb 17.146193811575674 19.031356904423504 12.124793681916197
Sb 15.139645826455727 9.53507328420948 11.509968339688072
Sb 14.37278354396147 15.717144674548905 13.654866555525208
Sb 20.110798684100732 16.218149224089675 12.783511666029787
Sb 18.181215847647458 12.481174125954832 13.776388705900576
Sb 17.39102414189974 15.214411485768307 13.191898252759628
Sb 8.096165216144014 12.72135175154141 14.593292919677422
Sb 15.456949211365803 12.18004655560985 12.615133598591495
Sb 19.912550459367253 16.70376676332652 16.804029688165695
Sb 19.462017217112226 13.834742978894292 17.4380018420028
Sb 13.174439413855872 12.164032533905425 15.492824819202944
Sb 17.50729559446173 17.69143313521428 15.404593300216202
Sb 16.60996886994816 14.031480903566232 16.974496872806373
Sb 11.186975925527976 15.572478244382902 15.400112858636767
Sb 11.664519229345144 18.460872451451177 15.609856726367202
Sb 18.612577387850298 19.16166446833794 17.632072622410924
Sb 16.453910968095276 11.616811740027288 18.590303041765544
Sb 10.468152529523 11.79019772505344 16.463714249922752
Sb 13.36154636821228 14.332999467764544 17.726481757149145
Sb 18.575921951725718 12.941654201058414 20.07294907136559
Sb 12.872108095067828 10.482527640805223 17.705022075047133
Sb 13.304455098150827 18.93739673976829 17.94883458414277
Sb 13.944903950186912 12.43471985384343 19.844379463131396
Sb 10.489709013091646 14.336694074024917 17.945902734530268
Sb 16.06614954438976 17.81999482599972 17.978417862887863
Sb 17.003111610199685 15.425287739821679 19.538914954756105
Sb 12.554435247767737 16.66583500194655 19.53108089061993
Sb 14.559715248771285 15.246949728641574 21.031022974037683
