46
Energy = -179.15343277 eV
Sb 14.837725816659821 12.574072150197036 9.92709925040815
Sb 17.644290624758263 12.087907314365511 9.25277182426009
Sb 14.816277859605906 13.345875454696143 5.967131682586964
Sb 13.902139347189696 11.088697983040788 7.542965958071792
Sb 18.266403792182313 14.268293382727657 11.064690866982424
Sb 13.77117595007904 15.947768802428309 11.209231743521299
Sb 13.328783498255122 17.379823919256452 8.621533611159519
Sb 19.604609130418925 10.459471837281031 13.117070087736417
Sb 16.25225011013388 14.432423984120893 8.242708467118398
Sb 12.716990006846359 15.213854189448234 6.7101767075016685
Sb 16.509379212667568 11.93096726767448 16.291152580586882
Sb 11.071027019995848 11.740416269124422 7.485782425166197
Sb 10.534911513413018 16.663209817613538 9.056758665906033
Sb 11.526148340556185 17.729243543391117 11.5648364173319
Sb 16.823227609758106 15.849386062321914 14.573245009072773
Sb 14.791624017280041 17.606204658067263 13.409807640245523
Sb 16.836823239891327 10.226058045554726 12.34511606986749
Sb 16.454717205041376 13.23279315068863 13.089891006413199
Sb 12.865960660933686 15.82226884925434 14.588560215794923
Sb 17.59852132079199 9.480819235799682 14.939436824297003
Sb 19.29855993584827 13.298597320022035 13.593425543156046
Sb 11.851168638600939 13.986072623541697 9.116160746760261
Sb 13.446713279950838 16.498593101699395 17.29525029676697
Sb 10.48909780407728 17.41848865709277 14.26760724476579
Sb 10.60265069964431 13.231181463753035 15.451451914974076
Sb 10.29711178185876 11.95218890331861 11.742576531897496
Sb 15.950070203356127 15.00968926180973 17.114683121158297
Sb 8.189561915477604 13.243848235878085 10.24260759662592
Sb 12.444017537172222 8.502545138068875 10.14553576777307
Sb 7.058273874752997 14.769052905918384 12.446153588821149
Sb 8.616033891613284 15.259447449265263 14.80947109025531
Sb 13.864628314721665 10.898799133794352 15.838251218163212
Sb 13.35904467640897 9.835030844759924 12.58152844454724
Sb 10.04537729546834 10.02560754437783 9.608077218775339
Sb 10.80684939049981 15.238208906474087 17.55174860995071
Sb 15.231737320703218 10.208216466035925 18.257147427833157
Sb 11.263331832859528 8.7097143266561 14.293877060016422
Sb 6.145614041818283 12.383700741847012 13.73118139191786
Sb 13.363184527972463 12.428359543210638 18.220936457501647
Sb 8.28290412700597 10.47947090676747 13.249102663621287
Sb 8.930487584123744 11.912374691860634 17.450998910632993
Sb 6.405908499682964 11.098623568615936 11.137666864835277
Sb 11.271119269915937 6.763060549055056 12.129235935112531
Sb 13.639691405835933 7.211623103631127 13.759148024035229
Sb 11.04952512218155 10.972443010596928 19.1634843673379
Sb 9.824736369594826 13.512182075478618 19.694861790997138
