42
Energy = -163.87579834 eV
Sb 14.567371420033082 17.513974214403934 8.567657505731379
Sb 13.119259928362453 12.672016690937175 8.742947502157133
Sb 15.324198433658236 10.976595639929705 9.795805449989949
Sb 10.428445820510147 12.30488789743976 9.95917066964965
Sb 15.864186927332105 18.7797695820904 10.840474580710705
Sb 17.502711509115503 16.517115960113788 11.619602559184203
Sb 14.558052168361467 9.389500244228893 12.11792264656231
Sb 17.165427852652666 12.939041589366969 10.849216638857735
Sb 11.878074146751848 16.965093156240595 9.420921378797576
Sb 9.699248562499237 14.548076823454311 11.675805835468948
Sb 11.351939563471465 9.95922466254452 11.366155455925359
Sb 13.823523260469658 19.3016701766936 12.775163465423969
Sb 13.055659997913935 11.747880766498222 12.912405363782316
Sb 11.461656599580646 17.865860636778805 12.120993823530261
Sb 18.520277219708213 11.615852171212977 13.06373589675944
Sb 13.993837444286461 15.089163072334125 10.061761820329922
Sb 17.001821733217373 9.284422865039526 13.711291053915756
Sb 12.267416256473812 15.093174322869132 12.826050911611405
Sb 15.739893117828268 14.554552735571805 12.822823565368633
Sb 19.114249506931724 17.632330680127527 13.688472835620342
Sb 10.278838162030025 13.81814199691513 14.507141908200438
Sb 12.69370099972213 8.227193074158597 15.19097140721428
Sb 14.378306992375535 17.208266795034643 14.893855113321962
Sb 11.809067684499528 18.21955214076895 15.93086260955485
Sb 15.375567426197641 19.502803692477936 16.314028117922447
Sb 10.848633373498139 10.284241932072817 14.216125062537323
Sb 18.21137459402038 19.033091427935016 16.066787358944733
Sb 10.01247588420345 15.983310000012242 16.482272011679406
Sb 17.34062540407472 13.464566865618968 15.00213367950514
Sb 19.626612648198947 15.219350238556736 15.189590069951365
Sb 14.992915502497917 9.878412559700728 15.775646937317767
Sb 13.956068044354097 12.616071840347674 15.992427199642977
Sb 18.564606274887254 16.54436966274402 17.58102043933347
Sb 12.156445706668128 9.012680647079536 17.955384161920925
Sb 15.324650329323344 18.04130572626603 18.83040221412785
Sb 12.426302359678736 17.793277240454106 18.752702015763532
Sb 11.43596846159677 11.71645659598098 17.192569495569437
Sb 12.518561075963046 15.127820131348711 17.66838406186364
Sb 14.921949026604318 9.425246890277755 18.643383244345316
Sb 15.179065150734033 12.42319322811562 18.675652514691194
Sb 15.852669543290633 15.614568711042612 17.387935369063694
Sb 12.468904710927761 12.906435539720402 19.622906872656063
