46
Energy = -177.16381186 eV
Sb 19.348266421106562 14.491337407710915 5.1537840039476075
Sb 15.649923898501047 4.11379004451831 19.95598083318466
Sb -0.7674754762818038 16.18584509538753 -0.7620453477163105
Sb 19.97220901249004 2.4583473186813842 -1.9159830704186116
Sb 18.700471696871066 12.238670984129142 1.5659590597829474
Sb 17.235189692596084 14.596732270612117 1.0810899565151075
Sb -0.6852301873357938 20.127651501136484 1.9079126969512326
Sb 16.87787229562014 18.257948408895857 13.625620993572241
Sb 0.5562669528093913 16.38462604050814 3.600304431123508
Sb 14.76518944152852 -1.3712038654901697 16.134263956544523
Sb 16.75255880743207 0.558646864816528 -0.6357587844239514
Sb 0.29949299821551395 17.402724511452732 14.308919421634272
Sb 0.5078729626823243 18.77997742160244 -0.3375610452333478
Sb -0.6852134802684651 3.0871211296207233 0.3306565359167042
Sb 4.286076099232174 17.825472417648385 18.30708770564694
Sb 15.16934364243021 20.604724194206714 13.31599083348305
Sb 18.716000553799525 19.777288529929503 15.240339692164135
Sb 17.085704143562804 -1.2426619975635578 1.702677734288121
Sb 19.293317827862147 15.527206364839133 14.22406979201823
Sb 0.3624623726582747 0.5550216159823816 21.45224224326298
Sb 19.106820747450584 0.7675916319448528 2.2035978785862422
Sb 2.9368354847210973 -0.3871511058395466 18.777634120827642
Sb -1.6975777871535433 18.048908450850092 3.5622842824713916
Sb 2.764502679486286 -1.2279463092270735 21.330807138532908
Sb 14.293866683734294 1.6225821890225922 20.53954895334881
Sb 19.507518423439116 21.07102888006203 0.12964269799015526
Sb 17.03460676535599 -0.14007451238955276 14.883378883159143
Sb 15.98172599597976 1.8378461744147008 18.204809129710945
Sb 17.688922774130912 12.252796664674227 4.282543195592769
Sb 19.073717423253346 19.607095630356888 12.399255335236365
Sb -0.10871162641296589 4.26763530012593 20.063212362689278
Sb 1.440653495148618 18.04231209650135 18.21102760291001
Sb 20.578141131114823 17.118550626756615 12.205599361541015
Sb 1.5922527053928734 16.424778313505932 0.8816818263335897
Sb 13.075606400942492 0.7502612438848916 15.202142786474873
Sb 17.06622135005762 2.6267596843569847 1.234426042059936
Sb 16.774803174667827 14.964355132013761 3.919567033166716
Sb 21.054163641077732 13.905214346526591 2.918989935913887
Sb -0.3229117934916112 14.691691770857892 15.095192333899538
Sb 2.7699091677284895 15.980523485513986 16.705040438023
Sb 18.123477295136055 4.384848451897076 -0.7987765722572248
Sb -2.5371924243257626 16.055145460529747 1.5444098917090798
Sb -1.6032148796892494 16.87390638137902 16.408594479486414
Sb 2.0329201629470144 2.1753824927694163 19.98098133687542
Sb 2.647266214714812 15.8331775177648 19.574169664524824
Sb 13.888776884149676 2.909640402233391 16.586094966159397
