45
Energy = -175.53105176 eV
Sb 15.850297041407586 12.104525907846389 9.244876192035786
Sb 12.851516181272505 13.412387121674676 9.310036140677907
Sb 10.908342951658826 11.824503875235331 10.805587360382754
Sb 14.02176673940002 17.219526663584645 9.531475517979136
Sb 10.257906073918468 15.071809299128537 9.862546633035375
Sb 12.07050404692514 9.980301712512471 12.732976905115425
Sb 15.752734824836265 10.313435358523295 11.492219748225091
Sb 16.81290682142107 14.561829956778778 10.370954193023247
Sb 11.225584768592638 17.80125533063361 9.803565628166695
Sb 19.133002263060646 18.49904800439135 12.342539232382594
Sb 15.220497020997003 19.151789663497127 11.292574225499655
Sb 14.095230017041715 15.026571488145022 11.402729151543634
Sb 14.09579983652304 11.967027144588897 13.211660185908707
Sb 17.312333087945888 19.7363314110178 14.368886740949483
Sb 18.398582100975116 11.080475053384948 12.407545040866548
Sb 11.025552583163586 14.13128313104468 12.490094134597433
Sb 17.124328065808147 13.51652118939625 13.07610912431966
Sb 10.03659086116636 10.661254274119052 14.724434259741502
Sb 10.777591707231467 18.49060851716565 12.54384602521017
Sb 13.263717530403824 19.676817285253556 13.37581547728584
Sb 16.63809605508171 17.25190871104011 12.99496729287428
Sb 20.71916257089991 17.13550682173068 14.298543004906666
Sb 19.205553547761447 14.556129096062646 14.865715832210528
Sb 8.793230023669103 13.23967952180802 14.130822996091306
Sb 12.671531654198326 16.946455838387767 14.134955116198624
Sb 19.308505124494015 18.719312059903544 16.15623381228433
Sb 17.89148261516817 10.309101303601365 15.150587194647303
Sb 11.18711707954382 18.13519565698445 16.35984750572684
Sb 11.86168022875325 12.174433776317148 16.39290856521174
Sb 15.420043132915012 11.733335193316474 15.820247709438597
Sb 13.312417822008706 19.36759524697462 17.921847708046716
Sb 19.87230216250446 12.04166833590996 16.312205518472076
Sb 13.062618588967428 8.783495942172303 18.888964432891303
Sb 9.53947925890259 13.727647690508826 16.92287046370105
Sb 15.296260518527223 18.06251079471524 16.27973047602808
Sb 15.350564890553182 9.276418590487763 17.415346227560825
Sb 11.119099350651002 15.891090405841593 18.165561978226467
Sb 17.422640203080928 17.40830268903559 18.14518880939291
Sb 11.8736435091816 11.31206179421962 19.156452869948783
Sb 14.447253905187353 17.040415713783037 19.178345460684646
Sb 13.721790291328581 14.88403587734995 17.336787004899943
Sb 16.285739200065247 11.293477931763945 19.342514416881663
Sb 18.39964648821158 13.162714600234649 18.5524173708925
Sb 16.989320602222225 14.894706666492779 16.69069686812808
Sb 14.089049773537106 13.13851047460018 19.708782568872273
