46
Energy = -179.27924734 eV
Sb 18.41304085343878 11.379418964137143 14.313283703804988
Sb 19.065516942616647 12.310134381997814 11.627813102346913
Sb 16.091067374134088 16.469514274281654 12.763694559000315
Sb 17.55513520135503 17.975685006575205 10.81056154820156
Sb 17.65688080937708 15.76337306853667 9.005724513337874
Sb 15.304179346299826 9.293983818785543 16.722249463817327
Sb 16.111832532611743 13.085511971509547 14.327275431547417
Sb 16.20874552526917 7.317781767142439 12.915084606332593
Sb 18.20687290969783 10.057266403020428 10.046231735047066
Sb 16.584457494469415 11.792272640586049 8.377033450080633
Sb 15.676340429969848 18.91807669743932 14.313970334170072
Sb 15.286368726983476 17.78706468230468 16.939963963219924
Sb 15.29395504610617 12.437984298691612 16.943945354515705
Sb 16.62204114017922 13.640006443333712 10.67053418936572
Sb 10.615221160483308 8.343630549520677 16.159347238278365
Sb 14.479527752013432 17.87191040179224 10.837441119724625
Sb 14.775109359351498 16.168755203673665 8.536349021376092
Sb 15.76615606052369 10.12026849951102 13.94746951228215
Sb 13.088478396877385 13.996604403629233 9.619219830367395
Sb 14.386675805693223 7.677111071349217 10.700935481794854
Sb 14.641771244747858 6.685214698087077 15.172213213567463
Sb 13.845872917159902 15.805393206106324 15.43982581179839
Sb 12.585018647671834 10.06276833955704 17.442167644999483
Sb 11.254258670924852 15.725890101127854 8.219551096863123
Sb 11.772874394074087 16.149518562981225 10.975777602716883
Sb 12.209831121564337 14.50877141880143 17.474537052551742
Sb 13.012205322304775 18.57223836841122 15.38446337023206
Sb 15.41054346189278 10.407480285075563 10.63579782348175
Sb 12.690593463440463 12.321610741950996 15.636161272786914
Sb 12.009898204695403 6.90895206862797 14.031495540578822
Sb 12.583378338883035 9.193473395737504 12.395904656245353
Sb 8.40448816003113 16.296110521597466 14.736997238956043
Sb 10.128779241884525 14.162806919194495 13.79440411284146
Sb 10.370006912157788 11.30128915265035 9.504194841700059
Sb 10.3715218558096 8.627046308569826 10.596815841775246
Sb 9.953567908529655 10.417460984486457 14.272487339630903
Sb 9.819976522569902 16.1392683698297 17.23987034727627
Sb 9.11373320190538 13.309779722181519 11.223005376301987
Sb 7.813967397167493 10.614925122260505 8.446642818698887
Sb 7.9706664548583355 12.484872514163374 14.74459271507424
Sb 8.487256439618614 15.212431350982028 9.2466937131302
Sb 8.322811285545093 8.649205091642957 12.606447727596692
Sb 7.529027980048903 14.4729175565192 16.837943352510337
Sb 6.451242234253025 13.197798780293779 8.586155384386425
Sb 6.384377920116361 10.021208735342833 10.915696110470435
Sb 6.292976341144541 12.84711092189559 11.477940331954454
