46
Energy = -177.94102205 eV
Sb 13.321893116353127 11.346570242098204 13.639720686887799
Sb 15.177673630238429 13.94139925299204 13.959283427781546
Sb 17.189766418314104 7.224431766142102 9.757701899016402
Sb 12.767050480540744 6.801558429445146 12.145517651187276
Sb 15.953200111658324 9.882910631494312 13.34926517768871
Sb 14.983717287578713 9.041813382883037 10.058319943713762
Sb 16.913231055122633 12.231697789039208 12.139328729103232
Sb 14.658115896783261 6.628172699546481 8.522353310730145
Sb 16.274190328626027 8.75433782512321 7.498097161044772
Sb 15.784479974061247 15.422797039710854 9.647070041270831
Sb 13.473562915679308 16.169412363317825 11.390807449458563
Sb 14.904631652165754 12.750452944927588 10.126790420029467
Sb 15.179388334862288 12.581188029765432 7.253936347334349
Sb 11.484808711788364 17.786747663181 10.188109602138361
Sb 11.328207185685752 14.92753240364326 8.475314344567844
Sb 10.57672112678316 12.219117457303623 7.1960150999997206
Sb 8.197707260774912 7.259012808534855 7.483507015822995
Sb 11.520431713680892 10.488597999875882 9.267494292749806
Sb 10.963348429775587 7.859563711166289 8.03219029252582
Sb 13.006225755095057 10.748059246696664 6.776275330232428
Sb 11.129983031489749 5.741251486441615 9.992100471148467
Sb 14.041194124765807 15.242414754164223 7.365518596095888
Sb 11.029529788230423 5.11956559775851 13.783364471418858
Sb 7.927247041757509 9.964481282098449 10.288131641750047
Sb 10.546096671932307 8.6502196460154 12.686433758983451
Sb 9.027228819094674 6.261276432929972 11.927518914517929
Sb 6.554697855078344 9.604591874925298 7.792910796176259
Sb 5.757776052207188 9.022587519792303 13.808121810829093
Sb 6.487715778553371 7.516805877385599 9.81926627957851
Sb 7.109531716636284 13.456136554825513 7.716704622414982
Sb 10.46576495836556 11.054640692233427 16.721832771928938
Sb 10.253629941109471 16.15928537898184 12.206849011583287
Sb 10.948258988644138 13.009539229943437 14.66599911516283
Sb 15.34516282774763 11.590210873682597 15.65664916620973
Sb 12.825181580413863 14.825973111683298 15.693656313979764
Sb 5.844685273120518 11.10978718949179 15.79675632963995
Sb 12.456805944895912 9.290298538403942 15.780451845229102
Sb 8.342792673759567 10.255261183243327 14.61930223317387
Sb 7.537592383299867 16.051247272359166 8.895179673060872
Sb 8.181227421248547 13.679291486305122 10.365778481191265
Sb 10.23078465032229 7.473899684589443 15.330794866582478
Sb 5.4187305405107 14.350228238719408 9.858023049307876
Sb 5.666471477447258 11.063732297345812 11.769852770126793
Sb 7.077758699623005 12.727103564875023 13.678924566415356
Sb 12.36506711042171 17.065334341284267 13.938221279985065
Sb 11.876300430906706 13.755029036486002 11.040125856651603
