46
Energy = -178.65386035 eV
Sb 17.090975905774044 7.869546311503376 11.869942763070092
Sb 14.968462040719974 9.092387738740651 13.519578499576895
Sb 15.170831338392915 7.967948116225298 9.68263671997552
Sb 13.661608576796182 6.609964673011297 12.722899624314167
Sb 18.439531661247354 10.178651815691016 10.749490147090679
Sb 17.27753321418978 11.713351120726015 12.939294680973603
Sb 11.933238904295886 5.522611075768957 14.782881519995946
Sb 15.396901371695211 8.420373456660338 16.326714541882552
Sb 18.265662265704478 14.410680042849457 13.640327674710234
Sb 14.105944789443816 10.568829526162006 10.516158993874638
Sb 16.36691845462448 10.463588323581103 8.723791364110356
Sb 12.693664773363166 9.030105981987456 17.231958641102228
Sb 11.502789501314426 7.183541124280164 10.911035048277375
Sb 9.809936650114398 5.744446662362384 12.803857303842955
Sb 16.932789892831195 13.569893057295648 16.061542234213288
Sb 12.563929448486737 10.91145091191534 8.081694668547673
Sb 14.556925245474691 12.370980373074527 14.827942909021187
Sb 16.023231619806637 13.396922574422128 10.849287905761521
Sb 9.864986402283778 7.4795448385372305 15.102725577530535
Sb 15.799049111187204 15.654374133545566 12.655380923122713
Sb 14.746386456532496 11.045808685281234 17.388618525316485
Sb 11.650154376223908 9.71397179845829 14.619050309529916
Sb 14.654365305079441 15.11289728358375 8.422362484251778
Sb 13.199399845779322 14.37637815053311 10.811476605805783
Sb 10.924602452907584 11.827367085243946 11.8168534074494
Sb 14.418277664926514 15.07959510139534 15.856445512011685
Sb 9.592270868164208 9.2727240556325 11.430584746200918
Sb 11.734853607471651 15.250728804488489 13.999184669951616
Sb 9.498561512654533 11.33865811408163 15.714591025518578
Sb 12.876081878460562 14.625684357868852 18.26854544191612
Sb 16.253270744537847 18.08969602293146 11.083246137660034
Sb 12.04392767069023 13.788790476720447 8.214929778865962
Sb 9.864597381964922 11.19501850541974 9.232967411144193
Sb 14.50006515602626 17.961603855829537 8.771626401971684
Sb 10.378490575690789 13.262894139976524 17.698463557695895
Sb 12.146944430138246 18.011902256753157 13.595142654076444
Sb 10.329289621368744 16.301368966187958 10.164489520191703
Sb 8.501447177042365 12.521506554812623 13.210214907890489
Sb 10.769341569235587 15.923443513763907 16.71748278297976
Sb 8.477901005794706 15.30282172790975 14.135564676160396
Sb 13.5390654150482 19.048265427973313 11.25191692345533
Sb 8.06317065744171 14.560683482085798 9.795801648866671
Sb 7.927276840984786 17.270106622337867 8.739670617979918
Sb 9.346772463754064 17.586468935200358 12.549219197423227
Sb 6.3763656372888455 15.476035362379209 11.989919566590997
Sb 6.681665531247896 18.193665285184363 11.176292876576367
