45
Energy = -175.45860548 eV
Sb 12.132633821571416 16.655469933573624 9.9435865480643
Sb 15.694258997485033 13.733626132766735 9.352238854615111
Sb 18.108488421169266 14.871050304178427 8.460716305295223
Sb 12.094386052100745 13.808854574050324 10.350900455613617
Sb 18.076723195725705 12.095536837312995 9.191120433511275
Sb 14.841673688818872 17.404317255982516 10.76443833526335
Sb 10.675172589035638 17.715480781421352 12.177847548743916
Sb 14.06313004111609 10.883178595509536 12.356538110378786
Sb 9.291777927773628 13.346961161872729 10.773431226403344
Sb 15.516077778932885 14.938771093515788 12.15456199103898
Sb 19.723332733382765 12.800375624639553 11.467653038530338
Sb 8.501173622382474 15.808208920764754 12.129883382768138
Sb 16.551370671199738 19.305917200708148 13.996282297395602
Sb 13.827740020405242 19.137559056536723 12.937224791643528
Sb 18.337990066925272 15.339999135378164 11.517002872855079
Sb 10.086784833305243 11.524989899589848 12.964277706491604
Sb 18.614027887384484 13.976948438065543 15.702074698513496
Sb 15.060262478963534 9.246682144355713 14.514708238980663
Sb 12.428356714005286 13.237176946702164 13.238641515410528
Sb 18.76448528503314 10.689512879794687 13.20284902914542
Sb 19.306569859819028 16.322201252930586 14.169655762796754
Sb 13.428019332494134 20.21301965706356 16.090418575197223
Sb 16.32307214894059 20.648478580627486 16.600672228351463
Sb 16.251173477713184 11.839000214670238 13.975699947422669
Sb 12.556709607620252 16.822637967053797 14.231002159245332
Sb 20.15252110604086 11.577325402316761 15.641641023929424
Sb 16.402651060550326 18.827067302533642 18.836059464996794
Sb 13.706190005696532 14.438746386142016 17.32063619314652
Sb 8.359614935737891 12.572714949484556 15.087477091996458
Sb 9.638314623379125 15.044620089750046 14.595338854502849
Sb 12.393917008726804 12.037444237663228 16.17372645969817
Sb 16.52761404262694 16.550240812378277 14.759588866228002
Sb 14.000510722731265 9.845444274978846 17.152760661827354
Sb 10.621895144235205 17.55010220961958 16.400166226772953
Sb 18.504150498742163 10.862232769982167 17.978185665054077
Sb 11.856944599830257 19.511469983530493 18.39031097605242
Sb 19.901905653688633 15.308190636431227 17.886327619807414
Sb 15.913382408266004 12.010551366467743 17.297250583209095
Sb 13.974902481268838 17.792252137917725 17.55781897080714
Sb 9.93065637773964 12.588045034430168 17.56251300360634
Sb 11.063323485995255 15.26484151448022 18.219353351282187
Sb 14.6093201407748 12.985299730936084 19.711529380777833
Sb 19.222455585644887 13.12413714080738 19.702651068685675
Sb 17.097362928484518 16.117876128442347 17.965384066307706
Sb 16.857324977508167 14.615792343614944 20.488203458608453
