43
Energy = -166.29156454 eV
Sb 17.764776563463343 16.121708848050034 10.645463675117782
Sb 19.36262575718502 14.086187556575664 11.912071837111675
Sb 17.94255251779914 17.920160311437233 12.888931662573448
Sb 10.922633708225181 15.597276386955503 11.05465871016145
Sb 13.28813218012078 15.296395021585349 12.629707918605526
Sb 16.41774178317251 10.77433185452598 13.081827046674164
Sb 11.865097918198305 19.921039532766642 12.17146953450907
Sb 9.594254431002533 18.175888187457083 12.255268193475747
Sb 21.727194052928205 15.539192154669696 12.562976411908773
Sb 13.987643631941687 18.05964868537565 12.276502922523122
Sb 17.098170982696626 15.194231055222726 13.301331348976374
Sb 11.066062410948497 11.962272613406535 13.290765343444994
Sb 13.962514611561478 12.041867840808456 14.11692470516289
Sb 20.733642645484608 18.012894179269765 13.55486623043874
Sb 8.19239458430631 20.376047804646216 14.049283651236703
Sb 17.151658429811036 9.395189146436637 15.509993638682555
Sb 17.82001463886715 12.217479256663646 15.200316678055577
Sb 10.680747633217647 14.801517945087836 13.808147675364076
Sb 22.60676153752946 13.868783276157714 14.761749879537437
Sb 10.884399170117895 20.562913036429926 14.898565776795484
Sb 17.10992602596868 20.19348159426856 16.37018171073754
Sb 15.114010347758413 12.372802378377276 17.139356043329123
Sb 14.233655159268126 20.608486243754037 16.9820178252484
Sb 15.079410399878169 18.53821956469619 15.116601113386505
Sb 13.043825140897257 9.541698535241078 15.190026400020162
Sb 20.726849359960468 11.757476269598678 15.46717014902602
Sb 9.472578741615719 18.056200820552487 15.14289449735391
Sb 21.25673179534114 17.877725475953003 16.38419722273731
Sb 22.164742017600293 15.277535819912869 17.229521158143335
Sb 12.477185038685315 13.55287941482047 16.853838397068166
Sb 14.708500253351385 15.999482773071753 16.502057351427982
Sb 10.838880541000956 11.219560312359144 16.074028393575233
Sb 14.90313500780046 9.527331062218805 17.384411409922848
Sb 19.17682545207197 19.045791282041556 18.065555175369735
Sb 16.602974009560093 13.156094981239983 19.50793953360797
Sb 17.9652569024818 14.807306324466154 17.53099090862042
Sb 20.32886097053031 13.144989700649761 18.008527903579946
Sb 12.164588402869793 16.99878733097534 17.62856283852895
Sb 13.27438467407613 19.12854093068088 19.232270728621074
Sb 18.47312923129106 16.736494033033605 19.591082374889208
Sb 14.688783995925684 15.04106304115723 20.631513150722522
Sb 12.034114848789665 14.75323983617863 19.481504019061074
Sb 15.590681155157663 17.23783624168122 19.012977515124284
