43
Energy = -166.66474392 eV
Sb 17.754379603493394 15.273646836013926 9.022922678444983
Sb 15.297782353796666 15.6293733379594 10.433994644064187
Sb 15.577833194475582 18.452196769878288 9.928250522212585
Sb 13.573541016301117 13.534144701849238 9.404453621357769
Sb 18.116017937994986 17.49193654362063 10.97844501294492
Sb 18.10719874558219 13.406349733698468 11.198141844848909
Sb 15.812961291887138 11.868418190163347 10.305917587831027
Sb 13.478287591780914 19.17062409005247 11.798262938902191
Sb 17.255245746072713 15.51108720508976 13.084083571483374
Sb 11.790934925839075 14.028774510518907 11.668548613861667
Sb 17.837584260639773 19.073310314776332 13.894751042490288
Sb 20.074567265748325 15.4462816942758 13.961233774165434
Sb 11.723882332289843 16.898926596650483 12.502036976256548
Sb 15.079151704510014 11.03535691586678 12.986524576728701
Sb 20.554982619615373 18.233905989502233 14.63819500211956
Sb 13.918995665749565 12.16299238012229 16.018153170685007
Sb 14.19787812936346 19.96013434728319 14.516608844090934
Sb 15.857413975591518 17.83668265994205 15.649310805961138
Sb 16.629657303082926 21.55745277948128 14.725589505041865
Sb 13.974292516204022 13.645934264316617 13.482561560539292
Sb 16.60441573710139 12.685247494962553 14.97637140662213
Sb 20.073529380014058 14.55285854982814 16.73402149799222
Sb 10.220170107102685 15.896688651911884 16.44986617175427
Sb 12.76051629739926 16.305871313635713 15.135197279571592
Sb 16.63887720065132 20.060337126745765 17.302982979132576
Sb 14.183564167044947 14.480573479212229 17.726707083289384
Sb 21.18939194168889 17.583335129534028 17.351766171967906
Sb 18.794575236479172 11.789498105049836 16.639619577454432
Sb 17.579866191229186 15.621274868787276 17.702913758203266
Sb 11.263226063869507 18.58062520748632 16.122622557927624
Sb 11.491871679903403 14.725625136376982 18.78350647117255
Sb 14.614187597251643 20.066715370230643 19.48773021368309
Sb 18.751430819783216 18.113983467211128 18.695245051238015
Sb 15.133858215387518 17.2329823743023 19.46015922551223
Sb 11.856027792127108 19.362451895953736 18.832400503460974
Sb 12.402210405231516 16.979136626564433 20.378595236017603
Sb 14.7602263428819 12.33825187807283 19.607929373134134
Sb 17.432774331791645 11.313863198519307 19.150043230557948
Sb 18.848706249002102 15.512450332218075 20.349540957782462
Sb 16.528325222597758 16.209863425061197 21.923530319932585
Sb 14.93046221817258 13.821383413733109 22.05107980091918
Sb 19.13429166403552 12.617942112817321 21.03363344588092
Sb 17.47080596163876 13.207409983126903 23.182450395166565
