43
Energy = -167.11007402 eV
Sb 18.351350580072143 12.916131404978678 9.019334726737982
Sb 20.039888512812123 14.336179052106106 10.924565153686212
Sb 19.944402699278115 12.30232142304306 12.95112748236534
Sb 15.454190098110104 12.804853396949207 9.091283258044413
Sb 15.605108894450659 16.334424722956772 11.534136540544155
Sb 17.051687026612292 10.818313711042236 10.488257788795147
Sb 14.02352208652129 18.788242413190492 11.323839656167495
Sb 18.358095539524243 15.655616125810411 12.907395442479208
Sb 14.313194322071016 13.79352094163838 11.551119743382902
Sb 20.157520539883603 14.36789821651798 14.930643588284202
Sb 12.310414362305055 15.845280172125747 14.299780920530646
Sb 16.518393532419584 20.17300781215771 11.853885242617352
Sb 18.865848660288194 18.56779834698591 12.642003121595977
Sb 16.95557570158027 12.638565100504458 12.74157854536902
Sb 13.165070270868283 18.597408168875827 14.09609810572436
Sb 11.877333200319162 15.6463433773261 17.17830545879986
Sb 16.232224481914965 20.34420629478267 14.750846138491562
Sb 17.733707287049313 13.781445348384143 16.451661095007225
Sb 15.125673012658464 16.42008844245494 14.427515554249593
Sb 19.779662767392402 20.87261105583131 16.842763274371695
Sb 16.6852761852078 11.323797816419525 15.280595028768223
Sb 13.808786083367595 21.484754873505516 15.952209913765573
Sb 13.994116713131994 12.285227916907736 15.612426176255234
Sb 17.704147077298416 22.60271469987805 15.768903432244047
Sb 15.502268092947872 23.076691126982446 17.58904010427291
Sb 12.348220978249591 18.335907105806292 18.205153699974176
Sb 15.014812617845143 18.78086988859353 17.124015135295064
Sb 14.510941416055916 14.428078603287027 17.54897157742887
Sb 19.360492357361572 18.34670471397119 15.495402265555018
Sb 18.76895260539651 19.35327523065294 19.148137157394082
Sb 18.697857068383566 12.263476021919118 18.73202843081622
Sb 16.094202107544895 20.58175598156427 19.115388113836865
Sb 17.69806711884432 17.1861523682882 17.637430472730827
Sb 16.823035339969362 13.631518745685245 20.449670941732375
Sb 13.740158531489119 11.811161726995673 18.46163940053287
Sb 12.617675599287585 18.04226544230439 21.08636286473632
Sb 14.164971599495006 15.575862117314196 20.785242993139565
Sb 16.246973818074093 10.949770123025552 19.624297621774772
Sb 15.061294832482082 19.463464107937064 21.619485637187623
Sb 16.63473884382805 17.12237469318908 20.79162970118235
Sb 17.232345089847144 13.532983427992958 23.299366990452732
Sb 14.740251986640109 14.968688855744459 23.636529952954234
Sb 17.238542111938 16.39924063519004 23.58092330154288
