44
Energy = -171.37103372 eV
Sb 12.826057224475381 14.32488544180388 8.92859115522477
Sb 10.992041059992365 17.75222471897393 11.6259098415212
Sb 17.61029103027858 7.5719830757378 11.354440403318513
Sb 11.09782314895311 14.863656500955555 11.220653003762322
Sb 12.424598639254182 15.797978034746574 15.836627150722679
Sb 11.94022588626977 10.402357170596183 13.081117871303112
Sb 15.823226128675616 12.722800222776295 14.690510310455872
Sb 10.795976004729644 11.006616318133558 10.497066266155823
Sb 17.929529588043668 10.233005110271751 12.065490040237977
Sb 12.566651648595839 13.294988453697332 14.293430178259502
Sb 7.244899548017506 9.470128533223564 13.562863220329021
Sb 14.25319701965366 16.816259999264524 8.713765934151443
Sb 9.4742184252694 16.558640752033295 9.519829574674928
Sb 13.473893643982176 14.233800093939665 18.03091356553909
Sb 19.216991521718608 16.475705470792256 11.389395166089262
Sb 15.158420773898627 16.58245343865783 14.897482798258793
Sb 16.110807280652693 14.578197580872413 16.802565959554833
Sb 17.393257693838297 14.196722106385751 11.322282996566383
Sb 6.9981090535039865 15.064511504035535 11.80587125654481
Sb 5.895219306208876 15.397041258957026 14.447914614898963
Sb 14.872671841099251 8.451274800905681 14.538042623518157
Sb 8.663808430059847 15.973239227619075 13.8941215473643
Sb 14.491767115837913 8.291490576558447 10.116925912996951
Sb 14.801045330473078 10.248288220521811 12.221154704421593
Sb 15.293400469763974 10.521051117095624 16.49386276954401
Sb 17.780387985898336 8.201860468058404 14.101731698147296
Sb 18.45277185285469 13.860799177924335 13.955809953996038
Sb 11.767059687377934 18.266782021475592 8.868447572599056
Sb 9.601473962116886 13.214805239075883 14.632823213711244
Sb 12.998169442771216 10.397852879763274 8.66929212486711
Sb 7.954957094081219 12.210824753823077 12.454982767402129
Sb 8.835814074076602 7.3826473364175325 12.368019534929367
Sb 17.36772364983315 18.493634574825116 12.119347672928562
Sb 5.992173173657959 12.510381899693606 14.73563870366058
Sb 11.50742194481378 7.585572211366896 13.542582629290795
Sb 9.283206097032584 10.083364171088384 15.393180741439398
Sb 9.880243648777958 8.354819694153175 9.849674678353868
Sb 14.81408339734185 15.10429448114152 12.397438025004902
Sb 18.564318389838643 16.836144092468484 14.204826342599365
Sb 14.749263136339438 12.359043055147655 9.726717930925608
Sb 14.632159444718313 17.790023883387253 11.448472709920074
Sb 12.106098794753994 6.773584888259892 10.847227478923754
Sb 12.659137018383396 11.720689969320215 16.762769317614747
Sb 7.9434679366774725 12.261634018646069 16.80824658286248
