46
Energy = -178.44170952 eV
Sb 15.70362546099195 8.172233529023181 7.81286550106483
Sb 13.702557405683335 11.754512584473062 6.31786472852413
Sb 15.463586875100058 10.900500459523373 8.7905613709013
Sb 16.38201272444445 9.493254957446846 11.378858284387308
Sb 13.436996202406126 7.271433059695674 6.32353768130361
Sb 15.219418300485707 7.035493950544485 10.394610988486338
Sb 13.486946807632908 7.53301639931267 14.12053540032266
Sb 16.36067954885655 10.396434390962561 15.423609500309901
Sb 15.484552969917294 13.467841582978881 12.630068887072094
Sb 14.467958549105363 6.727528743602962 16.73614614557729
Sb 16.78813063164552 14.776853894376789 10.392618144971715
Sb 13.17782934571956 11.723992265441884 10.297217717159429
Sb 14.173313636502005 14.91638237122341 9.135178314726275
Sb 11.9433711577657 9.68731775019456 5.84492341941139
Sb 11.260501535901732 7.2524348539235 8.20504875600716
Sb 14.387404505511812 10.196639589210944 13.33785393093604
Sb 13.505236605355869 13.647540810887685 17.69421895413392
Sb 12.34736015443778 7.161178275274801 10.800878641899645
Sb 16.216822043080715 15.117902437716008 14.887328232488539
Sb 12.96769827185133 14.700298796089294 11.788543653104586
Sb 16.441044903365146 17.499786031241104 11.344794771878897
Sb 12.21915095791334 8.500727313148072 16.513200969399914
Sb 16.1997270401135 12.919016988134915 16.797407759409285
Sb 14.733280767059894 9.472459639542235 17.581634317878443
Sb 13.317439484122733 15.083757214961338 15.250494488476999
Sb 14.220698255544441 17.852574107056142 9.527164645121601
Sb 8.541451771051134 8.268818489807533 12.49523479757551
Sb 11.579335040657925 12.628829731306267 8.07784509453563
Sb 11.005175314820795 9.874178970404396 11.090256603435618
Sb 10.953250339522588 12.440117314711186 17.056602180716958
Sb 13.748252644429087 17.491999166035882 12.342573671771333
Sb 11.013677522990463 11.760151610034324 14.2163508376857
Sb 9.984458988616721 10.019927434737559 8.346467971421262
Sb 9.196048577925433 9.607751329917988 14.97006047668188
Sb 8.982755645782804 16.187292363572826 10.909196926737362
Sb 9.73558315568243 15.63300464871095 13.927034437142254
Sb 6.596887035084924 10.140971556711975 13.623486251233084
Sb 11.940527625196191 17.10402959074597 16.771397091936866
Sb 9.840701523430699 15.180316818971262 16.927543010474444
Sb 10.3422400862299 18.57382435490497 11.266207425337535
Sb 7.260752270759006 10.219320522325882 10.687339312974716
Sb 9.078869906065835 12.38644270812472 10.907440644553219
Sb 8.330790170796792 12.676337884626038 13.624587841569904
Sb 10.644261971653403 18.39015573109749 14.40522516632476
Sb 7.541065632977913 18.43313973575803 11.958335952514194
Sb 7.899489028625608 17.641751988353917 14.80194128637395
