48
Energy = -187.09892966 eV
Sb 15.027879932343373 17.44775058287341 9.182455197568897
Sb 15.275486778137761 14.522895183987858 9.430763456185835
Sb 11.854043771612684 13.70305712147567 8.351789192105972
Sb 11.114695571032488 11.590335525552058 9.917942520608529
Sb 18.15609980156146 14.513080029306005 9.83527283186999
Sb 10.610096796513838 16.01338396909915 9.388048947995964
Sb 12.807787556738507 16.978608260874193 10.951181580104423
Sb 13.636979011971441 11.20320767771188 11.860716187554907
Sb 16.716897680781745 18.225693398401933 11.310025833733679
Sb 19.014124872205 17.31139707577711 9.842739194275369
Sb 9.079200221884673 15.326870608733651 11.706679895148211
Sb 16.46629042654859 11.824260950584948 11.577827788499219
Sb 9.693382793078143 12.563928165685235 12.213633136230504
Sb 12.040064281599943 12.439277162477369 13.98463762124135
Sb 16.391947462801745 14.779409943642607 12.095492137010037
Sb 11.539413332179436 19.035974472117204 12.545941584637832
Sb 13.216097727502719 15.659236776678915 13.615027924942032
Sb 20.5433445870089 19.202817174181806 13.788030750431753
Sb 14.148953769408344 18.434381234254175 13.807496950589991
Sb 13.895995706321559 8.8803653371183 13.61113847858147
Sb 22.177363103450194 16.85853326788592 13.854757012799803
Sb 11.208722613715459 9.673222816924936 14.337822295990303
Sb 19.438609284690642 16.76474293076762 12.677078501598851
Sb 17.596477249021447 10.724788263063973 14.059718244947426
Sb 18.196821186118008 13.414558079832657 14.928031587245226
Sb 15.02541051969146 10.911224926626838 15.302329175287598
Sb 20.28195833652187 15.905171466955633 15.80378472696269
Sb 10.504689364922827 16.67510888683957 13.871130500374473
Sb 19.039655927436794 19.354373898710918 16.31893046645381
Sb 17.030203264730098 17.34019502678365 15.794234191457011
Sb 14.99579039308608 19.354111447377 16.45834137837134
Sb 12.238022172873839 15.570255537257394 16.845025761048383
Sb 20.570882129044605 13.131619843502692 16.56942936435415
Sb 9.903032487510316 14.802382302728873 18.452477247004747
Sb 11.139039624391158 9.729643660501 17.253131197777492
Sb 20.328141647352034 17.505408864920202 18.166597186748177
Sb 11.364772541373013 18.339805979892205 17.145624977072607
Sb 15.73960214346726 9.448900178940788 17.68613373779496
Sb 12.281258666953997 12.18214931191719 18.258626147827123
Sb 18.004343580121418 13.457544834249052 17.82784514346656
Sb 13.618685952051132 18.711790141826345 18.893467965062484
Sb 13.83210964925632 15.849068851727875 19.25751966064071
Sb 13.231947713686461 8.193457194449936 18.444363984353178
Sb 17.65264261217952 16.32692820293693 18.447176740071434
Sb 9.581536180208563 17.567240801887632 19.296788836184678
Sb 11.313541003268298 15.787197153325657 20.751887005024336
Sb 14.990363481707774 11.786007876986181 19.172700360139014
Sb 12.806813721468147 10.29985623217927 20.429424026157154
