49
Energy = -189.79949971 eV
Sb 14.906783386963786 14.61279717262695 9.254148490253604
Sb 12.365121829946148 13.165630680216285 9.48152931298427
Sb 16.54990376180205 12.923941908192555 10.949346334383055
Sb 19.181273801722988 13.258858215111518 9.813908673616764
Sb 15.057181640145158 18.25925427604056 10.253791603969924
Sb 15.387832485090508 10.29831171436267 10.550600327158412
Sb 13.593175381269079 20.506874631457883 11.306990069774256
Sb 18.27635568869522 16.023298601123106 9.825421807501716
Sb 11.418919025478957 15.392032053837749 11.116908490525585
Sb 13.42007189807688 12.016239305829357 11.864538771796221
Sb 14.243826766801693 15.909275426051682 11.768605653910493
Sb 12.236978632553786 18.790486682095008 13.151406597846368
Sb 10.968821906610355 10.930783169089665 12.918106038333745
Sb 17.60022439174578 15.647307223590186 12.848843780906588
Sb 9.935265646390508 13.640341379054682 12.948602314669275
Sb 16.142282105232795 19.605123995043066 12.562919766043665
Sb 19.901481800896576 13.806215291734272 12.562104762330783
Sb 14.648794274811213 18.019123108493897 14.582626772795136
Sb 16.608826456699283 10.176825801709441 13.223945600751113
Sb 20.469255860379015 17.232872600176684 11.121535545770378
Sb 18.94542421648724 18.176637673020867 13.249062783941282
Sb 14.863515587770404 11.785900521528506 14.984352609694092
Sb 11.004657610335885 20.841496888287118 14.727098289059812
Sb 19.139677925916278 11.393545847683704 13.978977478770704
Sb 18.996832020211652 13.689371597018546 16.158079022744268
Sb 16.689777449395347 7.827841041362542 14.77425058413602
Sb 12.732476985799071 21.48815991527177 16.970849600350125
Sb 15.257407296038616 20.34786770730359 16.196618757058662
Sb 9.611467540246023 18.810158311567406 16.267561932794383
Sb 9.842991551824984 14.422696333992866 15.711412954039941
Sb 18.25205874930319 11.230849059866912 17.630675396351435
Sb 12.352772068768585 10.366917387061848 15.395163411109316
Sb 16.46131671096712 15.10641433018234 15.666313358514152
Sb 18.019288908844043 17.34620609597719 16.755368699151962
Sb 15.824297905231944 9.591004822701677 16.74411690941609
Sb 11.678478465190356 16.709193262692462 15.99661122068592
Sb 15.524019768275654 12.882575318434704 17.88303669835752
Sb 19.362790303257906 15.592951982023447 18.608415740101442
Sb 10.91685088889764 19.917386085213383 18.59807303134402
Sb 17.13979172016563 14.355988798918078 19.830840604854036
Sb 16.312958448377536 18.979487338456973 18.51785124993647
Sb 10.905753962512954 12.156506726482865 17.166837607230388
Sb 15.033199097263818 11.187749167477866 20.202705545327987
Sb 17.83521638400638 11.688553891680847 20.615948347583117
Sb 12.769934642291183 13.98725101463499 18.40715332416492
Sb 14.558154763242632 16.691620362260803 18.54068223370484
Sb 15.034967243336943 15.736000980846764 21.27756092696815
Sb 11.702947872269979 17.10355020383924 18.867887524864514
Sb 13.335627991991773 13.387554917906135 21.187644261955672
