40
Energy = -156.29199744 eV
Sb 13.067072973820174 13.649604623206878 9.51537488530009
Sb 11.649186838361056 11.457218049827333 10.708509734313017
Sb 15.242162330328519 11.994676511088096 10.51397708189476
Sb 13.226813556130823 15.099925046727591 12.02221094449428
Sb 17.183795396067577 14.059034235911612 10.83075719794056
Sb 18.348097185100496 19.422350559020394 12.26451125499163
Sb 16.07934514770384 17.786799185203364 11.592113556086481
Sb 19.024275256665234 12.45738338339053 12.358764593432905
Sb 13.404549112147187 12.220636983539796 12.893748854382713
Sb 19.350477463765532 15.065420111596719 13.71011403198194
Sb 9.465506260881098 12.849261072493993 12.035015568710831
Sb 18.85400725430003 18.500513700021273 14.956127083620162
Sb 10.49573473393613 15.499387362873044 12.603444988666936
Sb 10.73725969935586 11.96841551618163 14.475260035564146
Sb 17.118850831779113 21.973348574774768 12.622437355409351
Sb 16.456049136132926 15.425184328636846 13.2801375731026
Sb 14.402403506214315 21.542894463058143 13.580897282439524
Sb 16.019617553553456 18.681193384917773 15.565340678438115
Sb 14.900502391030534 9.985843210422933 14.17891712237622
Sb 17.68773969770475 10.811287539752533 14.380346119411607
Sb 12.95912535508074 14.322872759047954 16.766168107575304
Sb 14.073499728820936 18.683080697531775 13.461099670674715
Sb 17.810972909161077 22.6233929578377 15.38503486060358
Sb 10.352903143532444 14.591193121206146 15.43342355948855
Sb 19.593092319316177 20.73136137753722 16.41290260311044
Sb 15.388945965132695 21.377428339363618 16.348911994920933
Sb 12.154782080384091 11.60456024141041 17.480136377933945
Sb 19.49362240001655 14.053906185110886 16.452823410301697
Sb 14.444462063430949 9.835575423466844 17.035175787430397
Sb 16.887244041804543 12.953235948040646 16.06976711994813
Sb 15.756938986052507 16.42126093739854 17.410032319327517
Sb 18.611730032621715 16.49354583345072 17.788380117842294
Sb 12.773946662172627 12.316927683965261 20.253116130942733
Sb 15.728889088138414 17.999695548806027 19.82651426319011
Sb 11.99543449165882 14.997203798957216 19.503467718951804
Sb 16.769118497978702 11.085821457325025 18.250795273677422
Sb 13.949780340195046 16.22134999899986 21.332573427446086
Sb 15.218755832117465 13.341555503762796 19.1708943771691
Sb 17.993003482186378 16.384156401585287 20.689129091226327
Sb 16.154927498659674 14.336119185991553 21.666269089121062
