47
Energy = -181.64185582 eV
Sb 13.75361734235467 14.911645311376317 8.974007038825155
Sb 17.394823982413733 15.95292023224405 9.29079476235032
Sb 17.392076626088222 18.44041431673062 10.76455637497874
Sb 11.561440585252441 13.34915425707048 9.892118429286187
Sb 16.539168961244364 12.34162596225761 9.62250214627721
Sb 15.341731211301495 10.4370773749067 11.443811014352987
Sb 12.63914344396484 17.498756580154264 9.654588361975126
Sb 12.654067239874292 10.72433197794391 10.379290349292997
Sb 15.648994921491722 14.65635299610539 11.151505176302415
Sb 14.632134622269403 19.377383329733636 10.640732858299712
Sb 19.324607445067965 12.20492673003218 10.520725751585822
Sb 19.607231136697404 15.034058995333927 10.937079633462728
Sb 11.106732766493055 17.367299176040138 12.079883426851625
Sb 10.054605069742566 14.699150041471366 12.121576968222891
Sb 11.928349459353955 11.37429126457509 13.14716802443086
Sb 14.826099054459517 19.310394178360966 13.56005502638338
Sb 16.874022637429306 17.214587208737434 13.31457725556069
Sb 14.74939807457189 12.142746153192435 13.729322257880584
Sb 11.300766557001852 8.813692325084524 14.38499645484839
Sb 18.165709230459182 13.395873898985023 12.866519227838277
Sb 19.687994075820555 17.474897557338302 14.063098897375447
Sb 13.113054336121845 17.062099034799665 14.133815868550192
Sb 11.256493805722952 12.711641265223404 15.892860491121828
Sb 9.674906503709993 10.274139936421193 16.410666337060338
Sb 9.230107716896935 14.53594596698916 14.924554100190296
Sb 13.023899918188429 10.076147286785806 16.289577611684336
Sb 16.027051674905096 18.154215053037003 17.00587340482245
Sb 18.966940267352655 14.879229123531834 15.253941499684418
Sb 17.786995252833997 20.4077865728948 17.28648047294991
Sb 15.866890156281528 10.51050749174571 15.902546538100301
Sb 20.24122309791273 18.97945052581174 16.543012252610588
Sb 11.337018085917595 18.70361665043604 15.716546155290574
Sb 13.258554632521134 15.611366454818114 17.406165423276832
Sb 10.416808960428751 16.287301868213884 17.04431952672284
Sb 11.424970964104576 9.576379570627227 18.63819658963583
Sb 16.45276309193142 14.415751126430465 17.74434605505188
Sb 16.72787797424319 19.050018826040564 19.654769622997158
Sb 15.260800316088973 11.863797325898501 18.446740791246476
Sb 12.318623586406211 12.446689277775537 18.752473701840042
Sb 19.023824419081663 16.73927799551358 17.79809300797981
Sb 20.839138844555976 14.52448849803596 17.472687045409415
Sb 13.051690779736326 18.437502316848587 18.067470716754002
Sb 12.894490649436792 15.17649013909917 20.263989723318986
Sb 11.061318339643334 17.25367500528878 20.038206556796897
Sb 18.77496062250389 12.941381977610494 18.781449446674984
Sb 17.19967901116281 14.657397249695038 20.54773663289468
Sb 18.731212462569662 17.146133506363494 20.58858090456332
