46
Energy = -179.78594923 eV
Sb 14.683870326560141 11.487060305509466 19.245228596467108
Sb 11.378658876466774 10.677574902069626 17.499841701223403
Sb 12.27193283975016 6.764973720301621 14.045940667948317
Sb 17.27784742423849 12.517415099767009 18.422013227323664
Sb 13.321806254171085 14.009930556353673 18.736546071295674
Sb 9.823262711946331 9.363645338386286 15.393978886013988
Sb 15.607509469654898 11.089419594116636 16.53041232745818
Sb 11.164420372168617 4.967968786666914 12.109050861968475
Sb 10.569657325583739 13.415780797717986 17.994179918978332
Sb 16.535908995079517 15.0577392853773 17.2148638284036
Sb 13.923653142022198 5.589555604886095 12.073317839199484
Sb 12.301464302965769 10.722973069385827 14.794723811069648
Sb 18.6206744080716 10.837505884966452 13.07849416763409
Sb 10.333338343960724 12.343419910439549 11.488831087311423
Sb 11.218051829759254 7.857280319334356 11.51782694772889
Sb 14.093551854362952 15.955881423497246 13.341362778961376
Sb 17.1240029276721 8.533613235829947 12.217784038096928
Sb 13.059675870322195 16.985589608334024 15.896418816878686
Sb 14.301767819614799 13.687293747104778 16.019630295586897
Sb 9.774847344191391 12.041975822027364 14.327905578526407
Sb 14.777555916958706 10.079932694691653 11.432743263247007
Sb 8.773566082860835 16.417305139245236 15.653942386474789
Sb 11.132910840787963 14.750950708236466 15.455048548999367
Sb 18.171496826627575 14.638255486180466 14.86651930061787
Sb 7.261617302200897 15.435528962499172 13.325361488616707
Sb 13.383409042375545 13.659154036469754 10.847612258245817
Sb 16.929415343658793 16.716322288878096 13.259387088710874
Sb 18.788166167076632 10.013898066887998 10.334931782832683
Sb 16.534041615812626 12.814156580100688 13.28519683658368
Sb 13.65545440577557 7.887802978493378 9.946533788609296
Sb 9.63135240074347 10.006482795868065 9.946676190111981
Sb 13.19637061834802 17.989063445992535 11.471410318947111
Sb 10.661307522694552 17.0159978781797 12.42116710773328
Sb 10.707357614741015 18.451482838823154 14.939319017539983
Sb 11.894937447068768 9.85198781897637 8.278373583313819
Sb 8.006102172479864 13.969509649399633 10.945200197459364
Sb 12.8249701940504 12.599070707873537 8.172506217962505
Sb 16.24067077162624 10.265608449443615 8.973372703140168
Sb 17.749365911282325 14.627372194132148 11.391924960244255
Sb 9.486160978353073 15.504226823982773 9.072780087959611
Sb 6.606994918774971 17.844059171332194 11.900514675249958
Sb 15.619349747991391 14.990416743800612 9.48403403020485
Sb 12.408875840693144 16.014855019829334 9.462334414671606
Sb 9.113203952947229 19.259779088267763 11.562386807153416
Sb 15.697487441776618 12.744213354758406 7.6305134374901975
Sb 7.902784207927476 17.875087973278447 9.326371064214758
