43
Energy = -167.31810457 eV
Sb 13.27820404749754 15.385578737765009 9.227757258018979
Sb 13.528819565983504 11.236565959641943 10.65316387766699
Sb 11.519553359873298 13.191649109422043 9.886327886713422
Sb 15.313162478591623 13.290986824085932 9.535612794737855
Sb 20.81976395197586 21.112687719814367 11.565382075488309
Sb 10.152818699958889 13.840594468178436 12.289202123660143
Sb 18.77172408815339 14.994179225547114 11.183797602133149
Sb 20.22094888602823 18.25589969240383 11.736756384176713
Sb 14.611828347111086 16.89941907858104 11.32244975738857
Sb 18.23399823860024 20.13913128034068 12.477268998338337
Sb 19.859525551355922 13.795652728429186 13.454706218690509
Sb 10.780415506448819 11.28311108497648 13.432204319726356
Sb 13.694039761451064 11.186390657290087 13.4982745115999
Sb 21.48861717886267 22.07844401245722 14.195456899099117
Sb 16.110825508399426 14.53377114765895 11.981858514133526
Sb 17.9499154588663 12.006912268800855 14.558014062717058
Sb 11.976304301043882 14.818720225187578 14.336151243854948
Sb 18.890762789999084 21.058671632484984 15.145060629391942
Sb 21.66388234476133 17.563038565056505 14.097913996419
Sb 13.031497808896908 17.457018224539283 13.685570267635647
Sb 15.305073439976512 13.458723581066096 14.683909627121047
Sb 21.30078488404004 19.74810622990599 15.867013823078711
Sb 9.290531548881619 14.992687078615178 15.487493100496701
Sb 17.28627290884446 18.120193340413874 15.655184918785904
Sb 19.45250187448124 16.09544735099887 15.214772580793104
Sb 14.900684431902585 16.45215490735741 15.68141663907601
Sb 9.302938547407296 12.128225832854243 15.82809566054536
Sb 12.408963880565212 15.89706985969916 18.13034079297011
Sb 16.737342046440737 14.335238237685122 17.92310041556897
Sb 13.25622482410752 13.190212750547579 17.36071819973181
Sb 18.84136398922629 12.450512112548898 17.281876083529664
Sb 17.84591248076272 18.32571152513699 18.507765594853076
Sb 9.530347508279961 15.6704867651202 18.276431177005904
Sb 20.61413747857971 14.78624654242317 17.476641857794068
Sb 15.208392930673801 17.192451299519206 19.218070018181443
Sb 15.100470308711065 12.503013925684018 19.46467246143488
Sb 11.017263640818234 11.514480957725459 18.04514442342402
Sb 18.727269705717692 15.747644708701054 19.488990394906782
Sb 9.881033422751615 13.342708443528863 19.865950649240794
Sb 15.974163243189247 16.176176588580326 21.83733460437769
Sb 12.047924975866769 15.688141712695788 21.000663731288636
Sb 13.845406706902207 18.09117712091974 21.578465413754934
Sb 14.169991512801845 13.906370650399804 21.8046225752385
