49
Energy = -185.58392833 eV
Sb 16.47549518078789 16.8311691915292 9.568626457787875
Sb 14.685100256709033 12.363088480759469 8.689127907205192
Sb 16.83826470878138 13.695170815997024 10.077283177190584
Sb 13.390270327089823 16.78938143882649 9.780582696211553
Sb 18.85545971638155 11.704928388438784 10.694384466722997
Sb 12.46051733844336 13.971256812235245 9.684731787907465
Sb 17.672416079453484 19.459004541027404 10.110831451569382
Sb 11.380640776518208 17.776804326364086 12.05548671329555
Sb 10.424259931729425 14.106663557541495 12.644404259421211
Sb 14.6278619148139 9.905732966707902 10.451622415002943
Sb 16.45247646041571 16.546042981121335 12.430223093044471
Sb 16.96798946488164 10.295518927626109 12.409500121385694
Sb 14.92120281507916 12.330077489604365 12.116479470798499
Sb 8.93219261195416 16.574013417534083 12.939780249457563
Sb 19.48170455096038 13.826782234413315 12.615301561994734
Sb 16.012325686227264 19.44353063333739 12.536464002658896
Sb 19.08430141133683 17.698468781249773 12.099229717662267
Sb 13.251154147458058 20.239196473991587 13.490128142456742
Sb 13.217286644519813 15.209088355608216 12.249063895905152
Sb 10.434567970276765 10.945250143504682 13.223443120390069
Sb 13.1409575467685 10.138185281200327 13.08419697754878
Sb 17.547538984148627 13.081999176649198 14.645949140363392
Sb 16.620911592635938 19.15293606445638 15.481069724345287
Sb 12.988705138601688 17.588326148246125 14.65536947979258
Sb 19.432778013035616 18.68726517151533 14.84147556550561
Sb 13.437993695865412 9.42423854978875 16.240714638665228
Sb 18.6085346429396 10.512470530413724 15.360106308710051
Sb 11.31003679978114 11.381144622990176 15.951576868991339
Sb 20.429156727769435 12.814139325794477 15.315506294106278
Sb 14.989999810432309 21.645791798744632 15.384571178742753
Sb 11.018569558620086 14.658172621949962 15.545370549596539
Sb 17.991245723164322 16.35436567804663 16.335696017590116
Sb 10.175311796470915 17.41324552104445 15.631481692312502
Sb 16.01929020902703 10.93068603771102 16.997335839627414
Sb 11.137474472984044 9.18312675138734 17.94647241583141
Sb 14.301130230963773 17.720371016949308 17.657409470243024
Sb 19.142719779725976 14.092176371335263 17.804161014053044
Sb 13.847098716370262 14.449572104934719 17.954646124569464
Sb 19.94614498472587 16.776214350324924 18.478512039091797
Sb 15.707192802006963 20.33707749568317 17.900101962997223
Sb 10.147296080637759 16.819733406657132 18.668389941943904
Sb 13.10102358678188 11.258267583799121 18.82058975249563
Sb 17.17040768320249 17.39740145163646 19.176183287082562
Sb 16.261890058642482 13.225292083527444 19.345381056097505
Sb 15.666219773017307 10.365045851401458 19.795522464238015
Sb 12.367966654003386 18.279150380293736 19.69402307668012
Sb 10.947771170630334 14.09280840814309 18.417420325386196
Sb 13.530599398699945 15.720715330813452 20.59895513815872
Sb 16.317262282917625 15.657626835532298 21.273832855553568
