45
Energy = -174.89878403 eV
Sb 17.120357440051524 14.468940086796364 10.603838886492559
Sb 12.06085541809182 16.185983305131305 11.718407681397611
Sb 16.833301513877956 11.996640879764621 12.094710648225522
Sb 16.931228110376637 19.990792881896777 11.144983975717121
Sb 19.995534235237958 14.798703916309725 10.46008516407053
Sb 14.673919329284532 17.911610543710495 11.082597835255653
Sb 14.685489090307088 20.10395153611683 12.85627388893629
Sb 13.371901004359186 15.037409337941675 13.919161806756884
Sb 14.582923247585278 10.91440590115791 15.063137186774679
Sb 10.47780181270139 18.28624082498383 12.892152036371474
Sb 20.888658588438116 16.820654131725497 12.273065736227082
Sb 19.41219538692431 10.684141333059106 12.440848922125907
Sb 17.68324210745703 13.542336695630249 14.387562892995884
Sb 18.409855540771403 18.161645559750227 12.773373360619678
Sb 21.401188438636364 12.627075216944831 11.743088852299604
Sb 13.244550543089108 12.308397350058614 12.899333345588545
Sb 16.236210309665736 16.05001049417353 12.884992356233232
Sb 10.637875736115532 15.52654592628612 16.00395930429483
Sb 14.184093489758778 18.227434592386214 15.46046465864519
Sb 20.159869345786824 15.51633421219125 14.807320761577234
Sb 21.876007534861312 13.22968215680196 14.564338961616881
Sb 8.562590680856568 16.882366213976574 14.540940540043403
Sb 15.495873949199432 13.40639235917145 16.28502644628929
Sb 11.645863985463585 19.614433513197326 15.220893488838223
Sb 19.61159645875404 11.538266066296963 15.287573063788182
Sb 12.615790447661775 12.90299417670795 18.002229872252343
Sb 9.76511104493921 18.20588726932622 16.92413853734435
Sb 19.23493447537776 19.39157921443239 15.280497217822273
Sb 10.62771023725101 12.929196670541645 13.86219393783999
Sb 12.462800681490304 10.17992339172825 16.9060440944179
Sb 17.40714419258429 17.495018742584215 16.544493388665916
Sb 9.873609364804674 13.781495221459972 18.238154316550084
Sb 13.486837945418706 16.01526854947886 17.40399603480238
Sb 21.310575970999583 17.665317379704558 16.372895955934975
Sb 15.673577474037364 19.669545228670575 17.54519928819013
Sb 10.024662789149644 11.202486902241866 15.932269981061658
Sb 17.131101716129766 12.481828812008846 18.51875545958505
Sb 19.405856019929967 16.798679446859698 18.48586012518328
Sb 19.51078516177598 13.98555394789588 17.782846050413774
Sb 13.059204656848172 13.17270146957081 20.833322779146307
Sb 12.127685294372013 17.804981650858117 19.189426391148068
Sb 15.904925419751828 16.219503276585048 19.054677930751282
Sb 11.167828419678639 15.36288695270738 20.499014426491218
Sb 14.808772263942467 18.624391846059474 20.127273985347035
Sb 15.871834777992587 13.934096466905778 20.74231007765781
