44
Energy = -171.6027985 eV
Sb 15.12705322760998 13.66867435596968 15.457331051299535
Sb 12.178278350722294 13.51504291106764 18.37691552153879
Sb 12.198955156635687 8.187877739981008 13.498013245765431
Sb 16.203891239219757 9.42337944388838 14.899358103758109
Sb 10.895760452369148 11.16859083274435 19.462269706582894
Sb 10.520908526712658 10.202470053988035 16.713977128538396
Sb 14.41525008512768 7.15705378426191 15.046309939854778
Sb 14.550096851162847 11.994124528967507 17.763423216496253
Sb 18.109139877489064 16.04535552058039 14.816878744321283
Sb 17.96701676906003 13.21748042888682 15.505450101085765
Sb 13.885466135760774 6.080911316073962 12.426508169799705
Sb 12.851250892055115 16.32053096747319 16.2603968156439
Sb 10.011979255256081 17.01792681296015 16.405466739711517
Sb 8.998671855448817 10.680699776993453 13.662970432771985
Sb 12.712135198230655 16.61845585460265 13.354152558079797
Sb 18.9603275716264 15.510324064296299 12.082970498615607
Sb 13.849083033694804 11.07445751687635 15.09001918894784
Sb 8.273688172033836 12.347081148535622 19.381635320288254
Sb 16.519498087953238 9.38565206013791 12.049261195340947
Sb 13.868764234947841 8.682001113151406 11.198246022904023
Sb 7.6716741447109955 10.826058217026263 16.954388000207963
Sb 16.15893876588515 15.634156656229324 12.690533638026244
Sb 8.266486447899672 13.654661599943722 16.81393854022114
Sb 18.73439395786849 12.680493303716284 12.733319268569202
Sb 14.993430197140153 18.27572710949805 12.744297611571998
Sb 16.040991750141696 12.237760008743445 11.769282102382256
Sb 11.970569326094147 19.06701901528792 16.741588596272898
Sb 10.891777252296487 12.925521055768954 15.81435873134931
Sb 11.65072179138377 12.43870404530381 12.150654953440846
Sb 9.486158669928004 9.06818222769249 11.35249708957039
Sb 11.235806627238539 10.857572700936275 9.803305592600639
Sb 13.541346179655655 14.206492836957716 10.573619398649289
Sb 10.782901246648626 18.659049213348332 14.150102865130352
Sb 17.52437655972437 12.251328371834978 9.284154271095389
Sb 7.530402119091116 12.484521296080393 12.05501868193477
Sb 17.484842127644868 14.963251055472746 8.199016877619036
Sb 15.553524216996411 17.11462044354942 8.08628302666923
Sb 13.923005567240738 18.456104923553053 10.06000844739851
Sb 9.74135005077079 13.483938227968197 10.285329591241364
Sb 15.964913162855536 12.881620353388241 6.942311254666344
Sb 8.03117032681629 10.951917450466865 9.708702259753213
Sb 12.97422697449253 16.123280174073074 7.198868122874791
Sb 11.830012810160966 16.44997490664254 9.918084395764204
Sb 13.23468840229879 13.324878223182107 7.833706629747046
