43
Energy = -168.10877197 eV
Sb 18.36803550551512 12.748507198415105 9.774750089675965
Sb 16.36758950544118 18.183337706378897 9.190636655323106
Sb 13.963766599153935 12.24658618846506 10.115052865038605
Sb 16.393032949318332 11.481043635147662 11.417851499265836
Sb 13.012181501242528 16.012613776402723 9.762914617873863
Sb 16.938280575790582 15.399538952380167 10.18925584394397
Sb 13.62034294725766 18.75672009156712 10.52433427820356
Sb 10.300918140193389 15.814525162351519 10.758755554506196
Sb 16.18662215744388 8.69332997852414 10.914008120221162
Sb 19.80834356609189 13.340159695944257 12.122601189359854
Sb 12.423513548966236 10.564990003034168 11.90646827800722
Sb 17.58449831666231 19.081656994375216 11.519094017202388
Sb 10.082519075065859 13.172231133259336 11.82100768894325
Sb 11.592309418715237 19.64392997077068 12.814460782750265
Sb 19.064876505348785 16.3742768981201 11.910901588338294
Sb 15.211982594844889 17.928327269781615 12.747879018370686
Sb 14.283382290661816 8.581061870525554 13.033531079960072
Sb 15.35870620269159 10.715570762282153 14.699318182476445
Sb 12.237253928873 12.796420919053755 13.769178347294046
Sb 10.717250292888357 17.032307754379612 13.291842928839836
Sb 14.588342276058482 14.722730797422278 11.823806348845524
Sb 8.191297996722959 13.590683049741255 14.03835647458403
Sb 13.219802342495338 10.39951219857796 16.619545668559386
Sb 12.861397715990556 16.099885709946268 15.003138650539668
Sb 13.507607918141105 19.005231581904518 14.884728766165646
Sb 17.64111740400408 13.33718980366574 14.064325924091081
Sb 15.847485367373425 9.34725140771406 17.210101783812394
Sb 17.767586188583103 16.226181443906814 14.525422555708754
Sb 8.576068411626805 16.225455775737732 15.129747158783132
Sb 19.480180563619342 14.410050918187155 16.026542884580714
Sb 10.040660078745356 11.864535947587973 15.450441561174413
Sb 13.527887458119688 13.15143295416336 17.44106649374303
Sb 10.725129020396263 16.11828008022636 17.048761152242783
Sb 17.568354496142753 17.677639883788952 19.071335974825562
Sb 15.165279895544817 17.231190346401608 17.528582377306876
Sb 15.052548274182456 18.752862330557964 20.00134733541602
Sb 17.014541385358545 14.05049459573341 17.51329426636892
Sb 17.054912713718302 11.429063145170051 18.811940393432117
Sb 13.672542447323984 16.242303772513473 19.794875229250614
Sb 10.638880365505493 13.354827143672123 17.84946164162874
Sb 14.50876896296479 12.119943857228787 19.979192835479022
Sb 17.929115570445028 15.010470496365981 20.064637995321505
Sb 15.400474070839605 14.561033344696256 21.330890448615005
