47
Energy = -183.36098103 eV
Sb 16.850420765095265 15.715659905441488 9.048122537490636
Sb 14.769744414521293 13.82359497568652 9.816765086256057
Sb 19.112162737025603 14.903919603173513 10.604803720761499
Sb 18.66153957793531 12.313872422163037 11.771613566010364
Sb 15.812314898617025 11.755617336596167 11.5471708505372
Sb 16.485254838315594 18.45533646079433 9.985931217779939
Sb 12.196451612229884 14.717967874441001 10.783534298021692
Sb 18.755837933497105 19.698246304250183 11.376123171036468
Sb 20.70755019622953 17.69600166031803 12.152791699171972
Sb 12.383465404932739 17.47204892069798 11.636877624633446
Sb 13.855813695029141 12.052504861745266 13.623366528104503
Sb 11.924123716404287 15.394735580171691 13.5875776558957
Sb 14.58543649314905 14.731307245203606 14.520438496459414
Sb 15.173133290724467 17.48569593942773 12.330884311983818
Sb 18.534822379607846 16.091824030350107 13.192110371273868
Sb 19.80885546363386 13.62894255933365 14.123881124481295
Sb 22.350118031539886 18.817308605844136 14.313419869607404
Sb 17.539560325334286 20.607971643682053 13.866241455887037
Sb 14.680120643960263 20.064732824328473 13.527150868570464
Sb 20.669945703232823 17.409629507439814 16.156118100325177
Sb 17.57075840279119 13.057973430779166 15.874353789273888
Sb 8.82133639478154 17.352939666431205 17.403112449470587
Sb 8.354396964201763 14.579606817378336 16.779149899890875
Sb 17.43691345250214 18.270444265694703 15.61658460460562
Sb 6.695521848785649 15.919223351792924 18.711331629697074
Sb 19.027859485500734 10.937171160159872 17.223490766592764
Sb 13.819527956723489 14.006575581345844 17.276525144046833
Sb 8.950047900061636 16.857257042010424 20.244544769927074
Sb 20.43895149797359 20.31853898895733 15.887501181401442
Sb 12.301002408341976 16.330611957931218 18.085729566661115
Sb 14.45847684259404 18.221502186019784 15.788343768880347
Sb 17.145859276361993 8.934443705000499 16.297209997917868
Sb 21.599509076207685 19.103708942559383 18.298776946535273
Sb 11.607038774000838 12.240531906050341 16.612245452033978
Sb 15.089560726052149 10.996411639648048 16.107416842639687
Sb 9.722593956365428 12.9305437106815 18.69463215607889
Sb 17.23354063698116 15.591032932756372 17.331548297439113
Sb 17.15590340590506 9.707474907851383 19.05356189919121
Sb 11.068352257544545 14.892819418037904 20.26725905663376
Sb 17.534425311890942 20.19804360842514 17.75423997172731
Sb 14.877559989516877 11.510017797500575 19.291191064234916
Sb 14.270389275907746 17.392023131664953 19.976273964611586
Sb 12.988159007462622 9.929161867562692 17.778587960471324
Sb 19.123389641893745 18.938065691715078 19.812152449459735
Sb 14.712185608794934 19.687829934597417 18.272643869878177
Sb 18.93723963701984 16.058681279146096 19.610824847089997
Sb 16.191116068788862 15.188734743180323 19.974133025288015
