48
Energy = -186.54561125 eV
Sb 18.27597206786671 14.611793457781236 9.483621162444845
Sb 19.266007548516008 18.932209679668755 10.458421384728299
Sb 17.610874202484617 17.32795683974976 8.690189536158027
Sb 16.60470239874519 11.667923964029912 11.195772095802344
Sb 20.869510450271765 14.342993373268447 10.662311683469628
Sb 14.915247318359675 16.533949486856848 9.464795533025953
Sb 14.585265964602943 19.623131744722855 10.704906971800504
Sb 14.648552052745114 13.62322033450656 10.194390599935417
Sb 15.475653206607308 10.561812607424722 13.636941835495506
Sb 17.969815539731194 20.460893445275865 12.641587883797195
Sb 20.264771428884817 16.742986737473753 12.066721950355468
Sb 17.703980254834754 15.349258993333459 12.239498064318353
Sb 15.387625147272114 22.158656608189155 11.887187137983478
Sb 10.71484538060351 13.467123157006357 13.206486860529289
Sb 15.752008041331253 18.685799158090457 13.193163679109238
Sb 18.76226971338537 12.774476985438062 12.886129536411406
Sb 16.590673852850095 12.774508344192908 15.013481625532481
Sb 14.736939844117776 15.597828384864938 12.24917477027019
Sb 11.79732110422799 19.70036686265328 11.44997461946342
Sb 13.13167489113742 11.396905707297808 15.48248402201618
Sb 9.243981012163458 15.910656651120055 13.45164465222686
Sb 21.173392854779767 17.270783299969104 14.79115578691286
Sb 10.221596635456013 12.258652079132675 15.791220275751332
Sb 19.76967527294384 19.675210767886774 15.25331231039577
Sb 11.781268549232967 16.88814275120652 12.297377395709253
Sb 13.11690379592435 14.179248320380252 14.717377863861321
Sb 16.888510499657244 16.224051331066367 15.533760047958879
Sb 14.767045579766828 21.115586518192224 14.480224276428535
Sb 14.394076842059578 12.38305617382561 18.085949262049954
Sb 11.446238287371937 14.505813998522765 17.11306647150806
Sb 17.124904207052037 11.488331376517834 17.5478025636539
Sb 19.524847881269416 15.064181149029405 15.627840143095263
Sb 16.028410872410618 15.71419967612026 18.3900530792479
Sb 10.067065201722425 16.814159756678393 16.071588217126436
Sb 17.502032264012172 18.78486452913754 16.69722643341351
Sb 11.965062683136036 20.47087030341897 14.221282138155138
Sb 12.607264016925187 17.722727821059582 14.970103125202476
Sb 17.86471597637942 13.705433072961075 19.288895051060834
Sb 13.441407524036052 10.422198526319315 19.996210527723083
Sb 12.033641706410103 12.737050780986806 21.05673940834596
Sb 14.69195003561768 13.918067133654024 21.130722059344745
Sb 20.139846406314156 15.318278415128189 18.397844336250706
Sb 18.312952432623014 17.444177076912535 19.120346650588104
Sb 15.799228143086516 11.259473332474553 21.447015495370547
Sb 12.45665160934438 14.272649642649542 1.4205595803438216
Sb 11.930853108734942 11.712398289304916 0.2523890641605078
Sb 15.121190006509044 14.251220284260974 0.6022810200555827
Sb 14.760024054946014 11.3931689387188 0.6987319044768228
