47
Energy = -181.31307031 eV
Sb 15.017563786780736 18.186645922737263 10.33641767103011
Sb 16.577320908814528 10.329130959243933 9.18421370059882
Sb 17.71899404413859 12.973682670708476 9.701085078881631
Sb 12.330878022812854 14.441625538475945 10.855653279050834
Sb 15.110319327435738 15.327093246906534 10.532317245897886
Sb 18.561317874424397 9.11279437484119 10.93476937246989
Sb 16.600203675275633 18.394455468834668 12.90673071959988
Sb 14.495450008585566 10.606250836076576 11.40125756868165
Sb 20.03021925588212 11.674723341777254 10.947169419246695
Sb 12.205769228011377 18.768624910189136 10.665795476631041
Sb 12.255179104715156 12.535917358522191 13.01077499328269
Sb 11.109509596074025 16.62257836387314 12.236687800687282
Sb 19.365045718746785 19.233152371473132 12.398923130799412
Sb 16.556627011566164 12.370387912359329 12.271098917194886
Sb 16.23743173045183 8.507010885296593 12.578519645201874
Sb 16.074830123508928 21.17311459063493 13.575588236797936
Sb 15.538978473864738 14.812967398672262 13.36293085566328
Sb 20.22104171324425 13.109891198662513 13.439701632806539
Sb 13.08663581770557 19.864156300594964 13.218289027830899
Sb 18.93797520804259 21.38143897339427 14.292588110654242
Sb 18.398716465321588 15.486143646017345 13.610235621475724
Sb 13.03349141487291 17.194275298810677 14.391713920884396
Sb 9.583412158504775 15.169046832967824 15.717559026647312
Sb 15.33289203849468 12.634022784431146 15.914468054892783
Sb 18.108047034256085 11.851079078851843 14.912030827985168
Sb 19.250800055755054 18.688480584515414 15.165230848159858
Sb 17.688133010295704 9.001321723660057 15.003153551203354
Sb 10.784623656389146 11.367872206137903 15.990082254290233
Sb 8.689881633825872 12.888259431874612 17.25638739169231
Sb 11.157176038535356 19.192905049753474 15.329444989077384
Sb 15.645439985938987 20.89117609380466 16.40091942635629
Sb 12.238653630000332 13.84875632608847 15.608276300421155
Sb 10.031743146590983 17.21912929253617 17.753649216149228
Sb 19.140719407982495 15.23447418502063 16.48772428481963
Sb 15.492635010757647 9.853275852670944 16.734194079790928
Sb 15.603133105432748 17.966692138277892 16.596310851829703
Sb 16.51463219749346 11.925605861977816 18.492498237752667
Sb 19.205798753861405 12.48515616450709 17.528295461179567
Sb 12.152620904527987 10.190941879309117 18.336771744376957
Sb 17.2336690653046 16.300829799603175 18.239355184886257
Sb 12.818592535889469 20.725342450218744 17.145872430778017
Sb 14.050780588160698 18.814193482366374 18.9357029333196
Sb 10.42038695323476 13.470845224642908 19.47190903886031
Sb 12.643243979668513 16.355281775548676 18.561708082921314
Sb 10.440694637281206 16.15647000721924 20.469317177168634
Sb 13.184557302781162 12.672441777471917 19.314408539205505
Sb 11.244366539345052 11.110470309025844 20.902400521451423
