42
Energy = -162.96266513 eV
Sb 15.56199770154407 15.614698476796097 9.121118682588047
Sb 10.853870148325909 17.01988233563388 9.844988514437734
Sb 13.341660075168935 15.986628800266862 10.968558878978182
Sb 13.186751478518184 18.788660335148574 10.288462296903846
Sb 17.806573298975657 17.096681352240054 10.309439733804538
Sb 15.875242410755016 12.892576744800566 10.067720612666564
Sb 16.28702581647575 19.011784153475073 11.875395921838804
Sb 16.77274174699309 9.233640780491791 13.317177249420059
Sb 10.079703307072537 17.34422921732691 12.63256643708041
Sb 13.909996025353916 12.690299119396311 12.163538404026802
Sb 15.282129363273935 16.800087325590592 13.353356212654989
Sb 11.864717995056218 19.646515047211626 12.693753262812985
Sb 18.451078596481754 12.932190643326901 11.35416980654257
Sb 14.101889666325002 9.825266301199745 12.168007271757942
Sb 15.464198241632136 13.232317276033774 14.535861892943718
Sb 11.82080062748668 15.51102286082565 14.210111258896342
Sb 19.081918174032356 15.546702572178551 12.389377229122537
Sb 13.533295791076787 18.563882469870464 14.802054369971914
Sb 17.68336974023775 20.288321485490755 14.116485186357018
Sb 16.647136539658227 8.768706433520842 16.09309512599657
Sb 17.618534829938934 15.917617958914798 14.842146807627445
Sb 19.320300009331714 18.222055232975613 15.270230986098268
Sb 12.844143215547952 9.400522588813358 14.706048212027346
Sb 17.88712772385127 11.802004457558942 13.937180735696458
Sb 14.780120618587032 10.852086621137174 16.172313695453667
Sb 11.402909617162768 17.028235477177258 16.646630955094345
Sb 14.065338575334547 15.892722318695423 16.93937818990531
Sb 15.464964676008758 20.312045147491833 15.94675225582819
Sb 9.774161247922505 13.739297652345055 15.355576241674724
Sb 15.327207188864183 18.25895135365185 18.28886896936457
Sb 10.80807964772431 11.152109576175096 16.005013203016365
Sb 19.122852800375608 15.2838574129747 18.270710907048038
Sb 18.20100620459767 17.978764573827934 17.957011536286032
Sb 10.051440118448394 14.712198811965468 18.03687462013941
Sb 16.728925304439866 13.642008858993877 18.032261503893093
Sb 12.711922673154595 11.421163669996742 18.156399737290453
Sb 16.363458808924914 17.306519174692614 21.19478766515741
Sb 12.727283734954865 14.18190872929484 18.967263648350368
Sb 18.81195625954016 18.593288372162352 20.81575044910154
Sb 18.763601724345584 15.687476613322742 21.151690110906603
Sb 15.908433875161535 13.855873645123282 20.809221328204224
Sb 17.57438565078088 11.829449271327539 20.05690114247763
