45
Energy = -175.48241676 eV
Sb 20.21061444642338 20.191026429993023 10.818223761849545
Sb 18.38134507756505 13.378807549007318 10.551814855300458
Sb 12.694588348936326 17.33229811574299 13.114967353904143
Sb 22.384517749133554 18.441342234348568 11.37964112880949
Sb 19.120137934795764 16.185516536292088 10.7150376439574
Sb 9.94997306145544 13.644117957927886 11.450395726342647
Sb 10.110116557800401 16.02933166354339 13.0970653105334
Sb 16.506861583376107 15.319209474850469 11.552000430710539
Sb 21.845358253160253 20.657311184378827 13.097455045064095
Sb 18.074055326891013 13.774275850079054 13.39527738444546
Sb 19.352076870701826 19.165250979383742 13.444036045907636
Sb 14.557734578423219 15.779170406746015 14.638094940363047
Sb 13.869278712670752 13.28371018762875 13.383944851382534
Sb 16.11796904528459 11.916054025409272 14.5926726648419
Sb 8.020263573478429 12.894356780742834 13.414832582354942
Sb 11.619261083387647 18.920214648510417 15.261399703914233
Sb 20.640899590907495 16.58987774241703 13.166116674958449
Sb 16.48634067517332 18.767491409631944 15.206531740697471
Sb 10.444675675711725 11.4171740411604 13.204003130024367
Sb 20.664702576231555 14.127965994398163 16.002141887531852
Sb 9.927591429336921 14.559781413769686 15.506372831124704
Sb 16.64843699343136 21.484454258386663 14.198143187458513
Sb 18.64060302165957 16.219282119819045 15.684392844345478
Sb 14.944865502223044 21.999697983754295 16.518226236528076
Sb 11.999899174255075 12.51221795213077 15.418866464537675
Sb 10.768556816482327 16.889349456422174 17.11752088911394
Sb 14.00058748505043 19.31208033601141 16.93556535978199
Sb 21.764774102245795 15.66848227422543 18.259687707154857
Sb 13.468075008379163 15.944285076151463 17.33464938104735
Sb 18.896873997918238 12.011484392097435 17.130124480932935
Sb 20.21419622505623 17.993081977212082 17.448583056838267
Sb 16.484967561823616 15.496949157101483 21.016826481370146
Sb 16.54049679089001 13.683436014300636 16.886767522896964
Sb 17.627051784663568 20.945805325808596 16.81792892530949
Sb 16.020808328488624 17.343865044513265 18.715997340948615
Sb 12.741350844919488 13.58624860816734 18.88043052210089
Sb 19.240296517571718 14.93549475833139 19.303135744547557
Sb 12.332481382092007 15.60118115222006 20.966408695117853
Sb 18.524435224419573 18.60382043355501 19.80694065608043
Sb 19.29829167605427 12.140321959488348 20.014606956128873
Sb 19.10085686327876 16.493728819740138 21.72344529055506
Sb 15.12961485800466 11.913780853334597 18.71516194708784
Sb 16.638734903402696 12.548519596721581 21.063584800960648
Sb 14.420015899835528 16.395038880010276 22.7657734189633
Sb 13.746526282074885 18.074268339601396 20.456365791241005
