44
Energy = -171.26628988 eV
Sb 6.682471702101135 12.275399991420766 15.075538056932025
Sb 6.154273707297336 9.531957133192105 14.295997312197915
Sb 5.3817513315463525 12.913479448140476 12.563271080784682
Sb 10.709994261085598 14.632852604795598 16.685490256330137
Sb 5.959667792297313 10.277848716669899 11.474512082092268
Sb 9.049662747873144 14.587852861308496 13.271756430340421
Sb 8.806143209255499 8.831949766319163 15.275887477198069
Sb 9.522209804609725 11.604606308949354 14.771314075482431
Sb 13.290547289545827 13.608778931715957 17.43338866851661
Sb 7.528987256960182 14.062805637348449 10.888440374967658
Sb 12.118849947854848 8.793192009934625 17.489908090375085
Sb 11.713710668018667 17.318604176631492 16.1595642324703
Sb 9.879709366687894 8.027903741841936 12.71685685078336
Sb 10.514415146310895 10.753630206310902 11.855788939494735
Sb 8.304645247718483 11.371160774462382 10.119535650908556
Sb 11.040251341749755 16.700653421054223 12.829284960309272
Sb 12.221905747252821 16.049837641343398 18.716544006422474
Sb 11.542998493282838 8.884417560310395 9.597891971604579
Sb 14.388072936977583 14.272073752341765 14.847614624629887
Sb 12.55347778436925 8.657779767315272 13.53796446175822
Sb 12.568479143246103 10.897975203917131 15.544914772067616
Sb 10.795562249808981 14.442404099808346 9.73681402591896
Sb 14.513809619620549 16.993415226251987 15.629209123495569
Sb 13.582570913644737 7.054101232401359 15.708443107625198
Sb 17.26423983113548 10.555584233545638 12.140614341545202
Sb 12.029094596893815 10.747893349619156 7.43980887829958
Sb 11.79116390026852 13.91555630168308 12.445274580267549
Sb 11.59538672413478 17.20048128453438 10.010230961556301
Sb 17.20230374490216 14.534259821364556 15.41327344117606
Sb 14.953730543440425 14.335848438484055 11.083808737931191
Sb 14.82051712413925 9.414623538114371 16.799771126394578
Sb 14.724234851203356 11.003133757386298 10.734857741905083
Sb 12.37496726446002 13.609330342090217 7.481245004585935
Sb 14.616140905940117 10.061524877592172 6.420196359636287
Sb 13.938648317856401 8.231242610697269 11.003839560344955
Sb 17.78146395038065 16.546468431365902 13.372223704469551
Sb 14.488493508071484 17.09651046961574 10.462768300750366
Sb 15.342982205445791 18.13072336073358 13.08325323361957
Sb 16.41319078629488 12.26012839692905 6.884682280283483
Sb 18.341915361385293 12.136887218247642 14.31572836093758
Sb 19.123240581174112 12.709036239378154 11.610874771570854
Sb 16.441862532337623 10.002507339301838 8.672657763361743
Sb 15.012519094888285 14.434012219254024 8.18127751856938
Sb 17.697975890582995 15.128750887090321 10.86172947178774
