40
Energy = -155.25384416 eV
Sb 13.192583163127413 16.263082146348964 9.206324050494135
Sb 13.220510613367507 19.186491725828233 9.046557433560428
Sb 13.60447525708905 12.967731771913929 9.847478832672131
Sb 11.552200385546058 10.951321485387991 10.12856390436765
Sb 16.0116100476572 16.071881153829793 8.57272071594579
Sb 15.578637955553493 20.059994719302903 10.477381511986865
Sb 11.699648815987404 19.070522045493288 11.55207944583335
Sb 17.503747651031127 13.768375331328807 9.551420498435897
Sb 17.464411861466232 17.877805851072893 10.28053143036642
Sb 15.8802892754727 11.391797402084059 9.351448606798465
Sb 13.154087851319998 16.631008047947176 12.111594928093773
Sb 13.833322920752275 20.498816641098493 12.832948192632582
Sb 11.092972485493858 12.376210214059629 12.575953708312426
Sb 10.840420337713063 15.64513084005072 13.54370606666287
Sb 12.36934203312092 9.763098070360048 12.707005532889946
Sb 15.205463556050931 10.529564933220657 12.51865681057687
Sb 14.40235971232214 13.275061821159694 12.680946161106107
Sb 16.48487999241097 16.76733986513927 12.764648790304978
Sb 17.199944585928073 14.014922981694276 12.417507230886233
Sb 8.6499493239268 11.502307515195367 13.91030261687738
Sb 12.262538076292223 13.99615150261057 15.515314727180352
Sb 10.369597057854255 9.783624029542779 15.41429638410416
Sb 17.222476290573596 14.302194233611958 16.017393112002658
Sb 15.453779355971186 11.134777933076595 15.499744224944418
Sb 13.664982666899787 19.200710745200595 15.443273151269977
Sb 13.811182949477569 8.921045763134979 16.496391589045718
Sb 11.032549846086315 17.979132050226063 15.378644034854293
Sb 14.185835377739796 12.498014246705617 17.95694903231026
Sb 17.795860050439437 17.082709348348015 15.388776562030625
Sb 9.882070896680744 12.410075853364544 16.35615788043274
Sb 14.914631034703827 16.59926822994279 15.659854058480303
Sb 12.444102429759578 10.254504375750054 18.707169321830172
Sb 19.1680760447085 12.835874798791975 17.594129804371036
Sb 17.530701622158027 14.927838945288372 18.817349394785552
Sb 17.80426979027525 10.330938344371125 17.05469560736048
Sb 14.047183354097989 16.93208765618486 18.430956560847747
Sb 16.27250399550834 10.914674410199993 19.381765740459233
Sb 11.451565441360138 16.022422312875392 17.50852328150391
Sb 14.682397175782683 8.505354637385466 19.22112561145306
Sb 14.85674333052243 14.550040633101823 19.873618064159164
