43
Energy = -167.55461915 eV
Sb 20.72400220736322 22.29194985970133 12.509156268197763
Sb 18.703585651996676 23.1331085940698 14.403968217306778
Sb 18.18812608726367 20.8579361902726 16.035283861713445
Sb 21.302178089167974 19.5784629319616 13.128034671471843
Sb 20.223843806919685 18.901015436420934 15.682437433857563
Sb 18.99121171016834 20.153785648081513 11.558672009730714
Sb 16.936697632726982 20.988579442846383 13.470892260180358
Sb 16.92573698109002 17.92001178909011 18.74593310810096
Sb 17.48097880533056 15.155058448337678 11.455456476120531
Sb 18.259072852908275 17.373724621346867 14.19226045979104
Sb 14.900516452674541 17.78423284902669 12.447764955081123
Sb 15.417221247416098 15.091033568394456 13.519536690837018
Sb 19.767883905259335 14.893726966301756 14.672214887563609
Sb 18.325192921196944 15.501687569652436 19.54719629358249
Sb 13.914376681167418 16.899255165331276 9.859022231970487
Sb 14.042495095078946 18.39392010999603 18.859322918949765
Sb 15.31135939141641 14.377970353430042 9.64910682868857
Sb 14.605744357549721 19.314643100319174 16.103759837996602
Sb 18.592498404838896 12.86687298556842 12.909383074273986
Sb 12.638681997086543 18.674765872239625 14.039527196456357
Sb 16.168428910110265 16.88915670105576 16.168545514194378
Sb 11.11551237300309 9.126174907240266 16.807971673106056
Sb 10.67342676941914 11.159885933838545 18.838881306589947
Sb 13.243327778789656 12.267641527535396 18.178768840023043
Sb 14.008240800861225 8.602284636070776 16.848580219852085
Sb 14.55952161550249 9.990745991864207 19.337630302667026
Sb 10.661525393747327 11.205384940574016 14.768199070615367
Sb 9.32495594886129 12.808490514246053 16.83650381775155
Sb 13.639566083622269 13.950790983342493 20.532538907407734
Sb 14.67937258623947 9.982878635280265 14.347076987729023
Sb 13.256590881631427 12.37278997975506 15.009206916509697
Sb 10.279817510260457 15.347781176046084 12.772311986430676
Sb 14.173743517771014 12.95873262631981 11.935777635992508
Sb 17.03350594840801 11.423582476991491 18.828368650435227
Sb 16.525886560601442 13.55949064489764 20.76994558919325
Sb 11.225507964619077 15.858125429585279 10.05960491488622
Sb 12.22249772476645 16.223233171421096 19.4089451472441
Sb 11.398683153160457 13.216495588235544 11.181675313598623
Sb 11.57747130088669 14.688536556096214 16.984719663965112
Sb 17.249194339962763 11.244760100159379 15.01214824692192
Sb 12.49197264722035 15.845499757726971 14.521416630244763
Sb 16.199286828383315 13.264837619550375 16.737272847388454
Sb 18.96740462122884 13.78780413745536 17.251825673058185
