48
Energy = -187.03981385 eV
Sb 18.39193980572604 15.354130210843271 6.724446192837255
Sb 17.501496439687223 13.137715252968452 8.43378134681205
Sb 20.103544698772396 13.436968582620635 9.573457157404402
Sb 20.17548149522332 16.233507634942278 8.830852200785648
Sb 17.481295901656186 17.228049460517997 8.739994900012341
Sb 15.852732306568715 15.143106319370117 9.811094650121959
Sb 18.47288428141328 13.136098451124017 11.928673456486713
Sb 16.265840810019302 20.289887181126545 12.788282790969387
Sb 13.519954378568912 19.55777946041193 13.286756994140807
Sb 13.350523109970164 16.724837525020646 12.651913540787435
Sb 16.223423971523808 16.61051881780848 12.32386410514118
Sb 19.763246855586477 11.91029281968426 14.2403748498854
Sb 16.452380560059595 22.38497805525879 14.766562990456656
Sb 19.41025415765219 14.763290910186347 14.12020053127154
Sb 18.489120922905514 20.301124199981448 14.632288163245699
Sb 12.417756844116536 15.661383265945181 15.197717123896712
Sb 15.557675210132958 12.794136661762375 13.71758567597993
Sb 17.22135051961088 10.938028334418055 15.22080624537977
Sb 12.869407982899455 19.806570213038807 16.07502281406132
Sb 13.31998305777664 12.864367772238886 15.579389947540742
Sb 14.827354792374047 21.703420506702216 17.030616838562143
Sb 16.646264729390957 15.225478829371541 14.858322588777934
Sb 13.966701150138224 17.29299341589544 17.006422593826546
Sb 11.394012539818705 16.843242091953936 18.430596840496587
Sb 20.762381022282774 18.162918019479353 17.152228700193422
Sb 17.946949505137418 18.70442749207136 16.89148126726991
Sb 13.287326852020588 20.203355017660783 19.79159383722313
Sb 17.20413605919234 12.97487277301103 17.24823140340292
Sb 19.421359832706184 15.622273074927223 17.489893113753933
Sb 16.879577197517296 20.51538216163364 19.111213307385228
Sb 14.893621503428726 14.979341675301638 19.242422615495293
Sb 15.403043891765892 18.190056513915213 19.918450868073474
Sb 11.632514444655802 18.130254110105895 21.019251764886278
Sb 14.55488741694499 12.295009672675024 18.166071994635413
Sb 15.14387637240214 21.989300978281705 21.173624977405623
Sb 21.013351614955642 13.93354754181049 19.18481315685246
Sb 12.416905201217219 15.36322683434127 20.721766179471185
Sb 21.457729227296035 18.825069924374212 19.921262058163215
Sb 18.820570521722804 12.236519646533528 19.585729634567965
Sb 19.541391006072935 20.858171004945362 20.475448602676927
Sb 18.235266327300085 16.634924028359354 19.96687019237507
Sb 17.062077609289815 14.306494200439092 21.156200510385865
Sb 20.737235268802678 16.386905405085102 21.348248715372932
Sb 16.098173988548655 20.64030277902176 23.514488258003183
Sb 16.896742515149505 16.173940579009674 23.65648214184251
Sb 18.981314349111514 20.320340707647688 23.189116993893364
Sb 14.988579364213162 18.131905971552086 22.790144307221873
Sb 19.384744106426677 17.51793563437581 23.754322580320245
