40
Energy = -155.21325714 eV
Sb 14.822586829855306 12.784412581312846 12.110645453186505
Sb 19.901049944043585 19.328466267307817 12.932776687084212
Sb 18.199611755159083 17.654405398845423 14.518298646501322
Sb 15.981435789213908 20.12806546765919 13.875685973609556
Sb 12.576709527074994 18.55132752767466 11.852919388385706
Sb 12.687346207878948 21.388501074378087 11.325363207730515
Sb 14.826530717567392 15.602082993710992 12.907835989496553
Sb 10.541915902571649 20.279817866510918 12.901414404970625
Sb 18.438753471034794 21.681239792830784 13.82485923116612
Sb 17.726227046160297 13.131111579441589 11.905069245715689
Sb 15.352909259435194 11.958166228954388 14.854852918247145
Sb 17.34412326708378 14.877961441130088 14.178852260094756
Sb 20.92840602122522 18.036620604730693 15.351657320905987
Sb 18.883602427975205 11.07026166154919 13.644576138792683
Sb 16.537509934816047 9.466017069959651 14.211632150200437
Sb 14.699992723134702 22.597630083229713 13.062798546464812
Sb 13.184966212084076 14.826448731343156 15.137789322682867
Sb 14.384884734528532 16.83358795855578 17.14996509954691
Sb 12.693735880412117 19.37848833774718 14.613468160226514
Sb 16.799334287948856 21.404348615314532 11.451504034768064
Sb 16.960057545728272 13.904867454167125 17.417169214339502
Sb 20.27232210153423 20.018471871566614 17.391882384687552
Sb 15.002449488552225 19.754439493421405 17.38897977774849
Sb 17.5822459554768 9.451913831842548 16.929785684108314
Sb 13.304328758886157 11.015883866936285 16.683741790968085
Sb 18.9340630000332 12.007296424263286 16.43269721730165
Sb 20.651737413513615 18.401557281172646 19.75499047011733
Sb 11.671626660695944 17.084022265408134 16.11068732024787
Sb 17.7564498431112 18.618325723644496 17.818033154531665
Sb 19.77653118544233 16.168137806554423 18.265923329309388
Sb 14.050678497434845 13.406896893401774 18.176599325068196
Sb 15.219732803670652 9.898576859767404 18.487142963152163
Sb 14.454126851051749 19.080087953643076 20.045340005345103
Sb 13.004711274449786 16.351952317204763 19.71920545318709
Sb 17.881269120639885 12.476538326240313 19.788094473740262
Sb 15.127827447315186 12.397913187115716 20.723161253206257
Sb 19.159749880712138 14.903118782084812 20.799559247061513
Sb 17.526468753633296 18.916976126733278 20.680354410394422
Sb 16.7215788051866 16.203303049534092 20.057960465918878
Sb 14.671131441306812 15.20147797069072 21.757446647369143
