40
Energy = -155.98125302 eV
Sb 18.70444846053563 15.181661229429729 11.203276640159844
Sb 14.812096840615942 15.884359142729414 12.586793169650578
Sb 11.302256100721008 16.561651618787685 10.589079030286653
Sb 17.962662855449203 17.836668002697863 12.067779384727794
Sb 11.118067475904175 14.143312523257329 12.122832878855172
Sb 18.395715128848742 14.078639317455577 13.76754490658184
Sb 15.67511983831764 11.797335043171111 13.325471043256833
Sb 16.716536107219593 16.911595526409272 14.530082563495556
Sb 12.709838108181502 17.86155076950105 12.790788133556761
Sb 8.685507867358542 14.480376740488786 13.57568940933455
Sb 18.405759125311203 11.205738550806135 13.470186528495688
Sb 21.079378218913117 15.447595871744813 14.340806331406991
Sb 20.802434880453347 17.259059204877417 12.117948642854016
Sb 8.9678692151701 18.01131588472685 11.35901857398987
Sb 14.604895635134968 9.391741839302323 14.575816703915795
Sb 6.939749260035061 16.07487350174298 11.952155884547267
Sb 22.530039854965025 18.701159913294145 14.314063117812736
Sb 12.544453817601616 15.427576892383996 14.323766116825269
Sb 15.424666792440366 13.259097851950335 16.061978477777508
Sb -0.21370001955235735 16.35817839686919 14.994579191445753
Sb 8.437165847603968 17.294234463404514 14.087599849703576
Sb 18.056838221051642 15.46753824599258 17.37780536846246
Sb 12.740755774689768 20.780098138508773 18.01274143526839
Sb 13.211502321091043 11.289802906793858 16.238398390252677
Sb 21.61572643150331 17.214507066215734 16.574650844262006
Sb 15.507325447043943 19.421824923876155 15.310693502446343
Sb 13.109860434112216 18.385715808113925 16.47290670861287
Sb 16.545754246025066 9.01336391764129 16.69911541060624
Sb 17.769882292109347 11.581984957527359 16.422500391502584
Sb 17.251441700579285 20.06172647248284 17.52186829327608
Sb 18.61741178158071 17.881122251277112 18.88505619299488
Sb 11.86689256911986 18.878694544889058 20.08441793499993
Sb 15.245927190389269 20.836580953804223 19.450336972691787
Sb 18.061936202392328 11.741714969179265 19.44929362524563
Sb 14.455855224832016 9.97230215822559 18.49257859215088
Sb 15.4408269124763 12.646705413483978 19.101925391908427
Sb 16.929379852241293 15.770202595610247 20.006233044136497
Sb 19.418627707847744 14.309916770595853 19.665085818539016
Sb 14.628038233273038 18.41338872782434 20.839181832624558
Sb 13.424093867295108 16.760185168595346 18.83305194700519
