46
Energy = -179.31603856 eV
Sb 7.722175141534021 12.86378458033044 10.7522854605264
Sb 9.68606365541656 11.98982382762236 6.060659412513481
Sb 7.550142093202288 10.607428641433494 14.219222951913709
Sb 7.9239539214697645 8.987395120956842 11.827433192370957
Sb 9.549464928699576 9.39817070792096 15.925215367176714
Sb 7.885641364416342 15.685541593472257 11.204723330592168
Sb 9.299279903232495 12.613752290951608 13.080458160859399
Sb 10.642694451054643 7.512059261787935 9.980455811951199
Sb 9.516012185377548 6.672851605385169 12.580181175281725
Sb 8.84241332094239 17.032189921578045 8.847010796556722
Sb 11.495596139839286 15.33170532377179 16.213117360061965
Sb 11.916967173357602 13.316012399324839 7.260846647523153
Sb 10.038741133159267 11.909494729802582 8.971390728177045
Sb 11.382062281998225 8.413836631952172 13.94303917257695
Sb 10.27684746870894 16.204147114594154 12.722006239751254
Sb 10.018486687009496 9.422633264535564 7.427270883212729
Sb 10.593728036805741 10.062203163558726 11.64347243182799
Sb 11.18646733949022 11.7665855147222 16.027592943153007
Sb 10.533793983866634 18.411405931048897 10.751841071016738
Sb 13.466711441415878 7.308749275063166 9.542242151684835
Sb 12.870307455589497 8.90854542260382 7.139446719976198
Sb 10.616618114842037 12.28855804118471 18.814833256649848
Sb 11.980977008142439 14.537868366892 11.080908534818304
Sb 13.827612870619502 10.651863660035438 13.231786435964947
Sb 12.944296682131732 10.69474645229072 18.00435989536406
Sb 14.682652577620642 11.99572200320506 9.918461258678134
Sb 12.20159458514628 18.09070756064001 15.92011342486044
Sb 11.643607346379728 16.440404259584763 8.89219171194677
Sb 16.486421647980126 9.758523108677435 9.916224440061916
Sb 13.55530287687154 18.365856382328865 13.357204222732248
Sb 14.035170911219899 14.18524613601717 15.3923294267874
Sb 12.222227965951529 14.712871204960955 18.96412137807866
Sb 14.126793320657146 11.504622707733185 7.117566241907544
Sb 16.203154511424017 12.392930594749114 13.496619188972181
Sb 14.518273785785496 13.143318706729522 18.060368702397742
Sb 14.24640010578104 16.345797417989264 11.38028449197513
Sb 14.924690568336159 8.342851382952517 11.851145108840926
Sb 15.194214066539105 9.250541462875757 15.45886181155696
Sb 17.205311872301998 13.45741697849068 9.925042125323907
Sb 14.715700828743376 18.272272148827696 17.327131662586574
Sb 16.092718907416447 18.372396412737643 14.747228075018745
Sb 16.091230613127728 15.975245087430492 16.335527994276113
Sb 16.633081744991618 15.007875053331642 12.241198171397956
Sb 17.19244000497446 11.263743549958814 16.063434456612516
Sb 17.862214355356816 9.133890209985132 14.366908467607635
Sb 18.18069167278039 11.162098498623653 11.816321036503366
