42
Energy = -162.10282292 eV
Sb 18.414240981800337 16.56113670251539 8.621273658387246
Sb 17.142583712824685 14.125050744237983 9.127908717943852
Sb 14.10343755813124 19.652739399053395 12.201139589027711
Sb 16.82403081075982 17.96125385656727 10.671502351417166
Sb 11.789230263280814 17.784740163328813 11.455130106725868
Sb 16.02510516292612 15.339977877332826 11.482734234171808
Sb 13.156698994403063 15.300402728868399 12.027119498469611
Sb 20.732843143684203 16.104612589740146 10.536598812225282
Sb 19.41186423487104 13.725574161603875 11.327699750635073
Sb 12.649983864008139 21.545835445176458 13.821263098177807
Sb 22.047840342311446 13.652106938652018 10.40266108926054
Sb 18.077416816854385 18.34930615063035 13.311947487087533
Sb 13.855423307355172 17.250629370501947 14.13569196083368
Sb 10.973608347127305 17.371717009235947 14.1862556905584
Sb 13.78361591463569 10.173867071411744 15.05508382464936
Sb 19.145783373441823 13.893079200362628 14.247084813428154
Sb 11.805916682646684 13.49737841004622 15.039206413174096
Sb 15.452540089729338 21.29772353628022 14.420921684382893
Sb 20.911623706056123 17.92799827016816 13.260388640890284
Sb 11.058485496327702 19.905470590682903 15.579050820100232
Sb 21.594459316218998 15.342930389044813 14.375791415564954
Sb 21.051817509004838 17.562893920109893 16.155960585430563
Sb 14.973202819238498 8.926597615248115 17.38216661379982
Sb 14.668010148697306 12.934238067502932 15.263229509368017
Sb 15.296757822804585 19.132196876025535 16.22140396086881
Sb 11.084628128914451 10.787234937584037 15.899500052995222
Sb 15.879978600308913 10.918332898719108 19.36372931549794
Sb 10.833299428550188 15.15675427075342 17.27992794551167
Sb 17.1458183093745 15.95192700369154 14.59811899086608
Sb 18.57515545007963 16.43390362431401 17.073896434965206
Sb 13.452198197635171 9.457505986816976 19.79667868208703
Sb 14.650121429416206 13.369465802482647 18.217952144774305
Sb 12.188252441601414 11.6389105464871 18.36244112342858
Sb 13.53422838118512 16.278597830930575 17.292457700437822
Sb 16.93364548089718 14.80843356454689 19.730605113672496
Sb 12.85685938476235 19.140542229602094 17.720936712604853
Sb 16.543943560732632 12.947779002330252 21.913031953602324
Sb 13.87183504593528 12.497976377767563 22.3845453653674
Sb 10.507160614182078 13.530222495046475 19.67349153797093
Sb 17.208822726718044 18.643302823666147 18.335819679701835
Sb 15.188367966530725 17.04623654928694 19.802966988359977
Sb 13.041660684756254 14.515913222366944 20.68718218229837
