49
Energy = -190.49381366 eV
Sb 15.746132409260154 14.115021218339187 9.809253937701392
Sb 15.43544640419818 18.667877708989877 8.707123394786283
Sb 17.34325713807117 16.462015006262053 9.187522953997306
Sb 13.129962094863172 18.0209427103429 10.295479329472977
Sb 20.22615473939603 15.895047902047903 12.033116292806291
Sb 14.382422727456271 15.8464041134335 11.681823213886046
Sb 17.175828023937036 19.730592111906397 10.79285691968292
Sb 16.911603745098834 12.978044089061996 12.262290938539968
Sb 17.000455146612982 17.111946852043317 12.004077381935216
Sb 20.17329450647008 18.62085509030879 13.025377841458463
Sb 22.400181545533304 14.355244110484119 13.345682702962597
Sb 18.42175139820086 14.816984923439952 14.010479895812955
Sb 14.13363295981212 18.78150471774118 12.967249993891366
Sb 13.656463314367958 10.965223321914532 14.613724994437224
Sb 12.023914758959235 14.451690341888783 13.94496135905324
Sb 15.432930966676363 21.26276036461356 12.521895533772158
Sb 14.891914818823683 13.615895315659126 14.34359466485718
Sb 22.789517091332865 18.587029867023606 14.186771103004796
Sb 18.270686865685814 18.261929474389255 15.233261866781966
Sb 23.1587753539787 16.096257654769843 15.471079397775986
Sb 11.328645719081118 12.269709480755516 15.747547021456333
Sb 12.034219534666164 19.397217656830907 14.79570646367995
Sb 11.974699197347736 16.651879227379865 15.884659935141624
Sb 20.55028002895693 13.177643833266718 15.20673627550842
Sb 16.64661080752144 20.750554890513662 15.130537054851217
Sb 14.85009114525828 16.825282946905535 16.295286982774627
Sb 22.40050877815039 20.0873961203715 16.607845073223295
Sb 14.31716804523163 19.672308320051094 16.61881381545902
Sb 21.171972577108164 15.26652482841741 17.46308235569879
Sb 19.609491905267983 19.881965207565337 17.268033935905354
Sb 18.285355284022373 15.630277421695821 17.579616311964013
Sb 12.67622434873332 13.584493649582688 17.939132447401622
Sb 16.01744806495224 11.47376492318956 16.186254205313553
Sb 10.408996507307462 15.162841242367259 18.76226804198345
Sb 21.50276607351439 18.115393510900997 18.529513988241067
Sb 15.5622526497866 12.24373551735645 18.79012652898626
Sb 18.332871242632926 13.000359211597084 18.902178140379103
Sb 14.8159611561748 15.981897833447988 19.120689625061306
Sb 12.318091578586444 17.193378838956008 20.0262459325505
Sb 11.168202979776025 12.93417141519446 20.327825094836363
Sb 16.32031411256358 18.37467993533016 19.8102885147003
Sb 18.742015946804678 16.854598431482305 20.183428109549364
Sb 15.27645465249507 14.163672487592647 22.44523424480819
Sb 17.98983617210913 14.345989853594288 21.428854685589478
Sb 12.516276632878578 15.066085592676218 21.983508117942986
Sb 13.007161730050061 18.810143854304698 22.661173354400447
Sb 15.870277910327104 18.817975008083458 22.611287200210562
Sb 15.956014464935532 16.342679547893002 24.163280117549082
Sb 13.083177928281517 16.717825501293376 -0.4653752469729248
