48
Energy = -187.19768251 eV
Sb 15.725381193188385 15.203174380845265 9.29439135617766
Sb 15.348756738096753 12.677752383833772 10.30937274892785
Sb 9.981087517405902 11.942904168261263 11.65170629770346
Sb 18.029132664163118 11.55900970508779 10.353696937569254
Sb 18.409243992379352 15.979805028183176 9.796184573684569
Sb 19.80526990901759 13.757740910282322 10.967404761180639
Sb 16.085706797901537 19.17046890464717 11.174092205361108
Sb 10.024931721497344 10.470542625514346 14.141637754907856
Sb 17.338804876986384 21.06734355028634 12.988936933733182
Sb 19.577651071942412 19.219190748018253 12.818548803491304
Sb 8.877835927181051 14.22445179801201 13.110947190033114
Sb 16.008732281692073 12.694270655541766 13.216172338822107
Sb 12.217973940574346 12.2293619057683 13.488130414583313
Sb 17.62645364814178 10.290025457373487 12.973191283096028
Sb 13.2905246669749 19.39811864684011 11.9567798498108
Sb 14.245296383790821 10.116613202729479 13.256756567914183
Sb 8.151640943474757 12.402548752324593 15.230740738350114
Sb 17.663859237850797 17.053861824071937 12.368109740727379
Sb 19.09812290528777 13.97592625277615 13.811481827911122
Sb 15.834840085895804 19.641113158386776 14.951835103055167
Sb 11.104962585840081 15.040388573339714 14.889878974496208
Sb 20.081239877031955 17.551784434597405 15.132898592862182
Sb 13.446722075490017 21.127685853058228 14.247156921765514
Sb 20.15301275400593 11.32703217931687 13.970260186065605
Sb 14.57578538301721 13.733986080103914 15.699333584742698
Sb 9.055294726747011 16.182684636987098 16.65112720967957
Sb 21.152682341385162 14.106670887457659 16.040610619678034
Sb 13.438351308755305 17.469642424535536 16.54398727804559
Sb 19.772907704166297 11.704836705003375 16.79729568196308
Sb 10.093410765928207 13.530032304795146 17.145288441557994
Sb 20.50974251174728 18.19448635097746 17.917097512431404
Sb 17.535323687192452 16.321580639569827 15.970986374668826
Sb 14.795178414347804 9.461260782751966 15.980135150458064
Sb 10.918740751441089 17.976181061664725 17.96117645190809
Sb 11.899123945822142 18.658796902418615 14.395726298131232
Sb 19.51530394681862 15.414576496049929 18.007130141708213
Sb 16.685514106665376 11.80767554569838 16.593481959905652
Sb 16.43136953107821 20.85572776539739 17.523595548794482
Sb 12.949955099341361 11.50490133636123 16.81092668246002
Sb 17.643513673499818 18.34129822584151 18.168203556773655
Sb 12.953361597704458 14.645646131661044 18.577776393445124
Sb 13.749092729810274 19.965766535777583 18.050402945443984
Sb 13.550972478270939 11.9617226187717 19.621412100912018
Sb 11.908816492981098 16.69830043089118 20.365228418580823
Sb 15.798834386252084 15.148348291227899 18.528422489760057
Sb 16.413980782635154 12.452415708637492 19.426571808339833
Sb 16.528907205681914 17.155969910551985 20.576513711489703
Sb 14.066479391624412 18.656203886496105 20.61708429561771
