49
Energy = -191.36738393 eV
Sb 15.70849846073159 15.135800226615686 10.127632301882011
Sb 12.47458741305084 14.81270814574982 11.05479097067199
Sb 9.809134272656 13.297293951479832 11.871269258609704
Sb 17.868937050328295 17.035622821348078 10.208758800505354
Sb 17.121480541845617 12.581474509968986 10.146448825751293
Sb 11.375871644831044 17.11191361771184 12.33542513144591
Sb 8.691438746142504 15.836545435427674 12.657322605258077
Sb 19.248403161443765 12.91671680470767 12.081843253043441
Sb 14.888214586007052 11.687690633649414 11.814103402997793
Sb 17.117147364200772 19.037486321364746 12.17039616370657
Sb 20.04937899529527 15.623140313223377 11.489834874469517
Sb 14.276393482508162 18.938442195963333 11.649878581855708
Sb 7.409176137948818 11.635984800036393 12.287298772073369
Sb 11.264890459673362 12.81879945721333 14.26925902264012
Sb 11.164591301927782 9.948630629966425 14.38336924198452
Sb 15.37561911049594 17.540531653076524 13.917804977743856
Sb 21.698795485120783 18.51996292891443 13.996410985814661
Sb 22.330732683617978 15.862322087463465 14.81777794274863
Sb 14.745643669748326 14.433004858272835 12.78319468870078
Sb 12.106976633706918 16.26341113740689 15.040459881439956
Sb 9.248830055149678 16.13191321286771 15.445474035008449
Sb 19.57324386989408 16.554567527653123 14.178991576853242
Sb 16.555806711116187 10.698959988085898 13.941666427062392
Sb 17.62014443624957 13.342340336389473 14.454107709561022
Sb 8.319836208325398 9.490747120167164 13.937433856932088
Sb 22.15975477181421 15.805761957509873 17.68629511785149
Sb 10.476009804847155 10.429152842734466 17.10319813143416
Sb 14.36919251612776 20.029946822853006 15.005363097764803
Sb 18.369197589608547 18.815777975991836 16.60628351329222
Sb 21.012938846641557 20.029418337119942 16.352326776635234
Sb 7.024253249613449 11.785824760807717 15.09482116330466
Sb 9.263394733209607 13.191100823696877 16.307835923315515
Sb 19.03174777374618 12.44710283567791 16.85026123817868
Sb 12.180450780661923 18.824989954668727 16.480357370995307
Sb 14.820441757702179 13.589429429237796 16.232170283760627
Sb 19.309630041687363 15.351602229058493 17.51386677068188
Sb 16.3266152175062 20.891889377078318 17.069266540511684
Sb 21.806048760185735 18.476561728121816 18.619551789305927
Sb 16.176255185014206 16.137662320573835 16.845729769543535
Sb 15.110349180649196 9.976644665607346 16.380516472677193
Sb 13.014685754856625 11.024861419488396 18.222829363855805
Sb 12.535792911026913 13.938537938531052 17.992263698969186
Sb 16.435546034296355 11.95346855331239 18.09706233828115
Sb 18.78958033370011 18.867588558976696 19.444039325275423
Sb 14.14216770266102 17.661105162194495 18.273742124824988
Sb 18.82701893006044 16.09739107180076 20.292134476549027
Sb 16.326095610054743 14.898201032895086 19.48423010789753
Sb 15.63606190419438 19.706175497116345 19.541796492112137
Sb 13.575969782993896 15.576765645098739 20.206076479097185
