48
Energy = -186.16901209 eV
Sb 14.98597383788859 14.755502511010315 9.398994766064604
Sb 17.792311544310067 15.312834600014394 10.126256157030102
Sb 8.574469302202205 16.05976196598735 9.390411753254106
Sb 16.21349837849037 18.93315523646317 11.027828988176084
Sb 18.685186776302277 18.151289774094536 9.734433911132774
Sb 11.391672404633429 15.431073946497213 10.180978704154885
Sb 15.102476040059631 12.738792236108967 11.569219519976523
Sb 8.719210191665551 18.396469958507684 11.074661492968085
Sb 10.333298078518027 14.859060213454907 12.80221494206342
Sb 17.7110864943199 13.477115379799036 13.00217391679203
Sb 11.630790121786553 18.134369002134626 11.274223740665663
Sb 16.366121369619062 11.007741714770406 14.702152022385814
Sb 20.43339256465932 17.610534714558547 11.959405687423502
Sb 19.09873362488964 11.025165166461406 13.305386311367654
Sb 20.35044716401143 14.698287644538034 12.434169336160828
Sb 12.89588645754964 11.374806847534057 13.385357019812728
Sb 7.697817810222045 15.922272246506466 12.114290828624597
Sb 14.226212941772282 10.022065422891849 16.664042421037536
Sb 16.811201568219847 16.577604358195497 12.55698294620539
Sb 10.119877970993048 12.1663918375616 13.80094541637751
Sb 16.895054697158518 20.517788666624174 13.350920320355943
Sb 19.65549149497818 19.759168064647906 13.737899232748768
Sb 14.156116943530387 15.406271785678072 12.093834145164083
Sb 11.139737642398376 18.359221990874165 14.148260029454667
Sb 18.575449204828885 16.01763054729644 16.038793292456464
Sb 19.724152389369994 18.657160611520112 16.417524102475358
Sb 12.258844768716058 15.828711628918642 15.017762229030522
Sb 13.75428458386885 12.749973641001345 15.746440169374301
Sb 13.2063830669104 19.710892809583935 15.72819874274809
Sb 20.19763280537933 12.146334680635993 15.761791505828702
Sb 15.16444176146777 15.935001884809177 17.45658070395208
Sb 15.733564985524126 18.487915808317833 15.063564175571349
Sb 10.911459597515185 13.451837909757613 16.270977943574746
Sb 17.515195093976512 12.823743995267323 16.620933048724982
Sb 21.095978791815998 14.88003270897487 15.227903901197205
Sb 12.652886904720278 17.43498875365845 17.513019131772904
Sb 17.157568220185624 19.6716697317911 17.288784716157775
Sb 15.60976796377727 10.023053698504302 19.21604813617312
Sb 18.21178157967341 11.26354950631335 18.937435881356123
Sb 13.105281002919895 14.824769993259851 19.210387277245342
Sb 12.494769814415275 11.817609441653401 22.41467877102226
Sb 16.644302329643907 17.588696684592364 19.31886848753062
Sb 12.42916243212819 14.350474844795539 23.31961135891197
Sb 14.363666659815076 12.359261132814595 20.313781682164528
Sb 19.07440224821629 16.07756223895825 18.921193501847863
Sb 18.59576926491272 13.679881024953866 20.53612724390541
Sb 14.298904467690987 15.836503404676606 21.653350365508487
Sb 16.171156103286307 13.618869493967747 22.104071483009434
