40
Energy = -155.75013522 eV
Sb 15.752193727488335 14.574564448065697 10.912609268790375
Sb 13.964135123919784 17.580167276839266 10.658515571268142
Sb 11.75487575888303 15.772568273601852 10.279612820499707
Sb 13.256492510416626 13.232258139268968 10.14993119381689
Sb 17.309542698937022 17.557878858790104 11.70493277988606
Sb 18.09324417131168 12.876070342464711 11.3118836817838
Sb 19.37933114995723 19.048181580958396 13.046088376893398
Sb 21.011969676543448 16.624040387961685 12.782610440183545
Sb 15.320007099263172 13.948400353253483 13.758382238989924
Sb 12.9079438091969 12.443881459553236 12.905284984184435
Sb 14.921940973863684 17.519646671247852 13.393409894399127
Sb 10.383795658081176 15.908014024088985 12.800971062077975
Sb 13.117046632270213 19.63600065550216 12.475947395966998
Sb 18.544177837849247 15.114387681734009 13.278377650292644
Sb 17.02658061319203 11.524469323844 13.66716816498384
Sb 12.43282907162066 15.278761744570323 14.760550159660879
Sb 14.518268596717087 10.084617846273954 13.153426652584669
Sb 18.53644287518927 17.656261127320168 15.40677097062855
Sb 10.654226779562098 18.66373868473633 13.652796105468733
Sb 16.530109811473626 19.12354396687334 16.884803968921094
Sb 14.266631021013492 10.051927920968023 16.04769929312511
Sb 22.40147361676318 16.635100536718838 15.331995761987738
Sb 14.320996619883669 12.862171412109623 17.035272746904592
Sb 15.36568678692494 16.475062436971605 16.87052861276309
Sb 10.436863267439396 13.260120522972922 15.334083337247254
Sb 11.930265980776142 17.754839208160234 16.167883725702854
Sb 17.62328944680136 14.729892136647333 17.712250461213134
Sb 19.133543100354686 13.330638528599447 15.671741813555542
Sb 17.567228855715626 18.549086819880912 19.56310034742411
Sb 11.890111878450245 11.365003794693168 17.039050643515374
Sb 14.759765215566333 12.329149777062137 19.907413695800383
Sb 20.73393363824236 18.18820723126586 17.112017435274822
Sb 21.799676776274715 13.890888487355275 15.219037756630673
Sb 12.172628183507003 15.074872493151215 18.660559822401353
Sb 15.003473016890036 17.151226248644626 19.649468306108137
Sb 9.552809972250895 14.151091397441565 17.967530084117854
Sb 15.482566383877693 14.770280861074777 21.2384858293669
Sb 10.007987192509669 16.981253778246597 18.228254383875647
Sb 19.475312242725433 16.436293101533543 19.057528401841545
Sb 12.71014195661752 13.894980187874436 21.25156388818318
