44
Energy = -171.36307459 eV
Sb 8.943685992133336 15.43353856135611 12.95917207395021
Sb 12.030685530957031 17.411569984784418 16.07458419530718
Sb 14.59051352104495 16.91488691103987 10.006219088449171
Sb 10.863813001068046 16.863727276569982 10.687284104376019
Sb 15.923562389776821 18.02454710062956 14.181538562245581
Sb 16.83996452553302 16.615376514968354 11.841289591641853
Sb 11.642266631731726 15.761124913625995 8.111774014902494
Sb 12.98417745270357 18.618288255592404 11.709935407457824
Sb 6.966128258146272 13.642860848347187 14.023605763446223
Sb 7.572530435473888 15.032075574378451 10.4210295203216
Sb 15.065192047224924 14.31957775188038 6.494458608268195
Sb 10.142269418497266 15.198228660858465 16.2097146342845
Sb 13.918692074499651 15.92136302654468 17.68651077478736
Sb 16.422744743485516 13.649276341889001 8.938630206511357
Sb 11.33651182563486 13.046220055301605 14.64791109788983
Sb 7.053133693933915 12.29808076659705 11.355830429698187
Sb 12.794609753399676 14.676583775505192 10.53772554132443
Sb 17.61175018949761 15.967762813067443 15.477669029166867
Sb 9.142818996114556 14.239443401418377 8.088033936839182
Sb 14.85562349061785 11.68215880292739 7.586394979585512
Sb 16.700100121106548 14.168177813971255 13.372651048289452
Sb 8.475595189023974 9.589877698223377 14.000052706892951
Sb 15.501050614754279 14.105036797454904 16.04841301037672
Sb 8.742340789851271 9.991789228579881 9.835475009810425
Sb 8.795839740829056 11.992144725267913 15.588678134866454
Sb 9.920999848437908 12.635282205496088 11.74840398109536
Sb 11.781648432853629 14.065325028644272 18.399072214764743
Sb 13.45932826309928 16.57971831008182 13.724377082303887
Sb 14.660485533789291 11.450848857667458 12.433786897455088
Sb 17.33093394558679 12.57459291554504 6.443421961254327
Sb 14.380491052975389 9.087533606146525 10.732262512811017
Sb 12.939488783723311 8.736542727437334 14.500130164419469
Sb 12.860806911662568 11.855312007878984 16.850911301256474
Sb 10.663279243843554 11.940432236794935 9.017373185494119
Sb 17.486348624529423 11.473548796802078 11.76269099082478
Sb 10.607737858053952 9.74847403931045 12.016433454718001
Sb 9.339296816765215 8.31110944423061 16.441147304472793
Sb 11.344931436978126 9.690274083589093 18.06047550650266
Sb 16.59632351338009 10.5605805366119 14.361712982628912
Sb 14.461930796453846 7.0153776204403755 12.76627222436716
Sb 17.249022791481924 8.715715998965939 10.612327786658666
Sb 11.329029555958364 6.5313412648062785 15.38473101148598
Sb 13.289839107598892 7.71265667638182 17.17522053769821
Sb 17.15353355187725 7.87220700541669 13.36308045667458
