40
Energy = -155.48972643 eV
Sb 14.848953071464681 18.283810587558868 9.146197490574666
Sb 17.257994977336036 14.835726946702497 9.792548080607759
Sb 11.397238467307751 17.5289860771249 8.970085844661075
Sb 17.209004681927887 18.583323736856567 10.437534115888528
Sb 18.361155874518893 12.370439054400071 10.847548056260987
Sb 14.605229834985485 14.045011147371511 8.991531635149693
Sb 13.798711388951538 11.869552681727633 10.708288455692568
Sb 16.25044051279728 10.375547115167901 10.986046907917654
Sb 8.954271164209878 17.882370150596014 10.50445431653874
Sb 13.496425462329046 16.201581768551744 10.629441802183743
Sb 11.256761779822714 19.512753655617054 11.039512424454283
Sb 17.38178307194588 13.39927006251156 13.31289208458211
Sb 16.591430558248348 16.448890447590834 12.206747283504454
Sb 10.847746484557106 17.048990826376816 12.524458947064742
Sb 11.39579753203659 11.60770639656055 14.149883311528304
Sb 18.920758511196667 15.75199686886057 13.860478119880547
Sb 14.039885871942893 12.735752391226727 13.472769803538066
Sb 11.070087309096982 14.310630913951732 15.189521776239262
Sb 15.482228843430018 10.235469337939499 13.833505462486787
Sb 13.014530891588464 20.287658762547377 15.158429463985975
Sb 12.392806408645315 10.867765705571179 16.75929618188449
Sb 17.909544034814605 11.29154928755459 15.140846203453025
Sb 14.718551473063036 16.29607104029187 15.186112283948917
Sb 15.602962396624434 19.072402088612062 14.746783765344519
Sb 11.766571815071012 17.685062292983737 15.218135103400051
Sb 8.88429672839152 13.806328064544381 16.918745332826436
Sb 17.40286936657054 15.890270186336702 16.34503722947422
Sb 19.876071654330293 10.213934600650653 18.18611901225438
Sb 10.116229441719266 11.626777943999391 18.40612281575153
Sb 17.07814478093592 13.129914176988644 17.23762309296224
Sb 13.276672409869622 13.641098133625349 16.980959566691627
Sb 14.75178052984848 19.76535594628068 17.419724976413423
Sb 19.9609453181827 13.024251917621962 17.47359719904171
Sb 14.132879918528404 16.97960353959867 18.01506167932023
Sb 21.708677980040008 10.737940177096556 20.390747916616803
Sb 11.965201580266358 13.550179523165811 19.570387471273786
Sb 9.881340625808482 15.457822591096948 19.08239281202264
Sb 11.346277021435451 17.78715937214828 18.069990514334574
Sb 18.900647507978643 10.75650218339649 20.857342762255936
Sb 20.285090055316488 13.242539636330388 20.371096035123642
