44
Energy = -170.81728216 eV
Sb 16.7364676853421 10.52072744942096 16.03020968465051
Sb 16.07046088286426 8.837563924612349 12.499778346759438
Sb 13.252125307480574 10.16353031069722 12.725832760182008
Sb 17.857824976904787 11.092640390284567 12.927740293101953
Sb 16.149433727875607 9.965575033338952 18.836107367890936
Sb 16.38112741019977 9.24108833878355 9.71378669203025
Sb 13.813035688876152 9.95051962287043 15.93801756347121
Sb 13.366693952473227 9.216182999542346 10.00311118146103
Sb 16.254849047900237 13.302365965052607 16.517207757955955
Sb 10.911309145503335 8.275738995884586 12.872571304960184
Sb 17.268432310548228 11.976997683176341 10.179850579610907
Sb 15.569348528892174 12.755586014788006 12.396415141817688
Sb 13.332213880192816 10.908627672803602 18.839021592730823
Sb 17.30268600067918 15.07660850343578 12.061529442629743
Sb 15.726115543754224 12.718474908048629 19.278105546738495
Sb 12.619937665509788 11.557783145151422 8.375639305589248
Sb 10.523592027593082 10.866830194606765 16.650715963242895
Sb 15.218793219373003 12.192852120735436 7.26837433785041
Sb 10.386953509655218 8.46607619509936 10.080588752674807
Sb 13.212608429341728 12.65677789731212 16.512419365941923
Sb 8.545837481827732 9.962074480291575 12.981980827919777
Sb 13.235841645032213 13.730460677129704 10.101553835653176
Sb 15.7231301879327 15.00225370901109 7.957903538592569
Sb 15.583161769719725 17.11637606943446 10.961749593588923
Sb 17.343904485886085 16.293844524658144 14.671746370434208
Sb 11.334130358198522 14.47458600158015 19.73756904989189
Sb 9.372636438318015 12.93600020637781 18.315347189873403
Sb 14.631134671295802 14.309449627334862 5.3695154721641645
Sb 14.655542824191636 16.476551411490682 15.691464194740398
Sb 9.182243533097644 11.083994941557687 10.377569445146134
Sb 11.145717528397709 14.894667764910547 8.581479440623871
Sb 9.5197897994766 12.274234573285682 14.428897554521487
Sb 8.51115914878063 15.112058267686917 16.671073951115304
Sb 12.444614549100304 14.9875901971788 14.038674230079115
Sb 13.234602209950346 16.19492408906024 7.038476348146766
Sb 11.137082971082984 12.607256269305628 11.901343404526626
Sb 16.844812170278683 18.719247498228086 13.076636407360459
Sb 10.674255711395764 17.058194104510754 10.496590528396503
Sb 9.364655430786312 16.512492651113536 19.15679777048668
Sb 14.319880626516811 19.02531735377785 14.471939780503305
Sb 12.125618787806793 16.76310736689408 18.20587912522394
Sb 9.75649106765042 15.192220348207242 12.387323305246424
Sb 13.020274067739875 17.29168765834616 12.376173175533506
Sb 10.7420373688218 16.641426617228475 15.697856253185648
