42
Energy = -163.91516342 eV
Sb 16.571655971505283 18.361905715801537 8.010512896303155
Sb 15.819758745692909 10.952170975343321 10.47411435067285
Sb 14.78303264558189 17.418147772097086 10.040973087779655
Sb 13.060313529814637 10.172694365897812 11.044467616298624
Sb 17.312814898653823 16.135789065187645 9.677554852445581
Sb 12.540975799225835 12.987068685065104 10.972258580629596
Sb 17.176077166951643 18.776900386172667 10.796490913499069
Sb 14.27998289655599 21.12923750116504 12.306856278861813
Sb 16.795210023282543 11.382015078605166 13.146647392168436
Sb 15.279552198558216 13.498675620166269 11.910579382442092
Sb 12.829016294507198 9.540071304988471 13.857085247204596
Sb 10.524466394267733 13.250644778562714 13.02264703829967
Sb 16.7023718878946 21.75318210069856 13.684865481713866
Sb 18.366957007925496 15.329339962735865 13.325316233034345
Sb 20.69305184190167 16.822211846480158 14.39993483148792
Sb 14.284801642683322 23.09900810284015 14.397713933482075
Sb 16.767303641793475 17.584769594996025 14.380458640807214
Sb 19.037670218050607 18.979103197270913 15.558044608477353
Sb 15.56948425112595 9.287410226213959 14.665343084514772
Sb 19.18240842021617 13.109790636657607 15.063770585159611
Sb 20.989384534431604 14.9143011957401 16.55830833809388
Sb 11.678358385514931 15.730156174428691 14.02991527480028
Sb 14.602015022219343 20.303959598755878 15.024308177273653
Sb 13.94254304979929 14.10410364826667 14.828353658429949
Sb 16.14355238577253 10.263339475479011 17.38171081139259
Sb 12.001561643111929 11.963582589166064 15.159500495304714
Sb 16.759862413576855 13.012753797666088 16.73138409035934
Sb 15.413680072473339 16.53939609100475 16.75455140916673
Sb 10.465862997302033 16.260976964586387 16.62000434547417
Sb 19.011836962819206 18.519916256466313 18.43117476070402
Sb 13.524260089677954 11.172085641762905 18.22194094359558
Sb 18.513393333806953 15.843144684511932 17.568846451038667
Sb 10.859418927161975 13.717450123405468 17.927231506078446
Sb 13.707476067424855 14.033429501240795 17.743787322447357
Sb 16.127254169076988 18.76532908570579 18.482919257850817
Sb 18.215086499591973 13.489902761867151 19.22702870670281
Sb 12.763202760719414 17.884114625231664 17.249835849563908
Sb 16.2011744206825 14.430776038111869 21.074831427937816
Sb 11.726341596777097 14.54255891734423 20.629301921312663
Sb 13.928820434229529 12.631011224017248 20.85339448355588
Sb 12.622106677418898 17.265073001106515 20.08228455720303
Sb 15.393169851277026 17.209769458244274 20.851018947486953
