41
Energy = -159.05279127 eV
Sb 16.051307635407277 14.812371926748062 9.04417867070708
Sb 14.292414855059667 16.091782973171483 10.959239467092848
Sb 18.176938006204637 16.323917362794273 10.318612917003707
Sb 8.456378189265221 14.392895554202173 12.555079624121948
Sb 11.492682593662243 16.100611496044067 10.314901619213783
Sb 15.05047596258114 12.784496703073826 10.893237135310741
Sb 15.858597141027515 9.965934151348613 10.747541318879492
Sb 14.70171720340556 18.739804935145543 9.952744395760524
Sb 10.93310336164421 13.627500099160999 11.685767233421442
Sb 19.298882085420043 14.362429343098972 12.053695686106934
Sb 17.199005118172604 18.681218465024646 11.764677559148051
Sb 17.957795458377344 10.447341758461668 12.671172648849256
Sb 11.466067707389334 17.6435549364606 12.750777524514552
Sb 15.157808763839448 18.980720693768653 13.795268318934772
Sb 16.916706436030864 13.119120664174526 13.062911918757944
Sb 13.02321880139219 19.93491182212738 11.885130230068247
Sb 13.542188362599198 9.73791131906111 12.475993649003643
Sb 7.979465563610187 12.214158490397068 14.372912157246745
Sb 18.95096071654506 18.161815133436818 14.285787009849864
Sb 13.703652724413228 16.445844130874182 14.39643757903638
Sb 10.619248401997499 11.035542260886844 14.08722529153283
Sb 19.66543850928932 15.4125392730939 14.76479051506098
Sb 14.46068709739989 11.45531712429035 14.685083435443934
Sb 16.697978541120925 9.606066718011515 15.129571931232602
Sb 17.184909898156384 19.470935894969628 16.03319432373136
Sb 14.52002781458342 7.84646038634173 14.411472191872994
Sb 9.149376695575354 14.30900438787488 16.002707038901896
Sb 11.605851077557295 17.416031983081314 16.251985349242016
Sb 11.742443974608344 13.621522409928613 14.954778266397724
Sb 17.228543663141505 14.520187124744087 16.108870395707367
Sb 10.661198273488223 10.144638059103016 16.840531823759484
Sb 15.605912890074247 17.293400102379792 17.102055034294807
Sb 17.505340737614798 11.985502339912573 17.610422573400662
Sb 18.449915994820394 14.520110497375924 18.729810517933913
Sb 13.575864931609043 9.746440390119286 16.866349880385282
Sb 11.029444065262478 12.817665388643373 17.773937524779043
Sb 13.27075658633449 18.596613586860713 18.289109018130635
Sb 12.075643127362229 15.999814117347203 18.763616170321153
Sb 15.997976981586449 15.78566852742273 19.570323863177343
Sb 14.276112114282164 14.423162334198668 17.630719418743407
Sb 14.842569401389472 11.799642598140395 18.78198623622335
