47
Energy = -182.80791113 eV
Sb 15.574919117562095 15.213290567048485 9.841888603535338
Sb 17.466780725510546 19.810334066702826 9.925581392466745
Sb 18.447762482988683 15.726428119650365 9.643312504409831
Sb 13.661745148591223 18.952701100597324 11.27939769729718
Sb 15.183568552584774 16.423246039685292 12.468292972579174
Sb 15.43283049335469 21.184087306135773 11.430954027310833
Sb 15.846592984461102 12.400393057196833 10.24746246824262
Sb 17.682733090406035 12.345709262848136 12.441186132282255
Sb 19.868885917637506 13.73941943802783 11.214129514049352
Sb 18.09407152032047 17.688476878283137 11.743540322932226
Sb 19.88058191559773 19.950144558596936 11.455289562288005
Sb 12.990734934993727 15.233858019292828 14.106016713667358
Sb 12.666727416204704 19.558464453853418 13.814853369494552
Sb 13.544123105801397 11.304884615183285 11.672804107551125
Sb 11.592392950381521 13.081591858071642 12.799146991061946
Sb 19.638942601666432 15.194000478723929 13.773243287378271
Sb 16.81188107568755 14.5103710508732 14.152896423963703
Sb 10.913143215530999 17.319135552838453 13.761405463389647
Sb 16.198190106102444 21.244782609821698 14.205195491992006
Sb 19.052939002737638 20.76281972565427 14.123417588873341
Sb 14.46045136454981 8.852224409421655 15.912739887998757
Sb 17.00685290672798 9.82289868812488 14.8751278555721
Sb 15.343660141603275 18.585049494507253 15.042680343974409
Sb 14.551394531456795 11.296273379982782 14.373491783426143
Sb 11.4594349023622 12.761854374119176 15.877426890624204
Sb 20.27320069472069 13.40600024742356 16.002680797869743
Sb 18.483964856907317 15.304934850211747 17.40510312625304
Sb 18.429784695762272 18.1916653869987 15.289631342865809
Sb 10.285712841444266 18.241947535406307 16.460997843137147
Sb 17.616468502137057 12.172439600449888 16.56644993423743
Sb 11.360518855959002 10.983488007523766 18.426530013980134
Sb 10.1052207109935 15.42597395765631 17.289678163366283
Sb 14.215345294552225 10.576192395711159 18.216496616563305
Sb 15.198363292609566 19.39126190778319 17.87194499781227
Sb 14.246693761020815 13.217891331583425 16.77864923911409
Sb 15.8944383905025 16.70321861048906 18.83190663052021
Sb 12.642972102502991 16.874272049929942 17.31296575275016
Sb 18.8854745386157 14.002537674783067 20.028045738036216
Sb 18.11541412884029 19.72768706574289 17.70529559487961
Sb 16.126283072222414 13.329521460016723 19.54994743659266
Sb 18.642285722201194 17.45680514629591 19.44604700450489
Sb 18.194377583311322 11.295505522972647 19.302846081503425
Sb 12.427466783818732 13.477746424105561 19.407576372503772
Sb 10.320646792796744 15.246448186911536 20.25858634557081
Sb 12.089051958480233 17.495558948861245 20.12248025943055
Sb 14.493813613375709 16.501938740593303 21.41643260971671
Sb 14.180556490065428 13.613920730969564 21.72762159009181
