43
Energy = -161.62187615 eV
Sb 1.3920564561403586 21.185433630027806 21.928039683346313
Sb 19.189947388628877 0.6784521196971853 16.50989351082958
Sb 0.7384735461859027 21.12738834889509 14.839411881260594
Sb 17.993119769080366 22.965335495717 18.52644688697714
Sb 17.940431349520047 19.169572866649116 2.952169215116983
Sb 18.468029173844364 16.70582115678493 1.4951749181134846
Sb 4.640965333618914 6.452404688599714 1.1929061628148219
Sb 13.850825180306003 3.381627244119544 19.057219932597825
Sb -0.9505983871091326 20.832048125537117 23.589748190125178
Sb 1.248325497449601 -1.5274408925790888 12.321375525038519
Sb 12.771349839485794 0.7163207818921399 18.772061301690602
Sb 19.845647968149038 18.257055603269258 4.9800345160198916
Sb 0.25259810758347534 0.9504865813359019 13.368033771846966
Sb 20.497875881792236 0.9463647965934043 21.598451695441323
Sb 2.9048047164327895 19.251463531763076 23.33147859940289
Sb 21.953754213642437 0.7202695136885215 19.126226851558386
Sb 15.995415609278552 17.9837244503745 4.662381994870873
Sb 21.145761958903343 17.538017712292746 0.7540013918109043
Sb 0.5315923802991823 18.59034099089826 0.8935855866424535
Sb 17.486153104895102 23.223329659835834 14.59843395456922
Sb 21.06775221912016 23.125442713374678 12.89545761499182
Sb 21.942917584036945 14.805122550107194 0.9403118780799524
Sb 15.853711077679506 22.167188391834134 16.725845031479267
Sb 21.016369861327757 22.342463814768895 20.481333442154128
Sb 5.150098436852962 15.856865654491548 7.312431152178716
Sb 3.12598991856794 17.118805778485463 5.995039029637659
Sb 17.186681675581745 1.530785027011236 19.579905878386935
Sb 14.32692732283645 0.59394318484465 16.368965217009837
Sb 17.920090737446387 16.31173499053942 5.924392880405531
Sb 0.8175164257879458 17.393607594001168 22.272394248706295
Sb 19.781475184902753 15.61165830862059 3.8183955886709584
Sb 16.083882072967793 2.708931554338111 17.204639960282456
Sb 20.973886525412617 17.094611441864433 21.88145109038017
Sb 4.26870144090413 18.175985119498673 8.438326428371157
Sb -1.174266910976852 20.85762597945373 12.665391699478858
Sb 23.210012858945785 -0.06198101434603566 21.607800579232883
Sb 22.84130248022556 14.9948599098818 22.229102378098723
Sb 0.13611061238439137 -0.2096637839521524 15.869253662458137
Sb -1.0559907665417578 19.360378503647286 21.120585020479094
Sb 5.542900707012929 8.246055052650789 2.6969969545806607
Sb 21.19998423003593 22.693010137598854 15.679894860536272
Sb 19.293075929001454 21.070841824342168 13.984670918606396
Sb 14.63788693566148 1.28338101066371 20.874374292537226
