46
Energy = -178.93129997 eV
Sb 17.268139079700333 9.867098497324198 15.026429985468635
Sb 18.233491378908276 13.755235246106862 14.627410031065095
Sb 16.327724940811706 12.0887226713017 13.439403384020244
Sb 16.830810205188655 13.585705334799272 17.44871044766253
Sb 13.655315055392887 8.304860670117499 17.5914236348395
Sb 18.394159099972075 16.04286864301297 12.831226560662062
Sb 16.248072053363114 7.641117139189741 13.505214553139306
Sb 17.512731313216122 14.144234185131424 10.798556291885081
Sb 16.137829795577115 16.183866142737838 18.46022044950468
Sb 13.188459441656935 11.073543484858819 18.18996524003498
Sb 15.872499843941249 13.06166494466252 7.79327409141917
Sb 14.324279931065178 9.24614149723464 14.9282560370457
Sb 15.137887200399838 8.61722264031931 11.002775459813304
Sb 12.07372976473302 7.294142666836066 14.054548346181772
Sb 14.636729043261491 13.984538706683958 19.58243140521059
Sb 12.661637814173215 7.062457959852491 11.200565166944445
Sb 15.854752690535136 17.448997972702458 12.696086845865095
Sb 14.632226658926383 15.639093299484259 14.588331676378473
Sb 11.004216996395956 9.427292243214483 17.218971956445802
Sb 14.880061603448638 15.357013488924721 10.909595247441956
Sb 13.390397286950154 12.731132528101325 9.434324022596991
Sb 14.45633192230346 12.70633493835379 15.999919121239104
Sb 16.52976606080961 15.780170931269504 8.59883680444036
Sb 13.617163146171682 13.264986089914098 5.989119453857573
Sb 13.794578150818952 17.00184025470272 16.956240591592017
Sb 12.626262841849782 10.7019375982731 7.49628707161113
Sb 12.595415130908192 14.463216275330629 17.620082455670428
Sb 11.498392735445437 9.54786761952725 10.272396111409725
Sb 12.040927981075448 15.722805489986115 13.245300572346848
Sb 10.62519868511492 9.624648193235064 14.339775884056708
Sb 11.412999374419073 12.940242878123387 13.863397465206033
Sb 12.3498585840378 15.021967582123347 7.79709239783246
Sb 8.772070825667615 13.217369691747646 15.033716792995865
Sb 13.495607767878079 10.832981638751942 11.898418485434627
Sb 10.42341651661198 17.130758317832797 15.160616194165938
Sb 9.827524666701818 14.239555146255354 6.6883480117851715
Sb 9.260908841663118 15.248516544200202 17.01645807495217
Sb 10.524632014080515 12.84354708923061 11.083243519425219
Sb 9.936998420036806 11.365282567096589 6.694511240509078
Sb 8.524156693511085 14.934271651862714 11.272948598573393
Sb 8.674410866536196 10.677755089770411 11.400706554613413
Sb 7.896304505916276 15.915098418112464 14.484799211466235
Sb 7.694243914169156 14.99105980935128 8.467649586222128
Sb 8.040654957842419 10.338914133586535 8.605750164246071
Sb 6.176607089915648 12.562538094641644 8.743482365927845
Sb 6.548573330924373 12.860131486844026 11.651763734438774
