41
Energy = -160.32824107 eV
Sb 11.49392376654516 14.81732151341961 9.014179991222685
Sb 16.78005879383905 17.105134976916244 9.16961171519471
Sb 16.340670445352877 12.79789136792647 9.645112708472947
Sb 12.309460101747822 17.573378158167312 9.48181715309964
Sb 18.181381579167493 14.910939509982617 10.43343612575144
Sb 11.33089203194027 18.41864596334573 12.037138174138082
Sb 9.644457392155475 14.35594306288158 11.163822933667044
Sb 12.319144969171749 10.928449709170499 10.640928958857616
Sb 13.632412489049244 13.506771347353668 10.478448109419265
Sb 17.148120940502317 15.464124053400216 13.07092905403926
Sb 18.22104356539431 19.052729531793446 10.633032028832496
Sb 16.796766136897205 10.827727368962506 11.71458370360447
Sb 10.796060358279645 15.944475860787923 13.27416548283186
Sb 14.491545265878703 18.883736174652476 12.889412945986809
Sb 10.90403392974529 12.253011890414587 12.78813663055548
Sb 19.524372816799698 12.440469346436727 14.618520293015605
Sb 14.584914931523134 16.70410902030459 10.998617693165095
Sb 17.504060780708205 18.355751113246573 13.23426065400323
Sb 14.231512288178596 9.542700654389167 12.3128121383377
Sb 13.118785388832016 14.211529834298398 13.237107812901579
Sb 19.413950034368906 15.311073735559658 14.905368902616159
Sb 17.34085939256119 9.816037540370399 15.685056068148324
Sb 16.642686660495926 12.225734223894113 14.23083698698788
Sb 9.312911797504198 15.2631094726179 16.699937237475247
Sb 13.068253787492319 10.142339124593294 14.918046746370017
Sb 14.175348166574446 17.10538353225891 15.19525769364403
Sb 10.68923300706506 12.788364010590868 16.45102264042252
Sb 19.13161225703432 11.399805592750262 17.316102339258585
Sb 14.8699709328613 9.063326863094243 16.94118926141519
Sb 13.593207902075058 12.804141432798621 16.113449936841036
Sb 16.551392416721345 17.788908371919824 16.746477046848423
Sb 17.020213646150598 14.926941656319984 16.448100317527363
Sb 12.86271191752795 18.733687762343987 17.243243341632947
Sb 18.121790823133477 13.705545174397528 18.78931317301566
Sb 10.60453391313039 17.267690896966155 18.35898825143248
Sb 13.824564631355164 11.241559948953492 18.54913546389948
Sb 14.815645919361245 17.665417340096106 19.09173425988747
Sb 9.753352076525777 13.521722689963246 19.053907287203078
Sb 13.920922871578735 14.976122388580219 18.493981536237126
Sb 11.682890503178612 15.360235730465517 20.22967855271937
Sb 15.550278920716433 13.097961602736763 20.003048198442222
