46
Energy = -178.54803056 eV
Sb 16.844786101381626 15.989030115027036 15.265348182484496
Sb 18.207559775294214 12.21460705180934 14.857418391185668
Sb 14.649474281720309 17.931438971506857 15.373157577755002
Sb 17.548252117131998 13.925428099256566 17.16052058366737
Sb 17.653389115692203 14.003110532481733 12.60200981603504
Sb 16.107896460589426 17.021320917622976 10.367158911977953
Sb 17.05065848956397 14.66080130087009 8.903694275177536
Sb 13.636297092437786 14.734344965043787 19.57851665042845
Sb 13.466357999713384 17.286898103361985 9.192028169044724
Sb 14.289494123360923 10.91971865095271 18.64679822071934
Sb 11.832301136654374 17.405189822763223 15.818147028202082
Sb 14.222279166608237 16.851152093692583 12.665082439989497
Sb 16.405185695607088 9.933388716017275 14.976736023665845
Sb 15.078019298467124 14.298046481486193 13.741837414404896
Sb 17.04706539940319 12.16407115787801 10.4238421531981
Sb 13.101976229644281 15.519084475475738 6.935816905259982
Sb 10.103979732472569 17.544844091168493 10.719936141570852
Sb 15.521835964986575 9.432552671365872 12.288538050669604
Sb 11.376660838502218 15.683141656320862 18.073998096310298
Sb 14.239262721548842 12.818147665265919 10.43938144252591
Sb 14.730035476952978 13.395216596576795 17.23938097655591
Sb 14.818026768144058 13.316650452985197 7.658422047465853
Sb 11.941089687590885 12.347312037285757 19.6640074174988
Sb 11.205373005370905 9.553464616249778 13.898379198381827
Sb 10.673702072361099 15.1872139300863 14.243104266796822
Sb 12.977890652004662 10.142174348923827 10.28980914358325
Sb 13.835125445271846 7.566894914285667 9.107735004937473
Sb 13.658853856149543 10.503320457768579 15.785245023620709
Sb 8.694610745867136 14.28976499054133 16.147596515689553
Sb 11.119565510947162 14.026920435807996 8.45239352981342
Sb 11.180018789211251 12.956355584164871 16.88294010615695
Sb 14.572122398964227 6.9959456059997045 13.373078785656693
Sb 12.05992432468536 15.397923753008785 10.904902121061406
Sb 8.462046848923857 16.47448760173784 12.879189669120693
Sb 10.015192048348794 12.442325880334447 11.918925427447618
Sb 11.719542777516219 10.79235043497547 7.667478188493994
Sb 12.720751753414357 7.747411227418507 15.50607825648822
Sb 12.806211698883235 6.135216456986802 11.281872009138377
Sb 8.795805869679683 15.756272231775412 8.811092736468547
Sb 8.06163158865527 12.232430762442691 14.123813334177889
Sb 9.449620082735434 10.414273471358912 15.829523944992083
Sb 8.95421031626011 10.296923666272678 8.076420754739136
Sb 10.693609948810781 8.334541418088238 10.949382250825487
Sb 7.838925100035139 14.211584177835554 11.098651027923268
Sb 10.978329530644698 7.944061601423317 8.054825131142904
Sb 8.390463055631976 10.318085730397037 10.808986293956641
