46
Energy = -180.03286802 eV
Sb 4.046422724660582 -0.8824538574101408 0.056531658340993385
Sb 4.7529563835912265 18.165989411969218 20.518268313741586
Sb 0.6461024807847107 15.937344790144259 0.14880180730119064
Sb -0.11720889022404911 17.965830800017496 -1.7286360553084763
Sb 0.3135361935174493 0.8985188239217385 20.72740900670836
Sb 18.52203088374242 1.7992270836557471 -3.3799558114297916
Sb 18.742494262600705 16.383729172557697 1.1559220011013531
Sb 4.739763550825808 16.6334030074815 16.43368614209258
Sb 3.1326414907369635 -0.4619146260126274 17.070546424300968
Sb 20.846049221878026 -1.5587263926929391 0.15278800072267523
Sb 18.65453522697769 17.308490403035783 -1.5880229866788609
Sb 3.297145616877958 15.658173704013882 20.592478021143712
Sb 5.058398932051326 19.121037306627134 17.84441908579565
Sb 1.5329380612354626 -0.4561633382267982 1.4549334988523794
Sb 15.7985572748415 2.571597218406051 17.762674064765047
Sb 3.0232861680683003 0.8557702605351455 19.61085631174221
Sb 19.48778317081127 13.586660624068424 1.001669144101135
Sb -0.4372993324089271 13.679773405260406 20.279890595506252
Sb 2.9300542631977424 14.936123840199365 17.847527611201325
Sb 18.520555491818968 20.0681614629108 15.1398399795175
Sb 18.471160721772197 20.528983324781276 17.991898250128965
Sb 12.286318649813662 17.617359946006342 18.32106027110202
Sb 12.199358972397365 -0.2568632600731802 16.918654848384573
Sb 14.665162079727269 -1.4858978023082219 15.937952539620918
Sb 12.513151017439258 -0.829750169213178 19.672588890586276
Sb 14.9138797808584 16.870511251341505 20.953669298013033
Sb 0.2956721927635695 18.222430538364723 15.244999053142342
Sb -0.6159572535149921 0.013345818801591912 14.894324178581611
Sb 15.71556287879014 -1.6970225039293019 18.606418821064164
Sb 12.933653585290468 15.147402050541018 19.750770988841484
Sb 19.388952831116516 15.020634630725782 18.449589657298592
Sb 0.41301950054428627 20.252564310616833 17.300592850804705
Sb 15.055957808209145 1.2838441117983834 15.2977713686354
Sb 17.633672692413256 0.9618392897743366 14.003622814060169
Sb 16.89856284101707 12.746283458095546 0.01640056242437445
Sb 17.05236459907092 13.366348262010334 18.812053957711953
Sb 15.42341528667155 15.704464988354777 18.38174020223085
Sb 0.6490271599933867 15.52921317663789 16.143477234961548
Sb 16.08134198208584 15.169389292436447 1.3518197383120123
Sb 15.012637492052415 0.7960080304580202 19.865843043618643
Sb -2.081757025553339 2.4467501616179073 15.607374116157128
Sb 2.671817656237914 16.876292783310497 14.416511890802093
Sb 9.603773383045482 17.27348022103065 17.386706137992295
Sb 9.515084126998135 20.923127926356614 19.38518442872848
Sb 9.568255827124464 20.094273008486606 16.61224243207211
Sb 9.997495147138537 18.16055715438989 20.10269668744637
