43
Energy = -166.45888015 eV
Sb 17.92045771253335 13.231969644550544 8.313144804065292
Sb 18.082558135068826 15.170879624147867 10.481040899437998
Sb 9.410241149905563 17.27815950759641 12.288840532880778
Sb 17.131037130941657 17.634572964529124 9.097481257266866
Sb 16.101228581721 18.678606940059538 11.532205555719367
Sb 14.621270322368789 16.45787213082001 8.334960759971468
Sb 15.033770354727356 13.568633020753534 8.448777355751037
Sb 11.963396249210964 18.53945933033548 11.798003003597463
Sb 14.058053944657635 16.65610914259223 11.219602338076102
Sb 20.097657017419056 13.340358631796386 11.748741493353647
Sb 17.88906249849425 11.625259245910543 10.814718253799947
Sb 9.379906939037774 14.513939777262262 11.481917153100218
Sb 12.107895231453757 13.923319422146566 12.132309086797273
Sb 15.759845528111164 13.62922640749795 11.271037155752866
Sb 17.98136939273819 16.87223144343272 13.30004001316825
Sb 12.28424154683064 15.193843234297923 14.748851076914127
Sb 11.524819607665409 11.340156716226028 13.33295848021311
Sb 20.2567298378784 14.80621636881544 14.14637253242838
Sb 8.037538297170546 14.077151662810227 14.030320805060281
Sb 12.383581033467111 18.116027772686405 14.660131035439347
Sb 17.68549440536748 10.536727302450117 14.32181531489374
Sb 9.273655671077053 11.695443328863488 15.063131531873509
Sb 16.63628968641163 13.033324833678158 15.44586254836332
Sb 15.601948839617375 15.412676389530564 14.06599993151112
Sb 9.600041697767931 16.20176414675134 15.206785477167564
Sb 13.714819602847175 11.776201443014838 15.169113907405812
Sb 15.401663766732021 9.439891940765829 15.806909139053763
Sb 19.059310283208607 10.971765054663456 16.85566365656282
Sb 19.091667956863166 13.93967996041415 16.643738910520053
Sb 14.846603159845767 19.099416272790442 15.881926448829596
Sb 16.89704750104661 17.05877125493343 16.030345902570588
Sb 16.32166327791148 11.239301582134628 17.87863231009427
Sb 13.232994457022539 15.142730700619078 17.862320132542756
Sb 10.338465022561822 15.335250828770791 18.089638264093786
Sb 10.115448942723651 12.483270766122693 17.721479716940866
Sb 12.8898087443925 11.836905882714452 17.85954335150739
Sb 13.299729029845633 18.104431692537528 18.073411195357053
Sb 17.525345236421366 16.57171550255254 22.18768088919633
Sb 17.917182524784117 17.24416770816464 19.394032551133584
Sb 16.606523524302926 13.983471315322403 21.603898142554574
Sb 16.545299189624373 14.762797395194156 18.806622097319334
Sb 14.212457567948304 15.474446878122107 20.696268560371383
Sb 15.336571518334358 18.176546949682464 20.328418545402343
