46
Energy = -177.62105377 eV
Sb 17.45426715240764 16.34424739874757 11.434398354424603
Sb 18.59897805807318 16.61698767962928 15.320724758393307
Sb 18.557229779337636 14.46499112368267 13.410800587762319
Sb 16.23929469777944 13.8159582781836 10.343336403812424
Sb 15.143268130403207 19.718438317952547 11.47336916895817
Sb 15.047340390437551 17.3384883227536 9.901247105718614
Sb 14.867407219154115 12.568123567486987 7.343987508698091
Sb 15.077725293919727 10.651701366011007 9.566586103631414
Sb 17.22864127327983 11.499499186447007 11.560499870404298
Sb 12.801765735746464 10.637381345539204 6.578671816993962
Sb 17.837253207904052 11.299007715637908 15.851639592855062
Sb 13.986662624982152 16.338813008187195 14.486983614864615
Sb 17.132991924928497 14.830035768736124 17.086957348699567
Sb 16.368764500688346 17.842680284311637 13.654971188332912
Sb 13.010263975093613 17.939392625424063 11.765756201844479
Sb 13.344966399077236 12.562955043556434 10.948582960595928
Sb 12.763333828211202 6.023162952441362 13.502919687371985
Sb 12.805488659853435 14.191448995710395 8.600767195329123
Sb 16.89354941331553 8.915085450114928 14.455146919651819
Sb 16.224197988153882 13.38014437201948 14.674343522807012
Sb 15.694432082805076 8.256546304458045 17.073822598473452
Sb 10.724003285869241 12.31542715430358 7.720439309976174
Sb 13.455167918798274 8.341326180365087 11.830011809999656
Sb 12.378705802056519 8.893288480328547 8.925745213988199
Sb 14.812512456168516 10.557484491316263 13.261451199535456
Sb 15.841944792587627 11.070124508929263 17.88705579351809
Sb 10.18248408355147 16.46552136433266 10.487003666769988
Sb 15.209941743114586 16.948403276055114 17.051951420508544
Sb 10.977625389360114 14.835990487520155 12.799437255630243
Sb 10.6899270236263 7.855758015608183 12.561282475680393
Sb 13.61471926754838 9.976489580061594 16.16291638985649
Sb 10.828946803800951 10.865631375577617 10.255673472968143
Sb 12.256422692745256 18.625162071130898 15.019478370800021
Sb 8.406604145433802 14.41982535028015 9.408556719868246
Sb 12.950298709369367 16.074622482931154 18.620082789967924
Sb 11.819425215283179 13.019150857150326 15.922666643030063
Sb 7.373873607787143 16.41596895574076 11.195386365541683
Sb 11.553516572886828 7.853673851631542 15.288925218221651
Sb 10.301235849437266 11.165698474887618 14.20311247419227
Sb 11.803725054420793 11.102612990593636 18.13080956799204
Sb 9.987953783404247 16.84918640558711 14.672919760357814
Sb 11.66024165251611 18.531752940734382 17.91447128539988
Sb 8.264905304588922 13.860654316667432 12.27209341565489
Sb 9.293484654799306 10.3709690805682 16.80742440235901
Sb 10.334015217608089 15.965036846516966 17.41874161868273
Sb 8.92625177349629 13.110906489961053 15.872605985686029
