48
Energy = -186.27078991 eV
Sb 11.774949293787705 13.586556571703987 9.606133366218705
Sb 10.570875595755806 14.061724844782988 12.108422272971794
Sb 11.90695913624392 10.78725010988067 10.876504746880979
Sb 14.59942866482902 13.644986519888294 10.211639878125188
Sb 12.35493227799539 17.00188194300079 11.732816665334735
Sb 10.628655588960335 11.267300817058667 13.466426019946299
Sb 14.08615896720268 18.3033276242096 9.781148686215596
Sb 16.006561487488135 16.16638050319272 9.789383632889834
Sb 12.905552559825205 7.892832017901837 11.234989971132856
Sb 12.744924658681562 13.229643159993675 13.818843387766107
Sb 14.841867647282587 15.492168874032956 12.398294479651106
Sb 12.333676270568818 19.073452952020638 13.761653830045418
Sb 14.537683279001353 10.16538358957574 11.909687158987916
Sb 12.737650258144464 8.970642872642902 13.799808967553634
Sb 12.509262475496872 20.831605130854758 17.32702401305704
Sb 15.722754188488093 19.63044043238017 11.792683391947559
Sb 10.739172034904687 18.615557539407554 17.767513795016413
Sb 18.390050587973384 18.444517491949803 11.655279971705344
Sb 18.561388556976986 21.03838293901937 12.961297828193096
Sb 16.234563623069825 21.20522903447416 14.790331794155588
Sb 15.124557967552562 18.49576676206399 14.41360201781124
Sb 10.930792963916657 17.0814958022156 15.293443888382695
Sb 15.278833071412878 15.063605348419443 16.381701662982987
Sb 18.04388966433933 16.915814590630923 14.13308991163067
Sb 18.561139706709103 12.471282105150078 21.00063334497258
Sb 16.149738195137743 14.01530215680144 21.06920169240882
Sb 17.695682931485116 10.195611528484955 19.44195643314588
Sb 20.421047078166207 13.118454421242452 18.92185833704809
Sb 16.45629075108123 16.910489925685482 21.08453493281743
Sb 15.03615508366701 10.78961546093818 18.559760853357623
Sb 19.02675563400304 17.827802355428172 20.073707942587813
Sb 20.677350926666996 15.959918164247343 18.589265783182412
Sb 17.58962902441948 8.395346212076806 15.545936517772335
Sb 14.468155826230575 13.583454447253798 18.791711504940018
Sb 18.459118325527335 14.548200371795442 17.343121766935884
Sb 14.696441865648806 17.235883706963815 18.77363175231517
Sb 18.56657553917685 10.754893845234497 16.663815051168985
Sb 15.770719454314182 10.49296978253498 15.645554530300446
Sb 12.79446702894812 20.530972807801245 20.22131937674565
Sb 18.01023414107888 18.254000033840427 17.389391445661424
Sb 12.155315377394489 17.675358364479525 20.106017919581305
Sb 20.322840249756755 17.85137959389339 15.661478557491032
Sb 20.41118962799977 20.711833483914653 15.153876928927183
Sb 18.163147623651604 21.12140643810226 16.98720060670314
Sb 15.046362380179383 20.093810471121007 18.43876910071109
Sb 12.329562076784024 14.7530905281686 16.25263568594671
Sb 16.19295713273818 13.170038045414765 14.306320048053102
Sb 18.981451781600896 14.120406860388913 14.514047130885121
