46
Energy = -178.86894026 eV
Sb 16.640969286471105 11.380438715491065 16.12990028944996
Sb 17.67989533359452 9.450931259668272 14.310707282999408
Sb 17.795371221760092 15.301223183205707 12.785379777207856
Sb 16.98986371164829 8.66437674752809 17.004658339016373
Sb 17.791495647660543 12.244363837590669 10.676110163489849
Sb 16.155419190451234 17.290118859138836 14.034215040831077
Sb 14.035135657448768 13.481881007468443 17.858166203488352
Sb 16.684095002263955 16.286680328112116 8.660494080600715
Sb 16.873068396374684 17.78552135042214 11.250062069854726
Sb 14.794205021775506 9.09959481420195 13.660823272025826
Sb 14.90683349848456 7.11129671120204 15.667251639408354
Sb 13.784865423111919 11.810155677497995 15.463377502017362
Sb 16.031961165470666 10.045848945730457 9.81917267833632
Sb 11.945091686879543 18.00412893932929 13.980287091280132
Sb 12.36546416293942 10.304928594983506 17.5475189195407
Sb 13.753155255014496 15.751388207051441 13.956240412071761
Sb 14.000120670641142 16.15389412382955 16.80928727721502
Sb 14.371227548504153 17.56345334638353 9.783873937771574
Sb 16.70796191993757 13.480189695223498 8.286648843489253
Sb 13.04349663218873 8.499654158513849 9.839869144513512
Sb 11.499488027042096 14.804401265284573 17.357389580819067
Sb 15.931120927320999 13.246955321539863 12.549827731096574
Sb 10.964029822735558 13.728194174372343 14.69833688559679
Sb 9.46928702601135 10.231044491676425 17.13973051187326
Sb 14.364110761654159 11.752284830110014 8.146539324981688
Sb 12.250758704285186 15.971441962238515 7.624099427888574
Sb 13.04231423982182 7.110466080959974 12.355798132520556
Sb 12.654598858310552 15.302052175155977 10.509596285439383
Sb 13.597594969564152 11.203836062473512 10.860114693337579
Sb 9.505956499856625 16.725410845861784 7.220737440044702
Sb 12.152202699548267 7.693064713647587 16.38010028326309
Sb 11.479525690880061 9.054969573331311 13.894436451852906
Sb 9.65790187397137 16.252945258228927 13.986151977005987
Sb 10.72031600022647 17.238087526511745 11.465368558445407
Sb 8.633908162098361 12.815687457478559 16.173675065963426
Sb 10.337592628153352 14.01188710232572 6.711010992135041
Sb 10.164127278184319 11.0780834174993 8.756754967319086
Sb 6.665787565945422 9.42576376392848 13.839993178407989
Sb 7.002245514771554 12.216814476362746 13.890050863627025
Sb 9.129606572130463 12.279657588122532 11.76360102503578
Sb 10.222092726227553 8.343372597579348 9.309598295648913
Sb 9.35144710731385 14.720173999876492 9.314819521381272
Sb 8.946011689821445 8.216341819759029 15.119255207698739
Sb 7.327608269690993 10.695664710989801 8.688279221359538
Sb 6.93775287334556 13.228989103074204 10.082299849473895
Sb 8.26142217722309 9.56084627779369 11.256895661931365
