49
Energy = -191.16091301 eV
Sb 14.435857655392205 17.22047841414431 10.634531208790165
Sb 12.28402325000431 17.98394480129057 12.483274485383031
Sb 13.992866506438446 12.866397401737578 10.459407200132308
Sb 20.50250360230677 17.051177684550844 10.577240678747568
Sb 16.821985857430604 18.71496678675417 11.006927143390746
Sb 21.63133991083249 14.445392473933321 11.118456384797115
Sb 16.623130161778207 12.46522284705797 11.61979565559414
Sb 12.128326768373903 11.681465704004742 12.307625690637229
Sb 16.921249213825703 20.934533867979056 12.892433056928828
Sb 10.686487725197592 15.6204555768615 13.070606990999703
Sb 19.571879964689995 13.440731428391956 12.961446965132213
Sb 21.067756723619855 18.779961041437623 12.786724892064168
Sb 15.075876117656124 14.842699427686902 12.395119246533318
Sb 16.324045537972193 10.481037864598301 13.686217960918585
Sb 18.336190320317773 20.156340009677034 15.288141468753263
Sb 18.155994165519957 16.12465998541075 12.020692761674457
Sb 13.55527667786314 9.610824881211911 13.737896479342034
Sb 10.637047824434381 17.43186998816438 15.41681302438639
Sb -0.24596481024308348 14.906706456925 13.203541010387113
Sb 14.176186709389002 20.675261277400807 13.683483302133228
Sb 12.738491132334971 13.87152007427159 14.114428847081356
Sb 19.00676834539381 17.46787328154411 14.549699629516448
Sb 14.484451529266774 17.896426058846092 14.352605688005687
Sb 21.89231437909661 13.12268684054454 14.71447940774379
Sb 18.671298811624787 13.604141320431204 16.520510110496776
Sb 12.826888168651413 11.188415393972283 16.117418440741375
Sb 23.132219724268733 17.505329711423688 14.346791367040446
Sb 8.11384230713083 17.30273611519351 16.807628569996258
Sb 15.517658233654881 12.38811303655522 15.703032955522081
Sb 13.781140780089554 19.768068576695043 16.432860532788396
Sb 16.91446408160716 15.832614327680128 16.077138711286924
Sb 16.73487581989281 10.653216686862894 17.724730839869938
Sb 16.464719914068972 20.0494232589356 17.457635722750133
Sb 14.020303445923009 10.095108416625157 18.607700811925945
Sb 12.46879971846034 15.78051671743289 16.892996429916256
Sb 21.356525328080952 14.497957981230147 17.185481628268448
Sb 9.689682922673592 18.762665975371206 18.722517859263384
Sb 17.45588112469082 17.483945675283007 18.39415893924649
Sb 21.205175442010326 17.247801902746406 16.476877742439367
Sb 8.149814801737746 14.970504721811759 18.511438801031648
Sb 17.679165495812075 12.972398352393617 19.211707110130824
Sb 12.681624167794784 17.574725400388022 19.15686921292321
Sb 13.963933439325707 12.374844954553003 20.34773802990181
Sb 15.195564284062792 14.25756771179726 18.510779055643003
Sb 10.577956616586738 13.737372291762073 17.61088013331789
Sb 15.346512415492942 16.60314076303963 20.15581346541144
Sb 8.942131880569587 16.75740700064085 20.66731036188977
Sb 11.221194576719796 13.247021896346608 20.35212157055691
Sb 11.659554388157831 15.935762111672362 21.3097068938373
