41
Energy = -159.03455562 eV
Sb 12.801438064150034 14.531216225257706 10.473789147503206
Sb 19.036894657052983 14.560749656978011 11.059315646193635
Sb 16.182012733587648 14.650584673586554 10.712805398629307
Sb 11.2666539215698 16.993168406861383 10.384076343997013
Sb 13.52342237728088 18.189404596814782 11.759607607603904
Sb 19.38489700639254 17.32940657198322 11.947882727920783
Sb 15.626423186146674 11.866287780387585 11.37732943175816
Sb 9.098668125655008 16.474280865846687 12.202991896612513
Sb 14.262330440474313 15.525267411042183 12.766370883011403
Sb 11.27979380577501 12.490118887621453 11.773593770218511
Sb 19.57650290164756 13.093491268134803 13.470652625561709
Sb 17.63733499920108 10.92319004358989 13.258333333606826
Sb 12.112817996428108 19.545546623173774 13.86965810562857
Sb 20.340337205332066 16.461620427057298 14.508106665886283
Sb 17.04516561571933 13.805028440258148 14.780826330063903
Sb 9.595122987010832 13.968982694640527 13.583482618646556
Sb 13.520691596599253 11.42403987170217 13.329461038284345
Sb 11.521195741260094 15.471229719010411 15.104678504955583
Sb 9.892996024868173 17.855874190116644 14.688055469289827
Sb 17.586029459681523 17.372462577509946 14.203279474352717
Sb 10.459987541013533 14.231380325233932 17.51462505846068
Sb 17.598334399260356 11.390842578646703 16.223966648830125
Sb 22.021389965293196 17.678828733644192 18.04736664825231
Sb 14.431296947655602 19.19225273850535 15.632049884392917
Sb 22.3627139902575 15.820117831116718 20.225733288205706
Sb 19.545686357515073 19.002561664700096 15.515000965257215
Sb 17.941262113437297 15.339213830745614 17.162311916152888
Sb 22.402541327848674 14.891553924902647 17.48705573285291
Sb 11.608748858894712 18.02478071838027 17.63299414404159
Sb 13.990664659409207 13.346123693856264 15.4696053847354
Sb 19.445678222937655 15.494838938223069 20.36457400297351
Sb 13.997400584088933 16.557220893227942 16.800275020738184
Sb 10.274451093044872 16.291458983061847 19.538383055628685
Sb 13.676643333549697 19.920729857439465 18.363651955460664
Sb 15.04464136819949 11.678989906928166 17.601836022580546
Sb 12.167710943627172 14.172520421685547 19.854111625693154
Sb 16.490931317040758 13.724839443447872 19.215067924020858
Sb 19.159611165176415 17.903124381758605 18.3830224801458
Sb 19.91111225976033 13.586585812398024 18.285911218585834
Sb 15.591896232451745 17.729662009875064 18.934721290772817
Sb 14.61596371386695 15.519817620811164 20.522833952655507
