49
Energy = -172.21029145 eV
Sb 17.918965393023306 16.75687684207368 8.366678115241815
Sb 12.282086947316687 13.788921510099772 9.378401529125531
Sb 19.05677816370674 11.62804458155306 10.646261171219741
Sb 15.425616903304261 18.294358821462268 9.74562547364143
Sb 17.368856116932296 14.477154870124146 10.504669045547233
Sb 12.5397349689482 16.91261254301197 9.985218220135692
Sb 13.869279287694841 12.195147667296945 11.634217156803171
Sb 15.85726309056589 21.176015519576072 11.037617418755522
Sb 16.3700620982032 10.354024200184549 11.81708175946885
Sb 19.257085009449977 17.30765088098745 11.317135790665557
Sb 14.45674275248261 15.274446027314756 11.933796858110165
Sb 9.532373651611538 17.35197698914591 11.37825238740159
Sb 10.055000353904045 14.195143456952177 11.509395711213818
Sb 18.938680810198928 20.529847240272105 11.992991219261068
Sb 19.379118120141616 12.630818998280017 13.651582146482639
Sb 16.484571449274373 18.654756604547757 13.036191965166209
Sb 20.64445772265826 15.539199181748165 13.730355127159065
Sb 17.41905241853371 15.551205603998694 13.664772398242901
Sb 12.151212863618372 10.931974461410402 14.104935014989096
Sb 10.2151948142359 16.863074102980345 14.482080264707175
Sb 14.79769690090422 8.921866868605187 14.129630001829263
Sb 14.958184273155688 21.341662181240395 14.612590352029201
Sb 16.112240551057482 12.227677753222865 14.579778926398582
Sb 9.07464749461237 11.759609483812877 13.354807441764393
Sb 15.321313949709866 18.228306868533252 16.398521969020155
Sb 9.857195836025104 13.854968322875004 15.521914344146472
Sb 13.375476549587884 16.18165190825015 14.87687908305351
Sb 18.078019093275635 20.713474489585767 15.073182200114903
Sb 17.843359094961418 15.183078635051938 17.01249426445192
Sb 13.452421346009372 13.29954781236423 16.19586452480832
Sb 15.048346172097187 7.531363592527805 16.976664819717403
Sb 11.364101556821176 18.205108801715863 17.08431250082828
Sb 19.012606068272436 12.041109876791063 16.787546598333208
Sb 16.350090327340393 10.37781695915353 17.42190714701412
Sb 12.692184885464384 9.74491517069527 17.154663302667785
Sb 13.405827299235684 20.579058145786796 17.582781425172808
Sb 18.520563817885098 18.551261496756013 17.354230455171173
Sb 20.903957453726424 16.507436073225396 16.803443636248645
Sb 14.600447623922157 15.621898101489085 18.730758153561084
Sb 10.421686739231967 13.308721883718269 18.500486856959242
Sb 20.446749271768052 14.06734045101139 18.942955681565483
Sb 14.25738510291831 12.086678557643967 19.217036950668458
Sb 11.294344690320907 16.126521682607034 19.391332640096675
Sb 14.957199863113862 18.73814604484445 19.789960456156493
Sb 11.400716805347814 10.628573094782327 19.894476849266205
Sb 15.361925954503745 14.075008229091475 21.58692800592392
Sb 18.048012448704892 18.80456384756356 20.472044758999207
Sb 17.897640148266234 15.57292134559273 20.279947261752923
Sb 13.30390363675179 16.686840109236726 21.735978509736558
