45
Energy = -175.38762584 eV
Sb 18.61212893691571 17.84846592875846 12.528144945781417
Sb 12.310547625865889 10.702175290638746 11.170308027480381
Sb 13.931116273398102 14.325808312284426 11.852015059647998
Sb 18.618760124665098 20.73729747793299 12.332667251017135
Sb 15.552265822932638 23.250109430549163 11.361364242197892
Sb 11.39721464636829 13.080340615474158 12.592000706864905
Sb 14.959595713215908 11.842197376746938 10.804918868423629
Sb 15.50781916424972 14.786289208904227 14.246963232603791
Sb 15.926848716562175 17.60313640900244 13.45858915897696
Sb 16.2003015679416 21.582269070431998 13.685625938468858
Sb 11.98658679797009 10.642481236119547 14.003127869296106
Sb 20.42364990913655 18.545275444084936 14.962509105091478
Sb 16.334481723481066 10.691240382160414 13.035654325357115
Sb 16.837714271949924 21.04610536391792 10.02601106327
Sb 10.622101063270856 15.633813504657162 16.58536149612716
Sb 9.538200117377992 18.15564676243183 17.612802758443692
Sb 14.477431011567706 11.673864765010498 14.979888325858418
Sb 21.733403924781445 17.068149327031552 17.152349254467808
Sb 14.451107670359576 20.630303725279052 11.57104003582566
Sb 18.31904498879499 20.1023513570939 16.078128638081335
Sb 17.763653396713387 13.202033199284653 13.282294721988583
Sb 22.159475788191852 20.9375844111473 15.147474744245688
Sb 16.641284883207376 17.787696929164742 16.259523546158675
Sb 19.13656676688433 12.265062409564381 15.671381327429062
Sb 14.80066829105768 10.101353252944877 17.368088347118878
Sb 21.709581187535495 21.640781116342115 17.891372842196837
Sb 23.47070909702129 19.44483312506199 17.237641423595147
Sb 13.482138049153901 15.983917215940673 17.25374084345778
Sb 19.035901044356237 14.920286283570958 16.82023446669797
Sb 13.537031377358092 12.680095962921934 18.2129138340909
Sb 16.382786144323713 14.152747078926774 17.85554055354357
Sb 17.68007417074002 10.5486770214781 17.5557049330353
Sb 11.710384666040573 19.994296368650005 17.799302340164814
Sb 10.543357322356172 13.909912877759343 18.839343900333265
Sb 14.367104006129857 18.628927287315204 17.964469168769718
Sb 10.85276378343565 18.521343391909525 20.097049809857012
Sb 20.73410053248566 18.0872197512657 19.603886083326486
Sb 17.57986235902749 12.395084638549884 19.81502153323206
Sb 19.24661781292333 20.389650052724885 18.76422370722235
Sb 12.33862220841956 15.908283771112574 19.83322102472332
Sb 14.549493728782458 12.427643341552947 20.82120118607706
Sb 20.122381950167323 13.963691093062826 19.265287627699088
Sb 16.36933604116622 16.442696380789144 19.65522306568213
Sb 19.057339589946334 16.06034703317077 20.873898096875962
Sb 14.534582321628578 15.20465160713603 21.618627159053013
