43
Energy = -167.51946925 eV
Sb 12.35248526420365 13.828465558574248 8.174808990833801
Sb 15.058038708815566 13.819854392612617 9.150482063587383
Sb 15.043439012950497 10.99519548828825 9.522766185193396
Sb 15.842842530569818 17.07185441752731 10.388975735415451
Sb 10.980417774827654 12.647407415187008 10.399487045195897
Sb 14.488408080422793 19.5057070590443 11.117136822049236
Sb 12.839884994201872 10.680237712705319 11.35627476885607
Sb 11.371905688979545 16.3335200872624 9.274226239006053
Sb 19.867100000751257 11.506650352695042 12.125990844156071
Sb 18.23635666852062 13.641688254743254 11.140809800942204
Sb 10.740969860946311 17.612766483160062 13.265928519441259
Sb 16.851335163720396 11.242678952049035 11.959304484128477
Sb 14.677440387982818 14.848267090462004 11.860369889044126
Sb 13.644069295930388 18.014920721765126 8.7764692744505
Sb 14.099064446667152 11.73326228571003 13.828395969969293
Sb 13.126657667056334 19.14880288997848 13.650422178420282
Sb 17.102687635143898 19.007251521791453 14.537007728036059
Sb 10.293738940819868 12.593546673746967 14.68933824753423
Sb 12.876276961850902 9.269511353704834 14.668242082076224
Sb 19.331625864623568 17.208776276489697 13.843204763932249
Sb 11.787897658848241 15.181828805939656 11.8650483375829
Sb 12.538907118106916 12.993912548468217 16.55250477346695
Sb 18.14941139301412 19.153050826678587 17.257092303206974
Sb 17.533502886986835 14.943368090247066 13.72042329974196
Sb 10.483577827500365 10.080553676344442 16.194440268614194
Sb 19.766593208022766 16.83124740853875 16.701349958092496
Sb 18.344124260200385 12.267580337921286 14.501302204529491
Sb 14.860870531782144 17.147072455957197 14.891307955013398
Sb 11.39536648810326 16.042748572917663 15.577861022428635
Sb 8.911892288385713 14.71939906256099 16.199559973757577
Sb 12.32855827958208 10.744360224821873 18.37432605312188
Sb 14.323783821621786 8.948896765819446 17.19295217329604
Sb 14.277356521792413 18.772449855000552 17.201996919351558
Sb 14.213627633231178 14.920440074844102 18.229834700138117
Sb 17.20901309489507 15.44240515627982 16.986319112000324
Sb 16.248248063987717 17.45045358210186 18.850601109315406
Sb 11.501982636149197 17.906753419989627 17.770212405681846
Sb 18.60102902629947 11.30337365679474 17.257260211311507
Sb 15.709023619246205 11.439298291339266 16.814770472546307
Sb 10.292917983048461 13.61787305307985 18.46425901748295
Sb 15.303944210114869 12.599011248847336 19.510175970234236
Sb 18.061158111816933 13.545242519685983 19.004249379481966
Sb 11.845747933288113 15.751594923333018 19.665790292345235
