44
Energy = -170.43885496 eV
Sb 16.71831683994259 18.716884505418133 12.268737807408304
Sb 18.056649794186292 16.38021219419997 11.247223341368832
Sb 14.796666771918941 18.328779949735654 10.094587860054322
Sb 16.17391240077651 17.202127105409133 14.72294983138223
Sb 17.898928525834087 15.005221642723901 13.816474866041494
Sb 15.507383043779903 11.650581958152939 8.14325872074453
Sb 10.790082763123747 18.44491834815713 11.828926838328309
Sb 15.318626460143847 15.261948803734397 17.59290879406412
Sb 15.650053604602233 15.564652659294051 9.834640365522658
Sb 12.28602279749007 15.606753245730077 9.037648823147487
Sb 11.891142498677446 17.16541888260417 16.246629747652722
Sb 8.65384725416064 16.748996597563295 11.969835827201587
Sb 15.658530007450764 13.320410514712528 13.172310771371022
Sb 13.36842581654848 16.382277414376702 11.584809241315712
Sb 12.75613797272558 11.812158610252249 7.294614740892618
Sb 13.318906617421062 17.13618351476876 18.715076664714967
Sb 11.783122485383204 12.863400167318156 9.812289128720591
Sb 11.212873433438594 15.179177478416157 18.236680212963794
Sb 16.287586959459635 12.294005142835726 15.82712703865478
Sb 13.884196066433523 15.411335544067274 15.073474278766655
Sb 14.527246534701897 9.74815719659507 10.166332201776864
Sb 9.843973698388146 17.248921566639183 9.412111272415963
Sb 16.698672114603827 10.610571261279414 13.477558584840184
Sb 16.6061517633116 7.76207916893075 9.877518144600176
Sb 13.471214919715784 13.37756327280295 18.740444777185335
Sb 13.930037463011441 9.97917955423604 13.041434304521156
Sb 9.004693464313748 13.339972410264513 9.171670523718822
Sb 15.354015834687823 9.118247868718695 6.819378342855749
Sb 9.1630674168038 13.679839363873118 12.023177287049382
Sb 17.019056683295254 6.86326596447223 12.66869295035355
Sb 13.839201511803005 11.157255699558736 16.849303707896695
Sb 6.379100128182637 13.227191368451829 12.70951138856339
Sb 14.967836949878231 5.697838106311054 11.04127163744844
Sb 11.673778880585637 12.051493972221861 15.223720813348237
Sb 12.745767264955303 8.992681385225424 7.944433368912188
Sb 10.171955573081835 11.722716422352436 17.724134651064286
Sb 10.937736691261483 8.928721569168825 17.8926105173297
Sb 8.299132947790078 10.573445016000505 9.601816266725818
Sb 14.261898679741698 7.13715472021213 13.459990918365696
Sb 9.703080077155013 10.744020359166587 12.141348262288606
Sb 5.7551926464612695 11.121306233088257 10.877051942238273
Sb 7.074128586693433 10.510849676292077 13.406512864607768
Sb 10.854629324227744 9.250965089776326 14.970943143502954
Sb 8.475267578454618 9.656856421395831 16.6151775783085
