48
Energy = -187.18667032 eV
Sb 12.33652458718328 14.438899011857696 8.548230370078016
Sb 14.894866183325007 15.69193569567152 8.410484171360043
Sb 14.204831485407459 18.262494363036463 9.417272656029777
Sb 11.823269885869466 15.335765149145136 11.198915710521275
Sb 12.42699582636498 18.119005661680525 11.64049673497194
Sb 16.332463822774457 14.597406292551371 10.777305714400812
Sb 13.129253339837712 11.998713152647921 10.018908682031746
Sb 16.99136417781144 9.595365329347405 11.548129890287752
Sb 15.497075843108453 7.353780716935957 12.5320758270183
Sb 18.662384512114965 16.228178020675198 10.186809464008524
Sb 15.616266471458653 20.002635089686873 13.610470321084547
Sb 14.072841022221988 17.57679081213937 14.067449488426474
Sb 11.184624253913336 11.712437926390947 12.193716691600804
Sb 9.335153559491186 13.948024865987891 11.671632588960795
Sb 14.42592699270277 10.031491259439939 12.783783143581736
Sb 13.554520443944757 13.389549734277075 12.53182513090525
Sb 18.798214027207045 10.510596857191778 13.575078305018934
Sb 16.416848522548687 17.38064167002762 11.555854078827442
Sb 11.969627570216828 19.28106922199596 15.182485278928947
Sb 15.088453362325586 8.56791466730518 15.171355254366286
Sb 13.56969577117803 21.67523180602428 14.870628225440663
Sb 19.07556374073299 16.869919871563948 12.989364494393467
Sb 19.611949496061857 14.348203900774205 14.25106201989145
Sb 9.026570349187152 15.430556943953388 14.13746939071286
Sb 11.086374589461565 12.435998471533 15.738589959350866
Sb 20.949528633055426 17.375028350973064 17.05892857671145
Sb 17.229225360098646 12.946041524735831 13.684575122403052
Sb 8.599566738631749 13.69936725981794 16.472546314046568
Sb 18.39498937851792 18.346877810290188 16.08008103811596
Sb 11.71733751715504 15.238443530923 15.187526384648322
Sb 14.106230049586959 16.329753650029403 17.688073760577616
Sb 15.981858717769247 21.005835084268806 16.28847293060275
Sb 17.83577042674927 9.09481671807481 15.850273661664824
Sb 18.72610626480191 15.559995718067064 16.863622944187387
Sb 12.33941994281676 18.641728363218306 17.966798012589663
Sb 14.438516257194978 11.096525782538938 17.399777046349183
Sb 19.331690550872217 19.060979306696442 18.735230046752267
Sb 16.13684884285865 13.34244941982349 16.577995296902593
Sb 11.956890701141308 12.128385601617147 18.459903624259095
Sb 10.164502839052897 15.933734864896737 17.574044956378167
Sb 14.680276922741841 20.16550549015625 18.732405353703044
Sb 18.163337110294098 11.495868342891356 17.47346272069639
Sb 17.945092684327964 17.420258462264567 20.63563239885131
Sb 12.207553008943293 14.858436848193175 19.353552539028517
Sb 15.109723638781409 17.64119310237096 20.07983331376518
Sb 18.580171754881857 14.770155363525356 19.808263014691487
Sb 16.276795585500466 11.048812063913061 19.63355504988404
Sb 15.905371335037694 13.92566494613372 19.69451639825362
