52
Energy = -203.26866342 eV
Sb 12.268625466330986 13.318524063282418 7.43955382635688
Sb 13.90360140990986 11.345700343898208 8.79672492683272
Sb 14.143815371682422 15.542372536157893 7.276625948999773
Sb 9.480648011675466 11.092828687602143 7.96672449569658
Sb 16.206618336442663 14.174234481980275 8.589886579972898
Sb 8.127876346112924 15.385177796529653 8.457986623696312
Sb 13.889845593849396 8.953439621472317 7.185873763056597
Sb 11.42401303554807 7.742185806889571 8.538291766441034
Sb 18.883572195017614 13.430093573976771 11.336250503380942
Sb 17.138863015968674 16.84912804758904 9.381472123603633
Sb 8.507865667934466 8.352760149667928 8.221618255002495
Sb 14.386717117352307 17.553767552538442 9.975070704667923
Sb 11.73012289940273 13.69770519211265 10.269243254709382
Sb 7.549023919612145 12.680549502822062 9.399748236232998
Sb 14.436114698717178 14.823979725039125 10.835348307900585
Sb 18.18475047919645 16.130996104866213 12.013645199451064
Sb 10.540225647612399 16.304425998009755 9.744145945952996
Sb 11.378437736217322 10.325862994327286 10.012065000027988
Sb 17.03845622466192 11.29453159537093 12.074666140053509
Sb 8.047062931849464 16.309252148595704 11.193028328492721
Sb 8.585671150474566 10.271424312684326 12.13941664179208
Sb 15.16353791846252 7.386796932369233 9.134158629057165
Sb 12.580153930537717 6.5784105388404335 11.00704316724946
Sb 14.94239002822069 18.27569417655493 12.893415431715656
Sb 14.267014637544673 8.913214781725891 11.408544638613424
Sb 7.505014054966496 7.903136386199842 10.899879398408133
Sb 15.688314573110956 7.5371678845162196 13.542472014257523
Sb 20.37160952768066 13.1147906762875 13.764892352822624
Sb 15.832284638110066 12.22017941573143 14.543431501418532
Sb 6.423631373772811 12.030852163747344 13.097924763244182
Sb 9.76983122181185 6.613730073147787 12.165517109968619
Sb 8.626912180614296 13.555080419353072 11.962070034848628
Sb 12.069180963097773 15.090884531520668 13.744154478708396
Sb 19.29378963425366 10.417538790239044 13.752269807312425
Sb 12.101652510328252 9.58435265431782 14.13333414818865
Sb 13.11500368047546 6.950266494645373 14.743024864296553
Sb 12.173773032651944 17.97720607101912 13.642081301286465
Sb 15.768511578220345 15.623546733364668 13.486070651490705
Sb 9.346080537129158 15.188701175221423 14.884881591678624
Sb 9.412872281198819 8.534089965831962 14.309630140888478
Sb 6.885021216445472 14.371348756332246 16.78161779932118
Sb 18.47051966408024 12.335266793783774 15.763452720409086
Sb 7.357729662238837 11.695397616132212 15.814304475905956
Sb 15.951638646156606 9.511949260864299 15.679852655008679
Sb 10.105576639672885 12.42941116809893 15.320461797305095
Sb 13.661918775799572 15.110978261688462 16.18362485922184
Sb 12.72575345259139 17.860606996372812 16.48085464534026
Sb 13.266179147758034 9.110383416105071 16.713246648565725
Sb 10.067960059339416 16.746230241303646 17.220368153556894
Sb 10.47163673684506 12.302919127013682 18.163058222631317
Sb 8.482318298397837 14.189595423590552 19.022746540801652
Sb 11.808214675466168 14.819285371215472 18.45218141670438
