53
Energy = -205.94492801 eV
Sb 13.983896838753513 12.103960899392682 6.19429154884833
Sb 10.664111372101889 11.415602874485721 11.485453879979447
Sb 13.593678106992797 17.334863992534935 11.241567596405014
Sb 13.646916841290777 14.453764178419636 11.116859450172955
Sb 12.341060937535637 16.312111810242087 7.4907165585501705
Sb 9.955913285908437 10.270351586417117 7.592741486266163
Sb 7.812600453562701 9.17368677120003 6.033945537444843
Sb 7.35155533853801 7.073093123029888 8.093652035512095
Sb 5.915024479028415 14.960450138677025 13.661480958354977
Sb 9.938498662555027 15.62073772621628 11.561908267812699
Sb 10.211376834550672 15.319438178120041 15.953789123106827
Sb 7.202659763511765 16.688553731523353 11.710898011139495
Sb 13.010029329844626 15.062648670461648 15.504806579846889
Sb 10.982030411722915 13.881791277200657 8.14439561589965
Sb 8.617538006452792 15.47028441136436 7.564017929430831
Sb 11.089877834632103 17.63657973179614 9.757967838622474
Sb 7.231412684898524 11.23892971241013 7.947161245697502
Sb 7.714979695481392 13.248359025795425 5.889186754795004
Sb 5.357520281338767 12.6266437100647 12.097426738555312
Sb 7.7662420455079655 14.403827271203737 10.082022213540268
Sb 11.198152557180764 13.321725981641487 13.771639372691098
Sb 7.7331854879340245 13.087286112434768 15.102960974578371
Sb 5.221495454831522 11.435137407810691 14.73834241737833
Sb 11.709296439062797 13.39122982499935 17.39652984355002
Sb 8.067957005124418 11.548399031514595 12.683103149926046
Sb 5.776191038080578 8.718805987874955 11.264045885855266
Sb 6.919666256062843 9.199877147685205 13.897606058631863
Sb 13.080439459629563 4.611803235661328 8.339203910092127
Sb 8.54144101138215 8.347434163337072 10.393662951203508
Sb 11.86281534230807 7.132258128854972 7.6131958548064755
Sb 9.622595515539475 5.318359449502032 7.511907488636923
Sb 10.14535092914855 7.1851345832657385 14.950617511199946
Sb 11.025982051121986 5.785782798468481 9.99778414249638
Sb 6.9405345688460764 6.1185577107839535 11.24386838927951
Sb 11.476968058091991 9.449306410032912 13.589755154003836
Sb 12.981907836169938 7.29349857911482 15.442376381645843
Sb 16.376368965670533 14.388183911919773 12.1473250509799
Sb 10.442738455944413 11.151907259583679 15.748729060780768
Sb 11.19601647393359 8.565744615524947 17.210959856283864
Sb 15.825375653474444 13.24657789504241 14.774312519918302
Sb 17.903995519513767 11.233942502976376 14.254974418301977
Sb 14.342337895011463 11.215159375214766 13.289312921702244
Sb 14.43562207034293 5.6570560864754045 12.452977117796783
Sb 16.499784891709016 7.675835228841905 12.465137639114849
Sb 15.769684146657577 9.230758884992886 14.813679262764266
Sb 14.820082133774381 15.962300502049663 8.98205204362943
Sb 14.045231695146555 8.063808331322853 10.954397505890002
Sb 15.05237924129825 9.649797325040204 7.238874151279446
Sb 10.523263602097167 12.400527304712146 5.678190323941544
Sb 15.359827252048536 5.825068069400282 9.70181216155437
Sb 13.430877328369277 11.321171371926091 8.932249361925011
Sb 16.077318617884707 12.148979513578741 8.20667980736848
Sb 16.719267925975267 11.533980615008817 11.598521773663533
