51
Energy = -199.41192904 eV
Sb 10.012054338237116 17.12834159162127 11.67360827718552
Sb 14.487592918647316 8.878296439882321 13.264188809706322
Sb 8.166584586056164 14.809129140764798 17.16692479012773
Sb 10.462497170004225 16.350907137002345 16.309313034631643
Sb 12.777037357541527 15.249041087664342 8.195905551767224
Sb 9.89409357131386 18.197945002709005 7.2177129375757385
Sb 14.740495218852166 7.280035287569846 10.89336237568794
Sb 10.616971926253255 7.434283169640622 9.765830539989185
Sb 13.034215009671644 10.412014863887409 18.473208387364743
Sb 11.291059446775668 12.080193178843578 16.002876394649125
Sb 9.148411398636178 11.513443846643096 14.156935981229353
Sb 10.891607639398071 12.252358081129016 5.798313097744924
Sb 13.603162287007143 11.265652329809134 8.749476795212901
Sb 10.101786990068844 14.315555977230952 12.38016795298784
Sb 8.385950802717947 9.128461222040618 10.628478721440578
Sb 15.148287867742994 12.397142336481929 18.50144036577902
Sb 15.789073402480819 9.355106261495948 9.14366399671515
Sb 14.15818157675108 13.148248006834978 11.476959205709004
Sb 15.505583604424107 15.608660974539262 7.556612744374613
Sb 16.64157058166218 16.31954580574812 10.147952377066954
Sb 15.028893012031302 6.677527136726565 15.0819812477368
Sb 10.369899386935181 12.660992924757007 8.633544859486257
Sb 16.743256722095076 13.437476510718064 10.183699023894603
Sb 8.381660177521992 17.08192049746019 9.323562772952789
Sb 12.594984626351406 18.119823171812666 7.99391820745452
Sb 11.75402992130893 8.812235735855532 15.511899829558145
Sb 6.959338153027785 13.098113116916974 15.185933755683719
Sb 11.4225105906235 15.281788515989332 18.879899918359726
Sb 13.907004026594786 14.833761218301378 17.489059684150572
Sb 9.880301211124163 12.866695129125153 18.377612511791686
Sb 11.035181432623473 9.725017894635968 11.474927645202303
Sb 8.414655909692375 10.592391815583126 8.08964543203607
Sb 14.503695732890955 7.881938339779241 18.82871541696271
Sb 14.477473245511533 16.055859497595463 12.038456044749324
Sb 12.640510781487958 17.996153551868495 10.892660891818071
Sb 16.604426285149874 12.466165118929613 12.906696852274413
Sb 13.077097422010933 14.146804983791627 5.514740265075578
Sb 12.359219943647394 14.535019071552421 15.021751436916022
Sb 17.08464771484431 7.873714634694052 12.54283902189877
Sb 14.627408035160386 10.895495879602413 16.09110433042
Sb 8.835103652934544 8.902976372393681 15.382816491455872
Sb 10.233557755792484 8.560512972981616 7.119441260936931
Sb 7.777380028751562 13.137755929739907 11.048763305239344
Sb 10.349676616503054 7.541567809107546 13.306933120802015
Sb 17.647902049444454 10.3712543173069 11.127910302394223
Sb 16.396359977129148 8.619653530241278 16.747720268332515
Sb 15.259479573573104 12.726262946864008 6.836498550360115
Sb 12.603119700265465 10.000046859676024 6.30482537372777
Sb 12.76469427978599 6.503722133799976 16.947109462240753
Sb 7.419884147245671 15.10030092582979 13.143769760274603
Sb 7.976991818873323 14.359251339999426 8.455192244042872
