5
Energy = -16.17842502 eV
Sb 9.254563692984611 10.550037794780327 8.432597310286884
Sb 7.532427265174216 9.549890894498187 10.324059541345552
Sb 11.55495193290946 6.400875239777404 10.142835710821345
Sb 6.844783460059743 11.978435710525346 9.367151174128898
Sb 11.25373339384712 7.961220105393882 8.173816008392473
