55
Energy = -213.38550561 eV
Sb 16.328702006342517 16.767182106809244 8.037222705563348
Sb 18.016324207195716 14.485304762106365 8.689306534875726
Sb 14.278939791189575 15.323498620260304 9.519559930675609
Sb 16.930806916299165 17.98388674807564 10.547683587535737
Sb 14.709021134873064 19.70142204899416 11.158497675109412
Sb 13.121434565229913 9.778640803474246 10.20116663421594
Sb 16.289850149412665 13.896961252145314 10.997917532903356
Sb 13.805099509731505 17.026583215668516 11.87169451321527
Sb 20.310219549164152 15.927249043328738 9.948074416726758
Sb 19.67863131529465 18.764643049196383 10.212663910822652
Sb 13.926255896703232 12.174718639145896 11.571372260648515
Sb 10.94138856384342 16.749796622943617 11.737507566150164
Sb 16.476479275074112 13.490400047413944 15.909196665205181
Sb 10.554472542305765 10.735712583581227 11.110040683287302
Sb 18.0686875482255 16.025542857746377 12.717463130552519
Sb 12.134348249317881 12.330769324626116 9.304539582578553
Sb 15.447513243796427 19.469084139026 14.065047396871929
Sb 15.944623690775938 16.625273752197305 14.62784593224878
Sb 10.384149265149679 18.306215039734756 14.108647489427264
Sb 21.63930040140328 14.98042603050131 12.495177921153058
Sb 19.408147938447716 18.63021994096927 13.10421041078044
Sb 10.728812895700226 11.942501758181336 13.75992863085002
Sb 13.269163800922291 10.892913717037263 14.64955531486036
Sb 19.66313483996692 14.271654251379038 14.513924255179994
Sb 12.079639544620001 14.559455192040893 13.493133630335992
Sb 21.96794141303348 17.564972731111634 13.753437147090848
Sb 16.76950589877432 21.925863292042376 17.884248697315417
Sb 12.779970661495565 19.435840911231338 15.451441761752534
Sb 10.65782294233121 15.870458449644968 15.667051758133383
Sb 18.027424508408696 20.419865232585583 15.666071035391965
Sb 20.55028242260565 16.49987571859501 16.095939988942593
Sb 13.10254262790056 16.911388932781566 16.866008859731323
Sb 17.438287556693556 10.94665645511815 16.842655131035954
Sb 18.395933561663757 13.134201925813278 18.60058723151975
Sb 15.679523490073938 13.05654485064998 19.462855896109733
Sb 13.606923743763707 13.344531740391078 16.178447727640712
Sb 17.89404025524018 17.66604657363068 16.613017022208464
Sb 14.996944922581978 19.691083234713517 17.983003915997486
Sb 12.742041745904073 10.962523172852656 17.52554807607699
Sb 11.404895188221658 17.945808478979668 19.021799491535514
Sb 20.20765832165806 17.17124171735977 19.81714129422728
Sb 21.045632359335624 14.73189484906919 21.07137318564186
Sb 15.293984821528644 10.297338548768627 18.685483558159273
Sb 12.450422465329266 15.665160493401196 20.52987621657145
Sb 15.25544922654799 16.179217167186827 19.991931667442522
Sb 17.60673249219538 19.61137487273183 19.423586436375167
Sb 19.05551774016154 12.665832347070154 21.573872511496955
Sb 16.28017440229651 12.651233855599273 22.298938373222658
Sb 12.976996439064978 20.182766110223866 19.987243812756414
Sb 21.141256503320324 17.167534729416552 22.56920169615687
Sb 14.559260511068649 18.47857221535845 21.668824282261678
Sb 18.305396794622162 17.0952420152352 22.065539857430572
Sb 15.666571995130683 15.467257938194052 22.828581666528866
Sb 12.899376024703841 16.598500977593435 23.197299612456654
Sb 17.07059912211487 19.785371914823845 22.291870775770537
