53
Energy = -206.4465945 eV
Sb 15.640609179555561 18.301680577233256 17.18637302036975
Sb 15.251500249848181 15.361469953161672 17.07784330300181
Sb 13.233023487540768 17.970914769393186 15.538587138813995
Sb 10.416495529029389 16.04519652169006 16.399691808128477
Sb 14.876419761683483 13.961208437362822 19.642860045920145
Sb 16.487608499810378 17.442432023262498 13.025598297720894
Sb 11.480659415714578 13.965524551873408 18.07812357350681
Sb 18.06769403933098 15.18525346040932 16.538863758874676
Sb 10.592010143996104 17.518259593450598 12.767161583976463
Sb 12.212573667799724 19.836594247468135 13.509477475144099
Sb 17.9252364351739 17.863396364479577 15.462118025955425
Sb 17.496701731985997 12.909686477742026 20.182590151165915
Sb 16.53076981314407 10.22754239588472 19.60923650426532
Sb 8.839538154004208 13.60425632388941 7.9770156192582276
Sb 11.464508701963501 13.64683499087389 15.222659021591411
Sb 14.296892962281978 15.819933052388341 13.944951881608656
Sb 14.061068686346932 11.365296044006987 18.51806434036888
Sb 8.998551571527761 13.515687480800665 16.690055533992243
Sb 18.46819029573946 13.508372356531902 14.175950539070849
Sb 12.997208826212804 16.60817894858489 11.456323345514283
Sb 18.033241378056257 15.254793450619616 11.912881158134885
Sb 8.627878353565729 10.263857836059005 15.062693788549389
Sb 15.595496125339444 12.143639798731835 16.179357276204417
Sb 13.940350625935238 19.336031028258255 11.229442307120703
Sb 11.908055530402759 19.718174246260684 9.210331832069956
Sb 18.083742123853074 11.688101110554298 17.646015811996012
Sb 15.150616656941956 9.875142591161083 9.704232603015672
Sb 11.975320059788316 8.012831064038174 10.99760033089096
Sb 13.622602446406496 14.324654068986478 6.522614965155156
Sb 8.486670042664356 9.839358497221246 8.437951478631472
Sb 11.515079009516878 7.284771606920071 13.838271333583364
Sb 16.039137167295134 12.232840438549008 8.281512343623303
Sb 9.06889999861594 8.185694989689427 10.988297924609727
Sb 14.422738802589134 8.986608408472607 13.251819752985666
Sb 11.300437945177988 16.112258900136247 6.745605910448887
Sb 15.322800563697069 16.150520295215262 8.046768475305766
Sb 17.423903690327315 11.403270260423975 10.664723384500098
Sb 13.675445226336736 5.98742442695857 15.542502035602931
Sb 12.972951525646625 8.166238666756627 17.320034011349442
Sb 10.774400174006368 11.537252593860458 8.424316611850116
Sb 8.623377860585899 10.856216232614303 12.046151887823173
Sb 12.927687280464834 10.750565579414763 11.38170085942162
Sb 8.167467491508697 7.723268404510884 13.976065458651002
Sb 7.131607186185933 12.020422847813617 9.679753226434585
Sb 16.65118426183503 9.80487408069613 14.84820294431426
Sb 10.613881053253035 15.450005151035747 9.454398199526793
Sb 16.087863635554395 13.208736846202742 12.506789205860557
Sb 6.289374190209143 9.90793885123271 13.425730020079882
Sb 12.258981827226572 9.806886181925469 14.991272416176127
Sb 13.952197872316964 13.973852480459854 9.346343167209454
Sb 13.292001137048732 18.10877094697175 7.236088485724145
Sb 15.729728228056185 7.711760651475919 16.65422247164392
Sb 9.635486542970904 18.15338606235456 10.080630519328306
