52
Energy = -201.94851805 eV
Sb 12.535293865855675 20.465460618296888 13.210813926380842
Sb 10.149747703125152 17.605696684260764 10.49027972239421
Sb 12.493683700194985 17.688347344632938 8.728723272278305
Sb 12.428179390771037 15.170932217783959 7.328900502878617
Sb 7.394097298117083 15.118173217633972 11.947133175695292
Sb 5.242937419454993 16.366219290618318 13.363863462425934
Sb 7.9015343889305685 17.569591774298292 13.467569968606414
Sb 10.981639806768486 18.742458270120938 14.991781301685766
Sb 9.8755151375274 14.12095652149598 8.204285714620148
Sb 14.969680325357443 19.900284881191318 14.694101091337327
Sb 13.481095550927172 15.285210914979345 10.029138700672364
Sb 12.151683563964806 17.675068256342247 12.578273348443318
Sb 6.705566286056984 14.177615734037987 14.592907707136282
Sb 15.939278269176661 10.495127113124827 8.698030332158027
Sb 10.68151510740288 14.784263944859198 10.90702346111979
Sb 10.684508122310529 14.602990800141274 14.955627517720627
Sb 15.75526102095341 17.931351440859387 12.682283372021061
Sb 6.9111134650725035 11.642863091528522 10.28727181100949
Sb 10.915619574164557 11.434399491148486 8.540873222490626
Sb 13.475888231798164 18.005401253654625 16.354164735453455
Sb 8.438793579651197 16.110807993746548 15.917682423632016
Sb 12.394529416097404 14.609987354972278 17.307295379945096
Sb 8.266680459640126 10.36892559559803 8.061509114852226
Sb 14.503445163429427 15.965939570157467 14.477686712724157
Sb 9.612811838675338 11.355538647882035 11.299129342233439
Sb 17.124921907019743 13.972559919785091 10.176189487559654
Sb 15.202004934452546 12.017981290017207 11.054724861892229
Sb 8.047468362697359 9.01762925853245 10.628621294274074
Sb 13.833196309027318 12.704975980275664 15.633661417721386
Sb 9.473778253556876 12.308863694182573 16.262230075450255
Sb 18.564293629572145 11.568472268346794 9.397528790732192
Sb 11.874267327346821 8.526144517984582 10.318926007638064
Sb 16.917399196761128 16.317073615749788 16.171897777749656
Sb 13.964645393173628 9.00525062576298 12.324768719870393
Sb 9.205455711967655 10.340015264834134 14.171360932433112
Sb 16.07013125346568 8.145577034718249 10.41495884200217
Sb 15.936376714666618 12.920978151203997 17.61120462968519
Sb 18.309059038490876 16.92117588566503 13.723011651611223
Sb 17.115582959762147 14.324857518259446 13.25389665119666
Sb 11.977589190148448 11.728892217848166 17.6167197153669
Sb 16.029173828508156 9.905752677126737 14.853963263029117
Sb 10.788243486792414 7.00296463952518 12.606040469292562
Sb 17.80944805564862 11.240389963663493 12.19515348933835
Sb 13.814067500779501 6.410053888788434 9.691381170853385
Sb 18.18518324197421 13.648337672538586 15.94318165266609
Sb 11.514575061211396 8.930704470235952 14.617998818513776
Sb 17.89463321569752 8.450398186046058 13.228197177843175
Sb 16.25288927881346 10.367084892627801 18.953186946704456
Sb 18.877701345382015 10.394507601016329 15.265505548746727
Sb 13.599898385023172 6.13515178519264 12.58107034452725
Sb 15.916655916725304 8.150300639655686 17.157816971589146
Sb 18.56394589119817 9.052782244572933 17.839679987157652
