51
Energy = -197.93914665 eV
Sb 13.406591914337618 13.151480494267782 21.782585516658774
Sb 11.12244148156408 14.444249122336569 20.502294387902175
Sb 9.676731030528764 16.397808454372925 17.76464765100276
Sb 15.22984558899974 14.649544024240614 20.046704389698565
Sb 7.707339640617285 19.317839327838993 15.759258107771052
Sb 12.881366591239484 15.919587921817302 18.780184842769728
Sb 9.820603814277057 19.35991709275902 17.708291876145967
Sb 16.632087620311367 16.45807870210319 17.00794933319158
Sb 12.321408945445143 11.389105639124434 19.84235719551911
Sb 15.038408802413555 10.370178546729159 19.170872057663587
Sb 15.758211009385183 18.928689247631578 15.707445876721769
Sb 9.579005249813612 13.082982691970972 17.416941255022163
Sb 7.55696742092871 16.388943982913442 15.770127393121676
Sb 12.603861806951164 13.29623608412542 17.643693753864117
Sb 15.684235930645457 12.795987648000319 17.84400868642386
Sb 10.47882574139212 19.330780989982248 14.919111002084941
Sb 10.360148914095191 16.381801341846852 14.94569254953561
Sb 19.23275629781886 17.24566838517903 15.923912653553613
Sb 17.71520378914858 9.92724898174155 16.75179635101025
Sb 15.481618632121547 14.887878280622921 14.843328059896658
Sb 10.12490747464144 10.768439620962665 15.718790839936233
Sb 13.643495883896737 17.143406817935066 14.934226087748508
Sb 14.047824584892496 9.03901091128414 16.79638652757006
Sb 9.290770196076691 13.228409372851987 14.451073323066426
Sb 17.83182979494536 18.517557277919682 13.734077243764109
Sb 12.074737198326039 12.490536467039394 14.480899237646826
Sb 14.642139806965215 18.569524934347264 10.415925407949345
Sb 19.79697656874776 15.285709029029452 13.888055259063645
Sb 13.025453918738181 14.71994067019789 11.587617729486505
Sb 20.274392216517494 10.791269811060001 15.603503164021907
Sb 12.677761929899386 17.51172603740247 12.21330579615077
Sb 10.169687787046897 14.83758752041154 11.344647684812522
Sb 16.286122972229236 7.653354430575793 15.639677695845288
Sb 18.44810998868513 12.970110233944654 14.956060400870781
Sb 15.826112506897989 10.297818342726611 14.56458629978792
Sb 10.42414511861942 9.776620980375235 11.065277692436391
Sb 12.838514983463746 10.595487469120224 12.389489160209502
Sb 17.189111675804682 15.880964289769086 12.712797990118261
Sb 16.535538805061982 11.897718493772842 10.543886863700642
Sb 16.59153639147154 16.669868211148504 9.39970275827303
Sb 11.893885863618886 15.212770816805191 8.973933096003059
Sb 12.760545656137923 17.92059638189416 8.330340858804115
Sb 12.401580846874943 11.266834965684748 9.592331099362434
Sb 19.650255075215462 11.371257918534353 12.861471662972848
Sb 9.738519096329215 12.33850250023669 9.91865429004885
Sb 17.499655161668382 9.653733698204418 12.124431365026608
Sb 19.107972021870005 12.675152126308525 9.4590413876518
Sb 17.61603272914516 13.573284169185147 7.135602227093174
Sb 17.47704229260938 10.822951422659806 8.038393305754973
Sb 15.157314113849738 14.368296285844865 8.471047822642387
Sb 15.05209679188282 16.797256968302108 6.8842736122016195
