52
Energy = -202.55046071 eV
Sb 13.787165814222565 10.544471119264283 19.441069057093735
Sb 14.742096617986002 13.29827366059181 19.745302750259867
Sb 12.599290283420666 13.961047159849034 17.9689460411371
Sb 10.45421674110871 16.407700414867534 16.631981312662585
Sb 14.164227316731663 16.802927372169062 17.97964231377404
Sb 16.439028330631157 12.934050054569203 17.365369762316917
Sb 8.41828898740527 17.592103586456545 14.886943047213878
Sb 12.870261410365995 17.675314127079215 15.625638409270826
Sb 11.16825072281487 11.457928383189664 18.60249005884445
Sb 16.290363742194124 18.622603778400656 13.87121643838664
Sb 7.308674680435331 14.946306148334225 14.945294316572753
Sb 8.738778423859891 9.587793885809544 15.338148842596402
Sb 14.079996705684058 12.745215872673468 15.713052618936533
Sb 14.36945714943752 19.048108941249044 11.709120268360381
Sb 16.625702669846973 15.926356307961461 16.837122023891023
Sb 10.230110530016594 17.542955098220745 12.633118127172027
Sb 8.152357888780909 17.106055645641955 10.64720286507059
Sb 15.0900259646458 16.027400932031707 14.382448435398548
Sb 9.931465811878809 13.890086224537317 15.28132889975101
Sb 16.82524114030843 11.767257314348935 14.092583141506289
Sb 7.969263561591663 14.532429955412386 12.00102505122929
Sb 12.722148372097685 8.243329684793906 15.565441993696796
Sb 15.001290539401927 10.22124287419401 16.850118331884453
Sb 11.337323669868304 10.796519665441705 15.775649079988494
Sb 8.804900780212646 11.34332191799843 13.034395634620918
Sb 17.53224738464013 16.4539745745674 12.455486201181843
Sb 15.62265103074722 17.664723350289513 9.442985083941455
Sb 13.791445561648262 16.244662290954015 11.08963647677834
Sb 7.680474606122806 9.636861187017775 11.054979433926515
Sb 18.94332612987427 15.20924750207619 14.47585081695072
Sb 11.511411567937804 10.994371412707919 11.4470906116997
Sb 15.119772780595047 12.612224833182664 11.827523806848395
Sb 13.888793305305873 9.129075037838469 13.056390632551839
Sb 12.823010492236929 17.707702234577262 8.801656113947939
Sb 10.185793644263246 7.259575565958159 14.294241437931397
Sb 7.947102097029971 13.451297191788276 9.223934954941162
Sb 10.832089031046005 14.691584402896694 12.421082928827216
Sb 13.84053434047585 6.4603688470390805 11.929375391753844
Sb 16.698698670443296 8.90196273159815 13.718932199027455
Sb 15.668951268648021 14.37472968827552 7.812980367006772
Sb 10.267105872534849 8.36571019913074 11.63925637966889
Sb 17.501426175245435 13.676417098534117 10.567243856645113
Sb 19.19326196612999 12.8180492059416 12.830631532349791
Sb 10.082091719608494 15.329466145639273 9.393510842729953
Sb 9.481726440634922 11.022193923563195 9.230607218262193
Sb 13.401943861263476 13.253957450510201 8.889575398322359
Sb 13.25791438033708 9.41773719875309 9.18076536450817
Sb 11.95408244221642 6.886119003078211 9.76923376754523
Sb 13.07854115143905 15.395914733552077 7.008092590209598
Sb 15.402368599507762 7.4921862914499755 9.71590611785348
Sb 16.371968046524852 11.103342373166564 9.725384820971772
Sb 17.643701480924147 8.875418211114692 10.998030603594227
