50
Energy = -193.35120028 eV
Sb 19.08459741137188 8.486507999358958 9.724423089397215
Sb 17.553184439624584 13.465609414958081 7.5001993569849965
Sb 16.82174506602747 8.6105681464847 7.9486780290786765
Sb 19.872950335778715 11.1578520723224 10.489476883399078
Sb 17.445161750709147 8.093715505651964 12.236620334737383
Sb 15.051967972418458 14.699005627728848 8.26822907673516
Sb 11.777982984465329 9.57209203005465 8.327799709725
Sb 15.751723311689597 11.221026492237293 7.26619695896084
Sb 17.82095045957386 13.174270592804243 10.49965116199027
Sb 14.890655437983986 11.571364865914303 13.142241585340086
Sb 19.00125476901854 10.39008350731285 13.143636957737865
Sb 15.308512507246226 7.818929738461031 10.306345341716007
Sb 13.321571196039683 20.50718000799523 9.385716611873443
Sb 9.626704605867221 11.145105633571816 9.413009686032783
Sb 16.032865153769464 16.432623401430014 10.404660164089847
Sb 14.915825691324534 8.900565278644864 14.266953794226549
Sb 9.170807166792672 8.407273215728393 8.731379165486631
Sb 11.888036466846113 18.23813846096898 8.561117537361309
Sb 17.425246542877982 12.744352511632052 13.652289936836052
Sb 15.104341458628866 12.255472622493855 9.883229275750248
Sb 11.431528326614142 7.796809073081777 12.356300949191525
Sb 10.886700968069524 21.52447079375858 10.592455817610997
Sb 13.849628289125778 19.48409412902021 12.25163731692815
Sb 13.122022821571429 9.647232178565678 10.88182880172927
Sb 14.790614169954544 15.014464879175199 12.6273806939026
Sb 15.523492832039285 10.45876687867352 16.613166907548464
Sb 9.747490552474128 18.84674702000161 10.444274533073784
Sb 13.21572702219159 17.009938097311537 10.909637656907464
Sb 14.537619307869603 14.155218920336877 17.60888443545025
Sb 9.68260389041519 15.558681923896634 12.059413840811628
Sb 14.974195843214497 17.30794007977056 14.275094568727878
Sb 13.455201096576483 12.26387305043567 15.690244856691114
Sb 11.023310916353688 19.725100213129288 12.880552486560731
Sb 11.989123607745716 9.611113232127801 14.602320166249925
Sb 9.067227945892144 9.208684957274759 11.52107354396667
Sb 7.962554775488845 8.492913880421204 14.787837910654138
Sb 11.40224698736841 14.794521981013663 14.393783168838896
Sb 13.797840163850834 9.54150796000262 18.721544613128664
Sb 7.692704900141943 16.77693783861576 13.705063364383474
Sb 9.209590524766234 11.139409433610094 14.561156658712989
Sb 11.98967715779778 15.40143136096902 17.579080108600103
Sb 12.315836858142681 17.3157000440299 15.39082425965592
Sb 13.009143920099584 12.308751711801817 19.284350775110845
Sb 7.573562005406783 13.929323688019947 13.225141719933475
Sb 10.745283529243336 11.920834562731754 17.378874590017404
Sb 11.255770472732134 9.049541570764765 17.3537851698771
Sb 5.549916909594955 9.898659944017654 15.480176315479806
Sb 7.201752969136835 8.86341425175681 17.55427898001609
Sb 8.795722258805469 14.929082258355564 15.680308843319846
Sb 7.466975160464926 11.672133306503456 16.872869997599746
