51
Energy = -198.84801828 eV
Sb 8.460899593341523 16.684644112175345 15.52927662455144
Sb 13.500389606989884 16.298323334028606 17.629311188754134
Sb 11.091380168296135 17.39941195247515 14.456513955979837
Sb 9.926770047717822 14.790054741206601 17.226273815848735
Sb 7.4904210144758805 14.481643370340645 13.924344787045284
Sb 16.09728680239595 14.957997144889955 17.933163357867908
Sb 15.335289841774745 17.984893514094406 16.075752632542972
Sb 12.188190895545253 12.688838514574094 18.670997555008558
Sb 14.165955291501952 17.911034953580913 13.424153286544648
Sb 10.551949144951909 16.74248473990723 11.728848556153501
Sb 12.209355521819274 14.887866676634259 15.408215276885674
Sb 10.2717584776921 10.460682894299032 18.612748800089037
Sb 8.501296354484 12.61500920713246 15.945521601826396
Sb 9.701979623228363 14.026773756062322 12.080897738249083
Sb 16.8838352343113 18.343639518305967 12.488997824975321
Sb 15.84811252092994 15.284835789696936 15.122252545163246
Sb 18.429771192640942 14.592405189721445 14.148558262303268
Sb 13.287543581548645 16.170515513631134 10.520640675795105
Sb 16.153947473487907 12.058678492598577 17.79394041650346
Sb 10.712982171402576 9.101909789900237 16.09226851307415
Sb 13.629576269009469 11.369005703412437 16.520167828292973
Sb 13.456628690288605 20.52089764772314 12.32063080225654
Sb 10.591335580694023 11.413813868919409 14.322360991030527
Sb 13.100596285716454 9.987068605201916 19.044990822143088
Sb 13.173757403959941 19.141535323325773 9.849684324099863
Sb 15.740766687303138 20.207843496437565 10.57914582195644
Sb 8.566129081378353 9.370779851533497 14.138058294200492
Sb 11.29635970044078 11.04526859798799 10.906501496632522
Sb 16.519657503764318 8.659029449623914 15.504860682837778
Sb 18.466351652873854 12.366203642667795 16.024998296542552
Sb 12.667204256865006 8.30586923537655 13.36810964833388
Sb 7.771156270045514 14.562709504351549 9.963457129576371
Sb 13.900197414982307 5.730010459148117 13.583773465024501
Sb 15.55842296054485 10.52131702697229 13.442585813618289
Sb 11.659535949432644 14.1440557941388 9.120524567105996
Sb 9.388717687879208 15.12425062499581 7.6221537840518705
Sb 14.18009259978516 13.762531963388405 12.171229963642826
Sb 17.047772973436363 13.689617187477436 11.670739521014289
Sb 15.675249062387982 16.236470749285633 8.645703790309256
Sb 10.028613139823404 7.3107728920289965 12.67178439721946
Sb 17.748968243012328 16.297154994027803 10.620529319590332
Sb 10.880448179334243 8.36316654243946 10.068208176449213
Sb 10.316682803413741 10.801878495683889 8.248594830329557
Sb 18.3769242671916 10.28929059214079 14.047710149878254
Sb 16.649133792244598 6.645036621074605 13.430919083485984
Sb 8.046159496935283 12.569316896120096 7.908470089124402
Sb 13.745457934561086 7.053581970164395 10.96060351940019
Sb 14.126307932763584 11.557777275637239 10.19986264333936
Sb 13.526522965235069 12.626639990118155 7.578653626675038
Sb 16.199516792270085 8.649363659423239 11.31927314221366
Sb 16.197891070562978 13.519337108105832 8.38358260446167
