5
Energy = -16.02607743 eV
Sb 11.276295204612884 10.784349903489716 13.918454828384522
Sb 9.177288960667552 10.416346823986787 12.217325187324551
Sb 10.02398170648482 12.988608940104973 12.511773856013054
Sb 17.030986339369278 16.30763068312879 13.735690446842083
Sb 17.526172840389698 14.099620917522724 12.654915668827208
