52
Energy = -203.08953829 eV
Sb 14.374970487062336 13.171776651452051 18.698023716547766
Sb 14.365838868002545 15.7513674964546 20.02070988751276
Sb 16.938566743310705 10.79123959454038 17.637449602263608
Sb 16.105576887418067 16.66065966792666 17.853141368510904
Sb 13.106310020958775 7.687546933240289 16.79551443555286
Sb 14.92097494984665 10.363876862834932 15.640054114678058
Sb 18.050873973919458 13.312567581834916 16.666073281890863
Sb 11.537060173912499 12.554405686164458 18.326835865715033
Sb 10.443283512881793 15.201355161763626 18.324595247734482
Sb 10.76216161468339 9.329978545032297 16.285565059806327
Sb 17.31889718229952 8.759822823847891 15.65383137970443
Sb 15.359132935437785 14.362810046603347 16.230195753853152
Sb 14.067166993529703 6.73197809338596 14.267764601998875
Sb 13.417242546632071 17.642206042505116 18.06337724787495
Sb 11.520739458231184 5.735170387488797 15.213509845954897
Sb 18.11349270956496 16.35215144400326 14.790706761447648
Sb 16.044126082940476 12.072752453135005 13.263438645164964
Sb 13.308034252767227 9.140875033518647 12.836545226297694
Sb 7.943845794473862 14.21566814215513 17.29643435232841
Sb 8.571777267444872 11.991747553702254 15.571242037191439
Sb 18.79772573390159 12.829503344083466 13.918074494845492
Sb 18.2012856865485 10.09599294253025 13.234041231238143
Sb 11.487804543296214 12.032287782627039 15.446479686746097
Sb 12.20214340802544 15.884176697193254 16.10584501361729
Sb 9.653390458249715 7.687876233674716 14.17645953230503
Sb 14.812394226534325 8.867422300991622 10.3876367894518
Sb 12.456019234857019 12.089356296215708 11.427235953395561
Sb 18.272956722421377 14.565606471251368 10.888630337927461
Sb 9.696060481003407 11.415559567293789 12.037539032471281
Sb 16.36860676238125 18.81124745567867 14.681707561450539
Sb 11.206818016249423 7.5338065753465475 11.738852958693498
Sb 10.324617703730416 15.089727681146083 13.241434000093193
Sb 16.205867720384187 15.695950099607279 12.667114728627167
Sb 11.63810582870624 18.520810740628082 15.03965130192251
Sb 16.46041066635261 11.347851804177457 10.433320308532622
Sb 19.48028575607537 16.883219915257765 12.242288366080887
Sb 7.754847562107585 14.531990094063502 14.430275889740553
Sb 12.684700427517535 10.392578674961936 9.105379637984687
Sb 10.022056531024157 9.41333689063266 9.912638171974345
Sb 13.950602720621387 17.860386590539363 13.449361513202845
Sb 13.552282278602785 15.168552168104968 10.81284737072651
Sb 16.982773160047095 18.394808480913138 11.837154913182191
Sb 9.727713958788842 17.89356138876206 12.880265580660174
Sb 14.887520504264511 13.25192029044123 8.885524982633592
Sb 11.427908538042177 13.891894178716326 9.313962119534313
Sb 8.966035456911701 14.020966153040877 10.898778672143859
Sb 16.83252582819843 15.358007428050694 8.453375462796448
Sb 11.755972899525906 18.027025192846157 10.789961154520705
Sb 14.824353709419086 17.345320200118284 9.3376090736816
Sb 12.791208408875406 17.726253605015163 7.177759213904111
Sb 10.313909971699005 17.01599835428531 8.47996367202845
Sb 11.229098976612951 19.754991891747242 8.484139168639441
