50
Energy = -193.8657621 eV
Sb 16.896434399807344 11.343172072993642 17.616792085341434
Sb 16.47262061267665 7.762225626775124 15.440657600951145
Sb 14.386032969548818 11.57441066227433 19.05177896602522
Sb 16.020322434410673 13.330410996060749 20.767999512381383
Sb 13.930552878054 9.044650477583229 16.05563392672428
Sb 17.780407511535053 13.917324382947875 18.48359556376092
Sb 16.981398007501376 9.477412862866203 13.198915846245251
Sb 12.900664714672999 7.741896361820381 12.387825812307582
Sb 12.081729692997648 13.95207033945096 16.045803817263895
Sb 16.12761363375203 17.864633949070623 15.766288735999169
Sb 11.144440498933008 11.490308385508682 13.863242046420861
Sb 17.602369566574374 10.466181134582408 6.095235296407176
Sb 13.115622728356815 14.112570407531877 18.75166736709879
Sb 17.478430394732914 11.856268637782795 14.813373409115094
Sb 11.014611449929308 11.333832861397363 16.73918739131419
Sb 17.230827314378946 13.610703423971872 11.70965282267643
Sb 15.526939441350464 15.631661023875374 19.043958724944495
Sb 17.315613763853385 15.221141948217076 15.396804011963368
Sb 19.373597462165176 12.391706415817133 7.243723866254022
Sb 18.71955570351316 15.853068264409075 12.883367881082949
Sb 9.412628197197323 17.592831053845188 15.109465214868575
Sb 8.184383384679622 11.412848194701615 17.432984100893282
Sb 10.821275366575524 8.60464605766852 14.274342930274686
Sb 14.00995359334833 6.430546403609205 14.752735646108905
Sb 13.476672963886386 16.97396205694756 15.003674880496643
Sb 11.733006542952172 18.89234727883535 16.26493342685249
Sb 6.98973674401578 11.080381072065219 14.847806980338369
Sb 10.56996994527513 17.920998048228675 12.458325709042242
Sb 15.33040207454926 13.624977591176865 13.948549977095418
Sb 17.05228124404857 18.25358950335167 13.006536063651739
Sb 8.806681881898083 10.169233504358932 12.834092995628245
Sb 14.161011697236138 10.189246069317965 13.344940818336054
Sb 9.620096619944555 15.262488116226706 16.762013966483423
Sb 13.56750007053176 18.254417080101753 9.46491362997457
Sb 14.79422149544438 16.934485738847304 11.779647420019778
Sb 8.63670919459569 14.333867108885679 12.445796607451664
Sb 7.292331645364872 13.746610811162833 16.004133585903237
Sb 12.767159290882931 19.397581826432155 13.585625467307779
Sb 17.51540997451524 10.994905955807452 8.917069313978024
Sb 16.453589114028517 15.670262413177841 9.846025037142617
Sb 6.127027650066155 13.960794533908896 11.133029178614699
Sb 13.719604182860717 12.126639043719722 10.366856362162014
Sb 7.31471455464949 16.57895146489887 11.21279456853317
Sb 11.028462324903376 11.286489235594294 9.832301608872342
Sb 13.22675526300987 9.525732017910402 9.209692848693251
Sb 11.549760732861197 16.31181034595791 10.195178266822406
Sb 8.482126320848126 14.550113509324971 9.575795275499523
Sb 16.56925881459671 12.956567502053387 7.0692110336402
Sb 13.849722359918205 15.493833238957782 8.579442364145953
Sb 12.816399089118084 11.907177488297375 7.649956469932044
