53
Energy = -205.25368475 eV
Sb 16.780647613690615 16.43412436022106 18.921164435286332
Sb 17.562423474511913 13.692706297873373 18.705901121005912
Sb 14.697561302390522 16.04739119943666 16.855588009968734
Sb 15.277486171984012 11.988825420146787 19.15719131408057
Sb 12.909160217951946 13.385769464408435 18.014391207355988
Sb 11.748311449273723 10.742695137279524 17.842251219105272
Sb 18.32192576951678 16.6581305158851 16.47811972973011
Sb 19.623101115679777 12.884981322727349 14.729052807210214
Sb 16.064233588909822 18.24104857349106 15.674663352585718
Sb 12.093537201777774 17.217510409650327 16.702125442086082
Sb 17.114990896899773 13.945121844759933 15.761770722750787
Sb 15.873503505931962 11.195242377056102 16.431167129431856
Sb 9.141122381209424 11.068126166525976 16.45778442588496
Sb 13.43079769627463 8.21850035068608 14.661095363448807
Sb 16.951760480080278 8.545813321628888 14.85261747616014
Sb 19.01551178602281 10.252241472174875 13.710147181262068
Sb 14.270520967339266 6.583498521397199 12.387232064858877
Sb 8.962092681557419 14.032433433600668 16.689573179604807
Sb 9.878078727269521 10.476156030719228 13.629931000980582
Sb 13.18649696701522 11.716774765041333 15.559285247646299
Sb 10.467987944723783 16.88413505287395 13.336302386708178
Sb 19.753225863859942 13.350867334817076 11.859895257253099
Sb 12.762726250718304 18.487698323615877 13.98596922102708
Sb 15.261139568478269 17.189895039199307 13.065492700723786
Sb 16.265244339277725 10.887496297598394 13.193979305916745
Sb 11.411048416383332 14.802459401244365 15.325245092069258
Sb 17.12327706345032 7.141894340381591 12.229843968050004
Sb 9.542109478667287 18.770053410245364 10.999306509957453
Sb 10.909971337524281 7.723459681245874 13.2926121172666
Sb 14.781727254150079 14.426706152602595 13.703481161788787
Sb 8.679041257782254 13.48294720074935 12.877248532723021
Sb 17.24397113364322 12.731415798684544 8.969453732684164
Sb 12.2400969664466 19.32082069529329 10.767768698472848
Sb 19.08207449325784 10.953733162374279 10.297822743002463
Sb 13.057126588380036 9.171778039019657 11.975910571921633
Sb 17.847373024579916 15.104305225021514 10.515721546117378
Sb 6.95860116363386 14.900873436286522 14.730359126517019
Sb 12.155805229262885 12.712622829789527 8.869552931536138
Sb 6.7011401981348495 12.051432837606356 14.566990550082624
Sb 13.450484098102692 16.782615215024098 10.095753107608564
Sb 7.602562866409964 9.154374581052716 12.292632666648736
Sb 11.485288460651962 15.066664498489779 11.344140687568768
Sb 16.528823460669145 9.509561947573214 10.667727768228696
Sb 15.256483059268318 13.923490678639647 10.804957166448169
Sb 6.996905755433552 12.913507750121711 10.544965307663787
Sb 12.809391471712816 15.583076840103864 7.549516702706031
Sb 9.178152686531362 16.122518352748926 9.946169824029386
Sb 10.828861138065625 10.043750459749768 9.172383025209767
Sb 11.13533731716583 11.299508330167042 6.566457578302331
Sb 5.398331793927161 11.076682678507272 12.192795273795904
Sb 7.984407271407296 10.324293223673946 9.659280092739582
Sb 10.043039388242336 16.074057685053436 7.187951267094169
Sb 9.493641738261264 13.25467006657363 7.907213526571219
