5
Energy = -16.14368568 eV
Sb 14.025913884609254 11.690883540541593 9.489708487223377
Sb 11.676656708479321 10.974749816040559 10.476834037642618
Sb 10.75714341680472 8.725880400211997 11.813407477777895
Sb 9.39332526297306 12.603496862872964 10.664979083971758
Sb 8.48021724755716 10.33722626702777 11.927229084142366
