52
Energy = -202.38470449 eV
Sb 16.831937552868855 10.801530356480557 11.283641388028313
Sb 14.298125596871685 11.435711754503377 10.012487056820735
Sb 13.89136693954985 10.769250334777567 16.669664831729914
Sb 6.889504240117232 12.281496644176686 8.526395271060661
Sb 14.518851635262898 13.59700774076235 16.53907193589465
Sb 16.82479989191967 10.300997940485674 15.807833508431496
Sb 11.620890408499838 15.344418393422742 14.476245275400888
Sb 11.450537422222052 8.650272892678064 14.915684811863214
Sb 11.299139875904963 18.17741975980442 15.049261400965912
Sb 17.89637581361618 13.179508436283424 9.989913317901244
Sb 7.941277401639193 9.736277044737145 14.240263439019449
Sb 9.677131824401947 6.654324439376298 13.797081291044844
Sb 8.843736034655835 14.420823192366901 11.900388379262694
Sb 12.378052937382009 11.914158831704505 6.926560360627257
Sb 14.939897289142385 15.700177704377156 8.876470683253203
Sb 8.61295611286337 10.100521128419006 7.40341844639941
Sb 12.003098939201012 7.727565827901004 9.08765166672582
Sb 9.42738374619521 13.624175946554784 8.214384208192898
Sb 13.57669549932916 12.21628590184981 14.189170329450258
Sb 15.774005802780755 13.007357155059168 8.049586022385226
Sb 9.743223645082127 12.181705826520545 5.693462858497402
Sb 10.71957256357615 11.113212681477712 9.168845976866615
Sb 6.609297704454808 12.017369801761905 15.41054552419059
Sb 5.640464713894217 12.793203489341828 12.81860568408232
Sb 16.154414244847516 6.690706895793701 12.552846172080818
Sb 16.527710911711363 15.426356511099153 11.299644997686809
Sb 16.47922557995964 12.274012570502649 13.763360459836607
Sb 13.9472060460612 16.957516663946436 14.896220988099728
Sb 7.774781958015675 11.720861031091465 11.223056239330894
Sb 14.155017745156588 17.61522589935729 12.084987394913153
Sb 6.487019923510475 15.711310328968072 12.95985289471518
Sb 13.689096891719785 14.852678314010731 11.32004486535738
Sb 11.811304059616376 14.460094089109212 17.242533753457877
Sb 7.870899916150263 18.24665912869042 9.849323507126641
Sb 13.454180645258871 9.38773004756089 6.077789941775641
Sb 10.801706278944204 11.765570039549242 17.07555192805138
Sb 11.533400285536748 19.099124175359766 12.312714899124767
Sb 15.319172936150531 7.96609471297933 15.011533582778435
Sb 10.091922780645888 5.623213080182275 10.255630533697936
Sb 14.714278851144877 8.932414837472484 8.571041083240909
Sb 10.288976698359358 16.929988019256918 10.693543905284802
Sb 8.54281452059818 18.16144411443931 12.640003554504137
Sb 9.431637026195695 12.19149936525124 14.641539444454692
Sb 14.162035748324724 8.791672406464286 12.522204423262309
Sb 12.906010835085016 5.831724291750015 7.110324761052226
Sb 8.99123453585346 7.9865573046888825 16.298399233899016
Sb 8.731788840261192 5.997322275248433 7.8389873970088075
Sb 10.770297977216396 3.9823673465638434 8.023340824646592
Sb 12.153221351890833 5.856987157849282 15.07543564736818
Sb 13.343435651184482 6.008427068121335 12.388526288212914
Sb 10.881695527880586 7.740861873194687 6.3774706316039635
Sb 6.72875842921613 15.541159071267385 10.11994098926014
