53
Energy = -205.46693412 eV
Sb 14.181771588434781 7.361427523987064 13.19664660603914
Sb 12.015800408119127 6.819044017412678 11.561377935866782
Sb 11.793013246737793 6.254412148858057 14.35926251112738
Sb 14.540573602548207 10.9494245527426 11.226501543472857
Sb 16.622125136302408 10.52195168242437 14.937003665101798
Sb 14.267234842311963 9.693385788040638 17.656644239624388
Sb 16.822246666696174 11.119090781228454 17.69144528469653
Sb 13.376293591398825 9.86843248509123 14.77928053531422
Sb 18.500248837191037 13.676367900798084 14.99346490376772
Sb 15.627126920226177 10.293558931286352 8.541176274997307
Sb 18.24319663629625 10.389230747093993 9.721865561086132
Sb 10.989695026448176 9.813609442124 12.243770235826217
Sb 9.88536826303982 8.46923309856198 14.547566394064255
Sb 19.850608709315473 14.409034796708555 17.451886302975815
Sb 17.196117529216533 12.69320067278688 8.386336990376078
Sb 16.977482015709505 12.526833240785322 11.275941256707256
Sb 20.24210008858217 15.291145587119502 13.330170694185696
Sb 11.493144257797045 10.165131137013267 18.83394250689065
Sb 21.45604519335178 13.54361035130679 15.239323845261136
Sb 14.61983569753915 12.45116233103803 14.201977007221561
Sb 13.385291933657982 12.496150426068523 16.99690603739173
Sb 12.272808866420828 12.65131249988164 10.549263890435425
Sb 15.651217853927022 13.88350992301342 18.172883810797163
Sb 15.86980299770916 15.628696385746549 15.81813236009446
Sb 8.26686062571237 13.311884898828565 10.43199673648341
Sb 8.735498935721111 11.686052012982676 12.820117238535968
Sb 11.05104594879708 13.069070657290878 18.954973775858246
Sb 11.372790786160412 12.718379438187599 13.35018771609063
Sb 19.843581741611224 17.28203229404483 17.379948441331884
Sb 14.09637522353497 14.756683300511451 9.695182427883077
Sb 15.386740964831644 15.781243101344371 12.050514915214215
Sb 10.618677173917359 10.788021719971573 16.164982148324274
Sb 13.080668224522322 14.743591936501755 19.971816923721605
Sb 17.012719206788518 17.243955503635355 17.975718578911586
Sb 20.368342463796836 17.85031076822646 14.598580333712517
Sb 12.521130451811983 15.385247387561373 15.975880143741588
Sb 16.373226600055297 17.478355832555508 9.932733194662806
Sb 6.796551216061761 15.536576513307905 11.564684914223426
Sb 17.57105224838522 18.353304551911044 14.051668289899151
Sb 9.769597315870373 15.469174243349537 17.041700401211013
Sb 9.599375945941274 15.801059617367446 11.014966185649588
Sb 8.745820683641194 15.238904665433578 13.72118717017801
Sb 17.23748744896396 19.760408590261324 11.547300519767914
Sb 11.836064245255132 17.100123161672176 13.740117404823257
Sb 16.647633941346353 20.1053296326064 17.766529031025623
Sb 11.928512424814286 16.89370851946253 18.3890572916155
Sb 13.54904059413606 17.477269155031827 10.57076227697335
Sb 9.381292767629796 17.72769211673678 15.159171542054404
Sb 14.595100964371492 20.465851282472528 12.4676895707111
Sb 14.004461730837086 20.383775097012474 16.608127039528203
Sb 17.97262270710411 20.894367519793075 15.30993918354928
Sb 14.31071984383778 18.40272415332532 14.532287962241675
Sb 15.40094185362395 22.138759717384936 14.71976212041479
