55
Energy = -213.88257437 eV
Sb 15.459594233124363 17.638983012340063 10.754893310525985
Sb 15.248682230824961 14.76227126662011 11.844820518632096
Sb 12.418419861646449 14.388675099554371 11.197989292233597
Sb 11.438338092164045 11.150752996852175 11.836505622991618
Sb 11.298312344758427 17.129471461159685 11.631181202109575
Sb 13.533826746042601 18.735996712985436 12.495938190425354
Sb 20.323803582917183 13.274773671424853 12.599892884733803
Sb 18.040404861299212 14.289053694467702 14.17236753248233
Sb 21.03965441856653 15.635969368118554 11.154111605876937
Sb 17.252457211786094 18.85846478772295 12.643362261214323
Sb 19.774236730678673 18.27826984695593 11.405864294445838
Sb 21.4796157240205 19.10621476555821 13.578060001326643
Sb 23.197801405611862 16.872861792504665 12.655269777242935
Sb 14.317676150238455 16.37220602223094 14.119655525527357
Sb 8.859792890371338 11.279176258137555 12.86005605285092
Sb 12.450696819408991 11.260122424361192 14.510293171851561
Sb 15.428813867148811 12.869972340354616 14.358049319817752
Sb 18.972596847790744 21.733169261372844 15.594054520142823
Sb 16.20175472993619 21.615098285721274 15.34047727744717
Sb 9.91460510793657 17.1217652691515 14.17276202381297
Sb 17.00857110001655 17.103916933395073 15.01428158485768
Sb 21.88896496498321 13.1773056711577 15.015066134511281
Sb 9.765137511229455 10.842616709552903 15.584842133134297
Sb 9.087193881906801 14.251812300683218 13.94595371371925
Sb 19.54523045899267 13.853976739245548 16.618749867408276
Sb 11.934781011526209 14.131048736816073 14.091806281487859
Sb 20.328908389716013 17.0729083416406 15.264247710471501
Sb 15.033571145052003 14.628304732940919 16.510994032035608
Sb 19.091790860403364 22.37211806841689 18.35713358028997
Sb 14.40885103575375 22.779932574586027 17.327237740983417
Sb 21.297385083547407 20.49996371144416 18.2702062872741
Sb 9.372333392844627 13.505144942437994 16.687209637475597
Sb 15.089752416591113 19.16389566176893 16.354384169648636
Sb 19.701080390526766 18.11110005406542 17.921384753139066
Sb 19.190817829933486 11.104083619351405 17.439907113780706
Sb 16.424073167001485 10.645533771184152 17.1388781132751
Sb 12.728590472194607 20.86973667962853 15.938998462403164
Sb 17.398068782229636 20.18363486127469 19.191132743251025
Sb 22.913167490264406 15.845691328188234 15.339268808064839
Sb 16.241937256243382 9.87586642437389 19.978566078065757
Sb 21.519729786613116 16.995685090519405 19.843062632803253
Sb 12.08624899976289 14.600538205160559 17.4107591146254
Sb 14.855764982950445 21.453964218320195 19.872394265183498
Sb 17.937586607870774 12.206434998423168 19.956382773404126
Sb 15.15146782214996 12.457201950008713 19.201149245702904
Sb 12.017099428612772 17.208213991364143 16.195950076458658
Sb 17.188618645162787 16.30848086562118 20.085282751653732
Sb 21.44073116611307 19.598228854381585 21.043079147545896
Sb 18.691305524161343 20.102645535325852 21.78566939883303
Sb 14.167670474015857 18.772036522237755 19.133956400840756
Sb 11.51150522544158 19.35475029491962 18.08597834655435
Sb 19.545104110059068 15.558520624445233 21.62567508947985
Sb 15.53911097229286 14.431113336377651 21.63073260787105
Sb 17.695802614261943 17.52989012847423 22.632714014444833
Sb 17.760098401404246 13.239570442776252 22.790496061731584
