52
Energy = -201.4279197 eV
Sb 15.2012479182568 15.663666266934053 16.325986289251983
Sb 18.341931379011402 16.682750250317664 13.710884516831003
Sb 13.69729448124381 17.91660460763301 15.943398732847681
Sb 12.764915377221888 18.04075615326126 18.646473406179506
Sb 14.867840746317054 20.06939691465206 11.066792799319368
Sb 12.675677357122815 21.948668659603108 11.270388155317075
Sb 18.267306958964976 13.807302655965636 13.563988818230538
Sb 18.661728044281663 15.579158603408768 11.027179632314756
Sb 13.686647031037353 20.536855781298154 13.628890879622993
Sb 16.011446946130953 16.155674988082396 10.350369729350883
Sb 17.259165729618264 12.909943860962226 16.26282204569126
Sb 15.521505860505247 13.399678694737258 9.76421181749143
Sb 17.626244414958347 11.18956658512701 11.398774288993263
Sb 12.37696438405184 14.27276397841055 16.97668278234276
Sb 18.467300559483178 9.212279481498713 13.386523270493282
Sb 15.791695346104687 15.372854799316029 13.371374880224169
Sb 12.488379078820731 14.154868718115425 9.809052670314575
Sb 12.948291443580027 18.230185409193584 9.904470838109265
Sb 10.533412794421325 16.29893688918981 18.062554380800165
Sb 12.68839989980616 15.32113759002935 19.663704525975202
Sb 11.311640154097299 18.905117907057253 13.555109994633671
Sb 10.712937322591186 19.83323672931462 10.816980587451093
Sb 18.314830531401494 10.281390748100218 16.091557288849316
Sb 15.988907004889464 9.066072215382551 10.208314820705818
Sb 12.520914437433538 16.625097293470997 12.255366773808705
Sb 14.816063271711016 10.879310880546967 12.079003605725825
Sb 8.634295224524248 15.5384067838003 12.91627407508348
Sb 15.851127601423164 9.212055663792125 19.252421073722534
Sb 14.670456029655114 11.40855719245775 15.932092003541154
Sb 10.216013972172307 16.002477685809573 10.561745918093305
Sb 14.627635625089741 11.796872365690971 18.815681947346995
Sb 15.783954715238727 8.204746186724652 12.99991605434202
Sb 14.420105306880018 12.694085608793031 7.198660056657495
Sb 11.527464230707434 11.518581183875336 10.37635765043851
Sb 10.655273812270007 11.975677688138711 17.76024892983779
Sb 12.03736007533738 8.109182727108863 12.463984134484855
Sb 8.769321264345253 13.632459184299032 16.28231144979371
Sb 10.57450858940495 13.705037789198531 14.015196150340673
Sb 11.743236784400777 14.096918624608247 6.900098649214417
Sb 15.72309786533439 8.733876433991982 16.373316599088135
Sb 12.629638772967278 8.349979321396251 16.891041582639506
Sb 6.993922496401041 13.23847500648449 12.261661367754353
Sb 13.10828527870161 10.331123023905596 8.193747127128846
Sb 11.693049136266586 10.588252145104624 15.482957567348148
Sb 6.981092545335331 11.86662964574973 14.809663676343906
Sb 12.964547812196281 9.522942412808565 19.490817992664606
Sb 9.655910143197286 12.598667941939471 8.394800941776133
Sb 13.193368508874277 6.558239190271526 10.334198926333489
Sb 11.127229837037065 11.305170371474505 6.275074592193517
Sb 10.569134229079701 7.663504903154992 10.03590319837681
Sb 9.1420675883315 11.380929476190406 12.938808551507986
Sb 11.013108348728817 5.494440219468291 11.866805474525743
