52
Energy = -202.94624964 eV
Sb 10.61474697993143 13.0262239622155 12.948196740760329
Sb 7.802577874156528 7.949473937688788 13.678707429993665
Sb 14.818141327820213 8.581263260924436 14.453025943895929
Sb 14.848545377758413 12.149558834946482 18.111408099495954
Sb 7.821006498989581 7.187754065852047 9.184843482159774
Sb 12.628955817835438 10.457966902322925 17.300108468018365
Sb 17.30945757722567 13.614029781919768 14.160516939832121
Sb 13.52371013783956 15.337288243345267 15.616413372336465
Sb 9.7841164714917 9.823896435040576 14.783270057230784
Sb 16.54709844678786 16.334103811799643 13.895246396758361
Sb 9.875747096292658 9.127403503484055 8.677288502305993
Sb 10.511864935553254 12.218297704586705 18.12131404361372
Sb 8.249767766232692 11.76965635205737 16.313972199547116
Sb 5.797348006041733 15.669066961921365 9.164202969592765
Sb 10.094152828728182 14.422440058118822 7.347041002348902
Sb 11.242420402212597 14.862059293239477 17.3145930123978
Sb 18.087667988625036 15.956161682348068 11.397769038924338
Sb 13.436994448712781 15.315496712760938 7.82813903588685
Sb 6.215968597450803 16.140575648021553 12.004665909982911
Sb 11.577921445364176 6.065713117993425 15.750536656041263
Sb 7.398023349884758 9.989479561729414 9.832591718497461
Sb 14.298890221111215 10.854603868376934 10.496917736731243
Sb 8.74668671707374 14.178002690747311 14.803043258956846
Sb 16.47640935601166 13.536178789861314 11.0306374893976
Sb 11.385296327095725 15.457951482090628 11.753641706332868
Sb 8.710706373497485 5.9315986776702525 15.546272412891765
Sb 9.336006134591122 6.622145351657261 11.623946753241855
Sb 6.279151696531655 11.20638411212095 7.457988884299654
Sb 8.535459321672304 15.968279041394844 10.238716259559428
Sb 13.063600769729035 8.377368929223215 9.507806586365422
Sb 16.38890240785528 10.993910175784166 8.44088079865716
Sb 10.0272586413615 8.074428416888638 17.077065331498698
Sb 14.922188445185162 9.886530059805853 6.209069580560755
Sb 15.45049119983703 6.977190308322224 10.40975440292151
Sb 8.510999236774001 12.37922898743564 6.051683446912079
Sb 11.877656628432177 13.569822526164918 9.565215568473418
Sb 16.51035851548243 8.154072837527249 7.954383682293121
Sb 14.654966195402924 15.70414279603863 11.701346947521984
Sb 12.902656530983721 10.783384406185219 14.374589063496535
Sb 11.324516182090617 8.772507124222479 11.8335163515886
Sb 16.118226077055073 17.171000944858193 9.6109032477536
Sb 16.202176838863505 14.68753013400973 8.165333212223862
Sb 12.37076461032443 13.588400997289142 5.7338075004087985
Sb 12.458956072910507 11.09846309544828 7.2447982877277255
Sb 14.86222455215172 12.81116049340885 15.305925504480685
Sb 12.875838109680673 6.79397452904181 13.263956362939057
Sb 8.35047833432372 13.058944159959378 10.734635556458574
Sb 5.4761933277489145 12.915315207539988 9.665612895351622
Sb 13.854919347387215 14.872595309461298 18.500899127545484
Sb 6.573187065540454 13.415907876033472 12.98957997043872
Sb 16.241453766410793 9.260516504157241 11.985990807978492
Sb 10.111428327908824 9.984831040918813 5.922510951331519
