54
Energy = -211.0154437 eV
Sb 18.469391848918473 13.512188496758304 9.30912815818934
Sb 14.979446734484194 18.06813235430977 9.40703380373352
Sb 17.871620952415444 18.10336091241178 9.818575805668022
Sb 11.992933385307186 14.512675610136133 9.795568827376309
Sb 15.641800206140047 13.036375697018922 9.560084782979075
Sb 17.995164979200254 15.579903360485496 11.201446784674813
Sb 12.041259043896167 11.858412154700856 11.108922137056563
Sb 18.49861423023785 11.61248260559987 11.88635571099276
Sb 14.548553244325912 15.482053704929505 10.74415438204739
Sb 20.500504898958912 16.03635046071417 12.528364225555093
Sb 14.663818476714116 18.36463370304162 12.273602586981227
Sb 17.37996606720589 10.716088882649458 14.799668714139829
Sb 9.848771684993537 15.190819113371674 11.657837644778578
Sb 18.49245337150488 19.440698626827423 12.367710490343459
Sb 16.005098517238217 12.971771711857 12.457374690230372
Sb 14.27785787595541 10.644600518839589 12.54968506181836
Sb 20.80384909828427 13.126509730836611 12.73425157157286
Sb 11.22879790969298 13.296606482497218 13.390944573212527
Sb 15.981300785943514 20.89034133809028 12.350003804141194
Sb 9.983459324630005 17.57059320674176 13.375938411854708
Sb 11.98907578822199 19.459306045485604 12.479565395146412
Sb 19.253454551293903 19.380754429912635 16.15927967672319
Sb 13.22592259819679 15.219991993081619 14.48843410256797
Sb 18.43479203054454 17.184830404274578 14.302468482855101
Sb 20.29779689265673 12.82153697615604 15.535063159808079
Sb 14.18445102405973 13.255179236339556 16.3489562204779
Sb 10.511135957677958 11.413285711884036 15.321102705562357
Sb 10.618185972747805 15.871750010506961 15.619220491417526
Sb 12.343992394029307 21.14313214388171 14.822204371610228
Sb 14.734497867836824 18.244181417177817 15.646657071940313
Sb 13.223760360682034 10.69402544859708 15.291377427767124
Sb 15.24218806182192 21.05299661210232 15.140739299776538
Sb 17.35085825530653 13.342303553089126 16.073187493316958
Sb 19.663794548666342 10.18888090784513 16.488380847541265
Sb 17.08016850837528 17.924493637974237 17.355346506426855
Sb 10.665615384105752 17.813805349883683 17.70483885855093
Sb 19.793623532472804 15.710534390786107 17.40045855517592
Sb 20.548683535098128 18.20725391226912 18.568148978822812
Sb 22.213784495097734 14.114111556949137 17.25351842125075
Sb 12.889671250269718 19.652156086590296 17.336309697329924
Sb 12.296787645342203 13.059216547302416 18.56347614921538
Sb 16.38766709533077 19.588934964712788 19.555666458065605
Sb 10.935649962317099 15.479834549708947 19.43817888773215
Sb 18.244045427735287 11.859748588627212 18.416235714927655
Sb 14.662410403084696 12.997489229450316 20.267980248845497
Sb 15.901242476990818 15.277551876668785 19.065177062975135
Sb 14.262183207207713 17.641912007441626 19.63118826486108
Sb 18.63249433296364 18.303509763347133 20.861016088946272
Sb 20.31426420213761 13.706632712249737 19.40831470563853
Sb 17.712777030910402 15.58074331203729 21.256389492581313
Sb 11.747743626345246 15.925509973427273 22.194448178256895
Sb 13.749052431028032 13.90473335854382 22.81360780391167
Sb 15.747470464819406 15.96247060041956 23.385173171559455
Sb 13.861741003087682 17.92824897396947 22.416882795579877
