52
Energy = -202.33020084 eV
Sb 8.969267630632206 10.526940415591579 14.20732250425043
Sb 5.075710469649813 10.82729080931354 14.844371831070223
Sb 11.122918402483997 10.365572714695942 10.919234793365815
Sb 7.103861458618441 8.896161091148958 15.69620838330238
Sb 7.24277078415732 12.79136198015792 14.749490818929822
Sb 11.270495957067478 13.58047918462734 13.921924068993468
Sb 11.959508105331684 14.924297250251831 16.366418018767256
Sb 10.754845740724251 7.280113896770586 14.647469860827147
Sb 11.583010922605943 8.288486009157783 18.165677862593387
Sb 16.962132863738212 9.962185818079126 12.122994018324365
Sb 14.235219962303317 11.167903640490403 11.93621345996815
Sb 11.600614361809528 9.880581693411747 15.658765904346932
Sb 12.182943860382075 5.85725811396183 16.743395111754342
Sb 14.28499433543923 9.351531300840374 14.235477933790813
Sb 15.587134727714135 16.3360005241842 8.626776422051508
Sb 7.660546039317926 16.040379231624513 11.709218508013556
Sb 9.268639327494332 13.833221164691905 10.860511004005005
Sb 11.43393627058638 16.583652555437624 9.950246446017175
Sb 9.50612433852634 15.589994222447793 15.028590093297732
Sb 12.043682531964995 16.33100696270638 13.86455324925467
Sb 13.06982189738322 17.559749669658903 7.755136778556663
Sb 14.337027390204689 14.196807257165798 10.083818080668518
Sb 15.058962531896393 16.631158646168565 11.447107545871614
Sb 16.776699210289294 14.314406246355485 11.647892085487278
Sb 16.66000644569704 11.012060845133455 14.809209426710751
Sb 6.620917554516155 13.356868710729389 11.979423433087504
Sb 15.112951322090508 13.26677612187812 13.79226239719729
Sb 5.929411858489262 7.2583017637858465 13.567706412848404
Sb 7.613869974154823 11.397984514775773 7.603038843470479
Sb 7.494480638009271 15.12522072040834 8.968594049538835
Sb 5.829744444705021 11.610666967105141 5.368512449314847
Sb 9.427296334755363 17.045033694360992 7.910763338493862
Sb 8.145818183943476 9.943435336125637 5.183872459965919
Sb 11.545973527553803 15.141335382271274 7.474554168468314
Sb 8.429355588378645 12.790083245949457 5.23344508314648
Sb 5.164639640514864 9.67669234140428 12.200065732044097
Sb 16.48558018159574 12.584150360380757 5.885465471740979
Sb 12.412128163123572 7.886570800433034 11.735404725243114
Sb 13.758346983968266 12.011303247834796 6.603620013957793
Sb 8.060935827900453 9.749924023756307 11.373530284860905
Sb 9.544018311684175 7.446702214342522 8.01008584519988
Sb 15.91210181442918 11.196287545653089 8.328350195584298
Sb 16.4477708560469 7.356001061561652 13.342256152228952
Sb 9.461344196928637 6.597253393230611 17.243978345336224
Sb 14.778198956043889 8.240039533681674 10.00685104762755
Sb 13.038598024463488 7.546520295685135 7.800868340619676
Sb 15.314009975483952 5.79731601590835 11.351260124220921
Sb 8.235058887874034 6.903707631073023 11.796349493639628
Sb 11.418554870362652 6.048560677884754 9.708367159824071
Sb 11.211712690916256 9.823538255906598 8.08891635518988
Sb 7.046484214332279 7.873752600669163 9.327457727025969
Sb 15.494505244567613 9.882056299130614 5.801660390629587
