53
Energy = -206.30795142 eV
Sb 17.493278624443175 13.202189930841957 11.470296134426556
Sb 17.070044679607047 11.01052485579878 8.025152060799922
Sb 18.463368303024797 9.047609399810584 12.769739729679953
Sb 16.99049514809594 9.09312370614292 10.256895535625258
Sb 17.546794422329896 16.11824148503092 12.282715986233685
Sb 14.193020717368357 10.85291597417382 8.45350989585437
Sb 16.18944335878721 7.690642494048721 13.94433622288515
Sb 17.91176115535333 14.085531727942715 15.18939477499702
Sb 17.10627563070718 10.326128463512559 16.94497215380225
Sb 17.561614221783916 16.940491191129002 15.474943087752939
Sb 14.50407719738016 10.072552942028596 11.2790834754441
Sb 17.664516182778613 13.787745374677895 8.669191840563473
Sb 14.150241457385121 7.27119802441915 11.881809373955905
Sb 17.03471707784554 13.021862280641237 17.71847766769016
Sb 14.619376051962599 13.292769730733431 11.250938373686743
Sb 13.970726265899543 9.808965382502391 17.482151419606133
Sb 16.43591753078568 10.591794295482249 14.11462388185262
Sb 14.397944631643373 8.241468896603756 7.160379272914888
Sb 14.957229209180026 14.903036781793618 8.845782945538025
Sb 15.374336466452375 14.875058115366912 13.739105709114243
Sb 11.66417446590112 7.980829484625724 6.2322342787280975
Sb 12.415262653827613 7.931152356822867 14.113915910686549
Sb 14.14170927120188 12.691485924626829 16.884591795831824
Sb 13.292467882942692 11.818895183604686 19.48385467482473
Sb 16.099443603350387 17.288967530217832 10.021300229929485
Sb 14.967078027697694 16.33767820780378 16.400527319927207
Sb 12.464857270695402 10.82469699727491 14.043780678531325
Sb 11.238604566880616 12.843813073918845 17.666566861952102
Sb 13.038656595050405 18.371413782430583 15.633214662555769
Sb 11.380346206851526 16.43035107170747 17.089652212262273
Sb 11.123292777935573 10.224769647925898 16.53375001014873
Sb 12.509441486703478 6.586234303148398 8.59096565445876
Sb 12.872282465344872 16.85441059348798 13.169173687592647
Sb 9.663865940011855 8.71561946537675 13.407258518119743
Sb 10.508583256096648 14.875276151375889 14.778364067862674
Sb 11.107481009706808 9.081904824562981 8.852243820244365
Sb 11.890386167558404 16.6202418083656 8.91563791981563
Sb 14.2715841924822 18.83408230493371 11.643947304130466
Sb 11.127262987856966 13.92277129649612 9.738954923748286
Sb 7.7207065790365546 7.50158177266073 11.652111336198178
Sb 10.32185228271622 11.055017205292275 11.879623354531379
Sb 9.009888621199957 17.32395062297024 14.083202117439985
Sb 8.05742647037255 14.58573363961507 16.37755995387777
Sb 8.6261507621501 17.40352695092268 16.986066391738092
Sb 8.195456209849217 11.884014085885648 13.635272600280382
Sb 8.306270541773284 8.339640085887094 8.939287795244063
Sb 11.420800755686686 18.387987526020016 11.178136956248435
Sb 6.407064536635655 10.088860186488361 12.035564263494662
Sb 9.228492047662876 15.632068320318718 8.403591846534608
Sb 6.529846049867656 15.767956646446326 14.198233820150412
Sb 6.9236101380253166 13.895530546718838 11.965384883862212
Sb 9.254808441772862 15.479730788604387 11.288987054399536
Sb 7.885917989014444 11.05764091075443 9.790964136682508
