50
Energy = -194.3195907 eV
Sb 8.304724588847817 12.717176524107972 16.853761014535493
Sb 8.530103865189073 9.668075935929275 14.274207712353856
Sb 9.583952831982488 8.404350778032804 11.846603998983142
Sb 9.05706315383002 14.374117688601713 14.640257642768207
Sb 10.013583739559094 12.688019178934162 6.894410717186625
Sb 6.679315462782917 13.749172836572876 9.71681137836069
Sb 10.048282063482024 10.474485365742275 17.438105795504995
Sb 13.346727884852159 8.767817873992136 10.982439884337168
Sb 11.20478353122844 7.59860819456566 14.166176854914728
Sb 13.440489513701213 11.523949166047936 6.998234851376458
Sb 10.426226384208855 14.877898945329253 19.106072743127527
Sb 11.206721119670062 13.980130102775627 9.194092028728933
Sb 12.025685808832542 15.814242744234491 16.899827091064612
Sb 12.476207576624706 19.203425984523236 15.384477348121225
Sb 15.822340629153235 8.246564828165859 9.555850878284144
Sb 16.013730153333928 10.740769906747156 8.119160486268399
Sb 14.534855466381469 10.934485492184482 12.540653554597558
Sb 14.08780687275663 12.29717320651429 9.70026523732259
Sb 10.658994152738027 16.813531868913973 9.554094943742243
Sb 10.541059601163653 10.987833450715813 10.801075741251635
Sb 16.983065573433038 16.11536809013855 9.666250931504093
Sb 19.33315830359233 14.614127453181467 10.353779263441183
Sb 17.738102293498198 8.90108898895113 13.973641269454259
Sb 11.027900889879847 10.20305627684373 7.9552414204309665
Sb 17.112227876219976 10.10165934114044 11.404174242750354
Sb 7.329075410444221 11.934240401032037 7.642482293353217
Sb 14.878025912985203 14.775331621222273 11.134708336146177
Sb 13.934180133655481 7.117646254526273 13.290262120863638
Sb 15.217366467985926 13.985231283486854 14.585492730333183
Sb 18.956531130111063 15.276584727423698 14.051640281650842
Sb 7.612820591107232 11.102711707687511 10.39606401616573
Sb 11.567249222395262 13.887357612657699 13.220919005156654
Sb 13.284661969176705 17.217563672138983 10.742711135337828
Sb 15.001106102040056 9.258727826471135 14.934677761175504
Sb 17.715818790807344 13.263862597080834 12.440536783672835
Sb 18.984685776754514 11.50984007646647 14.397684862659784
Sb 14.604416254052063 20.988480350939703 14.61486321614474
Sb 14.945841775762903 18.133098161831725 14.351258389181556
Sb 11.262765012915391 10.479000364012855 14.801099857106657
Sb 9.150573666779875 14.571496772655646 11.10260461227542
Sb 11.316255830600845 16.7081630796907 12.737458231764785
Sb 18.757636023541423 17.072470301282074 11.735740585023331
Sb 16.978656324872066 12.411968209797784 16.31418718181515
Sb 12.942340643223465 13.196887835451198 16.178951600818863
Sb 13.254262989314746 15.487929703045 19.512277722328964
Sb 7.202263334003676 12.232063926566273 14.182621007396635
Sb 14.021768171290352 12.76138215656875 18.881028485260284
Sb 17.082875480872467 15.313173513905555 16.301686533494465
Sb 14.881364317167488 19.333888271883037 16.96090423885162
Sb 11.274028949697191 12.148900474942641 19.52642405079926
