53
Energy = -207.61960643 eV
Sb 16.85746439232022 7.390713336455887 16.03591284630564
Sb 17.29019557053523 9.633976379948324 17.821870210620204
Sb 14.006443457232072 7.463642676240561 16.36641836698301
Sb 18.116900588081922 9.792495281139395 15.054048283791344
Sb 15.545869383887878 12.541898587898501 19.935463094884426
Sb 17.749570489067988 15.680433529185807 17.898592618759174
Sb 15.433671617973614 6.826908725268731 12.469326781026927
Sb 17.612518882359954 10.774560743486782 11.478751465829404
Sb 16.753806067689446 13.950531030418219 15.58525720808428
Sb 15.00871461880687 9.508027081002291 11.495993895228526
Sb 16.430324620192405 17.78233594399082 16.388829594217817
Sb 12.9489997704769 9.369408934063335 14.495856922976692
Sb 12.93515732064773 11.458427804217834 19.339311917285954
Sb 16.134812844569723 11.5034244927007 13.861158987723812
Sb 11.740650620221707 13.941808754317512 18.760308142372164
Sb 16.852070347964048 16.35907560989437 13.88982911279501
Sb 15.505394081787246 15.438189398895055 19.698247621149214
Sb 12.910797514165717 6.574411193403377 13.833171585199395
Sb 15.089475387900697 11.480718687114084 17.29909616119153
Sb 14.66266999245448 7.259368363153694 9.695384542605819
Sb 16.606562284364124 12.30858905209459 9.199143396766136
Sb 13.79053372392127 14.127378229695925 15.448591296914298
Sb 16.170807512978346 15.158518090219605 9.656380241819363
Sb 10.357230544821405 9.391256935486402 15.770989267570094
Sb 9.385884387622225 13.481870686195172 17.162523720776164
Sb 16.013577151308162 15.03829083942853 6.771051611556326
Sb 10.39717181007661 12.123415223571717 14.801553894273189
Sb 11.82788937078319 7.875024491867266 9.655154734971052
Sb 14.109182714149803 16.229278963636016 17.33917642857916
Sb 11.076871137595552 9.99272435324962 11.477782196137667
Sb 13.669701708014273 18.758631581294047 13.869168931977716
Sb 7.8518924988909005 11.366672883613884 13.612371124123571
Sb 13.213639640845026 15.51641188443958 9.658224933921433
Sb 13.190446066843796 15.705251505339165 6.758180642439098
Sb 11.511338621858386 17.431174569654104 17.764255041364844
Sb 13.7161156045889 12.074626026020349 9.251203244026367
Sb 14.064293294672705 16.005155363678256 13.147684591229348
Sb 10.449099455673363 13.419375754145593 10.174861703134466
Sb 10.689498867803222 15.61839699348625 15.722963075058264
Sb 13.997818342053845 12.951562809643764 6.491815700751451
Sb 7.773354638711544 12.378035070305838 10.856506643033542
Sb 11.368764628104607 19.334393071668924 15.544237827826677
Sb 12.556871968791953 9.890475761232638 7.702246670446075
Sb 9.101135256935065 8.770578457564916 13.222646297399258
Sb 11.721528021505955 19.23752637039242 11.775501549970828
Sb 13.097690504286568 18.39269944953878 9.382620095071278
Sb 10.540803565511823 18.001795434177684 8.047669361599903
Sb 9.145762704330036 17.76592062543843 14.495146308312856
Sb 9.268832725310169 15.399614839709121 8.34936109740819
Sb 10.166545253991453 11.607874028380241 7.834504650392649
Sb 8.762425317953323 9.920541577368114 9.711914914067032
Sb 10.43485754891559 16.724769661379472 12.12501942304926
Sb 8.547358072884718 17.5758588062011 10.108054574140954
