54
Energy = -209.75334126 eV
Sb 14.129781917734965 16.51683865871456 9.879654055033578
Sb 18.475433124743603 17.79412543463457 9.717746593691484
Sb 16.774094278675012 15.54781140263951 10.444644068143504
Sb 14.311812992779604 9.211448638632056 12.956556540215376
Sb 15.583845267992405 10.724425538574014 10.838388862586868
Sb 14.467988587324925 19.35545677964744 10.49236178835837
Sb 18.088309667075332 11.665705912813772 11.992160527242577
Sb 11.39342782107181 20.668495889262957 13.189258135801014
Sb 17.08430894002262 19.385944248273233 11.668013162725856
Sb 13.61605197480701 15.464974241550477 12.537392487490461
Sb 11.018093520260678 14.702213905875752 11.764563241485778
Sb 19.888321532881843 16.83922085505472 12.11049138511929
Sb 16.47432435911908 8.117292974224101 14.485987736939343
Sb 17.36292693711366 13.530647187037198 14.10143247314716
Sb 17.15144672271804 16.744889667580715 13.119945660928263
Sb 11.07675407135878 11.989456396711935 12.748897415894039
Sb 18.7505025371581 9.052120663822071 12.994919148104824
Sb 14.023438461486915 12.136864395798655 12.824751501256483
Sb 12.745574282134184 21.98150182079919 15.41028968766699
Sb 15.29881687006176 20.803995666573673 14.488774937107818
Sb 13.607067750268037 18.74743632615486 13.164612789229388
Sb 15.5539473770346 11.841915446835493 15.722188754013043
Sb 9.176682679741912 19.319623610100304 14.455147147481881
Sb 18.76659555944886 20.883248845076263 14.456314398672667
Sb 19.702561084874205 18.296469727990463 14.616881059052385
Sb 9.9682189707261 16.262615869205558 14.200580084707715
Sb 19.767162088619475 9.374954947114263 15.691587260265091
Sb 12.463398249527724 19.385808840418207 16.534294707887355
Sb 17.16292190729717 9.734242382860918 16.89286970008597
Sb 9.668644063169989 19.727040073244513 17.21727049623056
Sb 16.206405796113053 19.287956622139284 16.842034746369375
Sb 14.883790353584594 16.142809645751935 16.387387771090314
Sb 8.375739824286208 15.155177254755863 16.540056746021403
Sb 18.25072069117361 21.28255261503182 17.310109591790155
Sb 18.57327399415464 12.470195991083338 18.383499751040514
Sb 11.875030588520568 12.459467039915435 15.51942202070454
Sb 12.07727719946842 15.513315938828077 15.999660516292064
Sb 19.502522961613025 13.877417198656255 16.01257915566925
Sb 20.34957504457813 19.431004990968496 18.073601588857034
Sb 10.280365368738973 16.88031668049061 17.793342353101046
Sb 21.40458739777593 11.750087569620502 15.712976385958482
Sb 15.561773649611004 13.736622907997639 17.916981091569767
Sb 14.122218667815208 19.665814013772007 18.864576524357787
Sb 12.95343513852136 10.167733398624204 16.882765125815425
Sb 9.542870640109367 12.577044046479298 17.203440647119063
Sb 21.38506647935699 16.202571235191133 18.91459810609077
Sb 14.38102531093951 16.743253568537668 19.19410552675898
Sb 13.581414125266933 11.816236000981254 19.07807802535592
Sb 21.31514669135597 11.34233903840512 18.599899675879055
Sb 11.069855376144645 13.135631712663143 19.615688470541773
Sb 19.55150789229858 17.899598305610382 20.406856142915522
Sb 18.868834737252964 16.969145071587146 17.76213189304573
Sb 11.730357710025526 15.941341774355879 20.11835906473513
Sb 20.551031428318264 13.691861695584768 20.09615393660736
