52
Energy = -202.2547779 eV
Sb 14.237393798946371 11.10753240608762 5.877353047640573
Sb 13.38109027574627 9.055209251424001 7.771498857088095
Sb 9.88348787701272 8.887226955349501 7.17195692401442
Sb 10.060396018218292 11.810432688406307 7.365458744836354
Sb 16.804922010393263 14.419518004102542 10.292428060319432
Sb 12.681883361290849 13.004704263878068 7.478016082122837
Sb 11.020670075692404 17.64849093116275 7.128642948012588
Sb 7.648997128183907 9.45763461174118 9.058850010905193
Sb 10.35122127098592 6.896061212398806 9.241213020024055
Sb 16.158479384690676 11.426886537116662 8.113291661220465
Sb 16.233529376001012 8.478127316793863 8.087512207999291
Sb 7.090512927569124 13.383826737641124 9.788418983829882
Sb 13.664856608549009 11.30643972038412 9.634843075554798
Sb 12.765932566607397 7.43986480545029 10.563012925102125
Sb 14.243747232156785 16.12269885476026 11.351670539392474
Sb 5.194764361011841 12.082318207932044 11.536008659658625
Sb 15.82845947319327 17.33931777229104 13.469812065674786
Sb 11.33392576195145 15.804351899631952 9.286244642449162
Sb 9.275029354796438 17.812428496731503 9.41452392690833
Sb 18.606475665014685 14.063973606963618 12.508596264594008
Sb 9.318453193118673 11.554152814254655 10.16186549710344
Sb 8.297979244936467 7.6132664475496785 11.230956328637815
Sb 16.12368297449707 12.2924582390167 12.037523144464611
Sb 9.013302712823444 15.635967810448811 7.567191386318792
Sb 18.0999708051461 10.474686440957127 10.680776910078158
Sb 10.486353082101385 8.939914827180907 12.673608829920127
Sb 11.583307746201738 6.263284815775011 12.878915591816202
Sb 14.667011339383913 9.29465137906832 12.684862142385889
Sb 9.568690401663217 16.64604337889329 13.103739931183986
Sb 7.09816300532774 10.328368434833587 12.86333979847294
Sb 12.169183006466932 17.87034229539796 12.80851476964789
Sb 13.326565986978034 13.764039140474726 12.687815240596214
Sb 10.397839250273538 13.899814730271531 12.611131607686891
Sb 17.560896406231087 15.48962495787388 14.810426195433369
Sb 16.70897302030447 7.975653607153816 10.909631162424201
Sb 5.325114995131775 9.910765526907294 15.152632094138752
Sb 16.80348618574832 9.487481371084938 14.683392313221008
Sb 12.725453854139875 11.016452132350754 14.697821153785299
Sb 18.838120688502336 11.117541893561006 13.382443917224604
Sb 13.940970429280343 7.012927945318584 14.371347086689504
Sb 6.543262620897673 14.497012341982888 12.359829750410595
Sb 5.463743887903315 12.60856153518268 16.145245864742414
Sb 9.659813500381723 8.465945547763285 15.470159394275509
Sb 15.852823558952977 13.988683207554383 16.56412784602154
Sb 9.926051252239425 14.858670390700471 15.31522661256777
Sb 15.132524409989397 11.192048097211902 16.331567404313773
Sb 13.562805847258508 17.361027813124732 15.253144213513744
Sb 12.427122620190861 8.62830155063082 16.318547507631013
Sb 7.8682546816386925 12.821998038916961 14.47624010080268
Sb 13.2208673218387 14.47514974675168 15.46580656350539
Sb 6.923407111573189 10.531648349076063 17.45899220766385
Sb 9.601408085460749 11.137848667076845 16.405202540568407
