53
Energy = -206.8051039 eV
Sb 14.92237592747637 10.112931838335886 6.746356279640865
Sb 12.036435883306599 13.761759668440313 7.192766799576317
Sb 16.098769386448247 12.720301831894913 6.977281245314952
Sb 12.111745554933561 10.912224853644064 6.703784519933143
Sb 11.70529498451959 9.63792371285775 9.344601956671575
Sb 10.572326495353838 13.811803735251464 9.714501460620323
Sb 17.853462212663292 12.04020111886422 9.156818885044878
Sb 14.932917019750256 9.06612041008421 9.547223442446843
Sb 18.14305621170032 14.842460805636811 9.9519732580403
Sb 14.267674645935466 13.578943317252515 9.0043180615921
Sb 15.746980902010392 16.049185031686036 8.802471546811947
Sb 12.438447966271886 18.31648644684284 10.601565490447335
Sb 9.4344039864397 10.327413800305608 11.11423354464565
Sb 7.962539330094791 12.58177189260759 9.758403486897336
Sb 15.577343539946416 7.769219452677906 13.51857078347005
Sb 12.04890404537954 11.779919928985572 11.218672995065994
Sb 17.270758618802976 8.818815061328419 11.406203559399325
Sb 17.19680369526935 14.162790681041951 12.644886978292902
Sb 11.233764366448778 15.958606291412268 11.77028847928762
Sb 19.989817849118946 14.774091504528325 13.299008014687088
Sb 13.000005713664843 8.076897652458209 12.105845302580683
Sb 15.067849694740392 17.28878634473382 11.345695058939702
Sb 15.812873580659163 11.302752817220926 11.111745621715476
Sb 13.837135334379887 15.017235490257034 12.616204339106284
Sb 17.928379402930872 16.77459238112602 13.61666025645408
Sb 11.915163278120813 19.20034765783814 13.33990373564033
Sb 11.39577676616333 6.21669130083068 13.659275868652562
Sb 14.993233608615679 10.37784625679243 14.642987676624383
Sb 9.130307804055269 7.456711086293421 12.392310670963337
Sb 19.99556366448846 14.211624794092781 16.19135947969569
Sb 8.39677199881477 11.452015813894354 13.931871762335854
Sb 12.14146310690892 10.121887140555978 14.070851594591172
Sb 17.57610712869904 15.787501539726454 16.38568969683619
Sb 11.46691515523231 16.75021272408396 14.95446909730129
Sb 13.502756094267976 13.417231891218563 16.089986300059167
Sb 17.438996488701857 12.978514749251056 15.738426664755755
Sb 8.283518388588593 15.3771595797188 13.561731022142213
Sb 6.761853921521574 13.273365320353006 12.269261901863402
Sb 14.280018589005383 16.404901839281067 15.499705808795575
Sb 13.442217962038093 20.035087291776534 17.023289813836637
Sb 14.740591439187648 9.940819797045636 17.510962448436974
Sb 10.447592528630306 13.59359851457133 14.355487715618214
Sb 14.546536534722847 19.175242332109153 14.455447852459521
Sb 12.566073568310491 13.625231386036706 18.785367346744312
Sb 11.14593608392011 8.05184148852552 15.923799484877318
Sb 8.493334348434116 8.536370449149292 14.930227650427273
Sb 7.128607324748838 12.139308175843711 16.460902601005554
Sb 13.653478050033169 17.46676101608607 18.317813950934163
Sb 15.53607496911762 12.70207911634138 18.073103186744113
Sb 11.13043929647971 18.357290220362618 17.41275574998735
Sb 9.407464214663754 13.849286351762702 17.086524289645986
Sb 12.074513018965725 11.11282965286017 17.40799699989374
Sb 6.87610337396558 14.965732151190752 16.106766670957743
