52
Energy = -203.34720304 eV
Sb 10.892184922590767 10.961725359269758 16.32565496285315
Sb 12.413167086380328 6.1547019153997296 9.470502761961088
Sb 15.383968634001441 12.010389651410293 11.104965965488296
Sb 12.337175285217175 14.37660219630612 16.584988604743074
Sb 16.732336403168166 7.862744507327182 13.840875147164619
Sb 13.847054032179622 12.297501510847168 17.93654949035428
Sb 16.232372739588307 13.842790731127824 9.002484641507547
Sb 6.110080125707597 8.477406882178833 12.330658501928268
Sb 8.861791434221663 13.57796661940743 10.048179655391374
Sb 9.598162770770736 13.513711964109396 16.004645483907844
Sb 5.758042103211724 17.040446382015656 9.706724829449431
Sb 18.14527338332542 10.932588685251854 10.904286140896819
Sb 13.68619196131971 8.634181903280147 17.295876430217447
Sb 6.566704277272904 14.773713858252595 11.26694409734012
Sb 9.062301965667988 16.914955032609388 7.071945700654801
Sb 8.356201759059067 8.72720912764636 10.46660357221801
Sb 15.82542508223018 14.422370447007545 18.037736191764722
Sb 13.311539633918857 12.339177092911763 7.2426722387190035
Sb 6.960783267062245 10.07242980795676 14.531165841621691
Sb 10.745134943134728 9.254356998106307 12.06238797198989
Sb 8.14259671947841 16.118363022856624 13.298859308191945
Sb 6.224687436797629 16.0545702727786 7.012724693821737
Sb 15.971379362173423 16.00584607061823 15.616763416726183
Sb 10.355980421470004 14.25271064184161 13.273746321794949
Sb 14.468630982702354 5.924403674867795 16.7298349171588
Sb 11.43321827025263 10.872050704476209 8.913759927144039
Sb 18.980988287171193 13.306076997786318 12.33563273384329
Sb 18.586604557922552 10.077174178911749 13.64707845959534
Sb 13.3507358690684 12.027750884125222 15.120322794219417
Sb 12.657528010508488 13.355533963264145 9.852463875754218
Sb 14.248285349969938 10.233770738264866 8.987713822598623
Sb 16.436475653481867 8.014759964787176 16.699978068411394
Sb 14.920625464426129 16.426487025342094 9.128745873197877
Sb 9.318353572893164 18.38693976918413 11.923727544591964
Sb 7.117032818028898 11.26172665107905 9.836299606390341
Sb 8.345929017224732 14.165863686743267 7.282661278522987
Sb 13.094756946738038 4.867110456408582 11.94829027174018
Sb 12.019712577281897 16.07926003467834 8.990054445381302
Sb 18.062290048838427 15.441892102697986 10.598121228170832
Sb 14.742349899697013 7.010146449176105 10.961067037865845
Sb 18.038937742257872 14.072723301768898 16.25709362306565
Sb 16.91708840122842 12.40792858546656 14.182444466845634
Sb 8.143863967879366 18.535741628752273 9.31608769785707
Sb 10.61248111536584 6.3699034669390295 11.691155834522524
Sb 12.057529347053311 17.755476977865477 11.315136147997134
Sb 12.2343270183738 16.404517529333603 13.875226023033154
Sb 9.602279050420092 8.931985287211415 14.69048801367767
Sb 5.700924168278727 11.405265954045444 12.333108415277241
Sb 15.869389368461398 16.934072750279395 11.836245896832573
Sb 12.744871766939891 7.338510642697954 14.843965331273822
Sb 14.244140670912211 9.02612775289871 13.027751370567017
Sb 14.579465996460202 14.797689850217429 13.286955013543631
