51
Energy = -198.97872884 eV
Sb 11.423526525331415 16.617396686668226 12.597732726907857
Sb 9.79799260181173 16.5982078021373 10.190200642989078
Sb 8.745607507609211 13.928790008009537 10.224198909125366
Sb 11.34723093275729 15.675867610655514 7.921553047654217
Sb 8.844727102860455 14.31336359816756 7.326597826907271
Sb 8.792065837152228 10.368711964174173 5.466459159545414
Sb 6.202594747254537 16.022732228689286 13.210812009168148
Sb 11.34515239929296 12.831901166551757 7.394970313984565
Sb 8.160297385296868 10.550901066375042 8.288106678925661
Sb 7.315053990689278 7.894783352097477 5.654377190740947
Sb 5.984039779745519 10.399944492283817 6.0317441397569205
Sb 5.939688853618561 14.579417063398875 10.746549899479247
Sb 11.934961125402992 13.81562496371085 12.391193966497596
Sb 12.550619666539149 13.183531906019313 15.150662018255245
Sb 10.209429966345658 11.51575700088393 15.101235545619575
Sb 11.104096102001563 14.903042563622083 17.02567227264626
Sb 7.885716282655935 9.625026634468446 12.40044784020918
Sb 8.323153174064235 14.063654347845029 13.635232755006273
Sb 5.437491598772659 8.768273171518473 11.143546305816814
Sb 6.785638465066038 7.0186571571194865 12.967548243749388
Sb 5.490478133130005 9.379184338895092 13.960712101873334
Sb 5.590647193031884 13.22231264175826 13.272075263616932
Sb 8.288958505244478 14.632580125575437 16.50031959853554
Sb 7.749580523966577 7.682253928493033 8.531162804926408
Sb 10.458895231622124 6.679608929010442 8.463729221185815
Sb 11.077098349147803 7.681612698682231 11.121766160757174
Sb 10.902527813748444 10.941855530344181 9.571381700689866
Sb 11.594716584348527 9.140040673500506 14.21651051123427
Sb 9.61247744964461 7.226218273678761 15.129141535475087
Sb 10.557811441830742 5.511675430486753 13.000738801177913
Sb 13.594507919627768 7.77173057110122 15.799532244522583
Sb 9.715931305170606 12.489025907977027 17.805281701319153
Sb 14.423528688300129 10.739277838043293 10.303097219351278
Sb 16.030436848962413 14.280784473145195 15.26353791022661
Sb 11.640675014176447 5.889625422931836 16.78939377555161
Sb 13.13554671998466 5.305410346862446 14.365264598097319
Sb 13.765620945279977 6.7136411170785895 10.776824005290862
Sb 15.40453476098624 12.4484242283693 13.112894606065337
Sb 18.061209279380776 11.395883387460744 12.895770401282082
Sb 17.902195895120684 15.593256967447964 13.473154898533256
Sb 14.772165926650343 8.8502365159339 12.481288627249809
Sb 14.380250464679062 8.448775989731617 8.504347607598831
Sb 17.057935677140623 9.591025849862906 10.85165965244024
Sb 14.745728368557463 11.256431020476349 5.960895258545068
Sb 15.29955595807756 13.914580527314072 5.063941476843051
Sb 15.301199939390433 13.33237064992787 7.875146922972528
Sb 15.221703943487066 16.640223010046196 13.824608649731825
Sb 17.319581816010174 13.70768802601327 11.34247491276531
Sb 17.38921052264275 12.324160882863405 6.204552444279546
Sb 11.72164151365803 9.075792364121764 7.480793007087972
Sb 13.90729663915847 15.701461215619899 11.431894220638902
