50
Energy = -195.08815532 eV
Sb 18.151656907302126 16.194959199389228 11.166320215943022
Sb 12.205296360132529 19.39655721542258 11.000160146611108
Sb 15.733378373016777 15.067624923918785 12.192272669523065
Sb 12.850204095724298 17.871428715099636 13.40018530831391
Sb 13.179875197939356 17.309166681650122 9.25398551219538
Sb 16.683210195536617 16.413354066805546 14.540694366084802
Sb 16.10949352152627 14.720793426400164 8.00557950199294
Sb 10.191237011769656 18.561676324071758 14.253506285907772
Sb 19.39485252924204 15.76920546591113 13.77116277807228
Sb 10.394927898495599 17.370595491160703 9.957967040016444
Sb 18.493976702906366 13.728848308519506 9.277651828709459
Sb 12.24393916528672 15.691650985690263 11.490797506742137
Sb 13.037994088956102 12.84060867700395 6.7175217593681555
Sb 17.30131946298531 12.49828983314571 6.666336359750863
Sb 14.85302861293588 16.658814124052675 18.418982542600187
Sb 10.136962224662728 14.281044346212015 13.779514273683823
Sb 9.655785051675325 17.44382082587152 16.87161455541542
Sb 15.630136580958053 14.59575065897181 16.554332806844073
Sb 19.725488263932036 12.976851604027797 13.203871800236826
Sb 17.333369118595286 12.583452792777837 11.688980767645608
Sb 10.847277665316167 11.214215157814435 7.633070095818421
Sb 17.14354703275388 9.647714078994682 11.701675223817297
Sb 12.98039503622016 15.827854166717819 16.388595071216407
Sb 15.009235546070247 10.769664926578864 6.324199717581083
Sb 14.041517130774182 13.2207734579046 9.42801117031427
Sb 12.561414739991577 15.055348372395036 19.133974449383334
Sb 12.33071264337642 9.457214817312693 9.442879379394215
Sb 14.358487439482998 12.01395645805241 14.11171542557327
Sb 8.544897442637076 16.578415707129686 12.97360961093199
Sb 14.99528534945772 10.491462077673173 9.194303033507396
Sb 10.484411934110762 13.159545014463129 9.788647545016472
Sb 9.165071813906483 14.639780362228281 16.497156645349147
Sb 18.996532684464476 11.515285308310323 15.551918021853973
Sb 7.197095475150291 16.559447501653747 15.59425695923486
Sb 7.85297202081632 12.089574045531142 10.478825575352351
Sb 18.66671858289929 9.026163991446932 14.16488915421409
Sb 14.580950164194991 9.302483921614598 13.07453804883111
Sb 16.15323108114408 11.309716292473007 16.343683767310086
Sb 12.0004588668005 12.016838532744634 15.892231077440872
Sb 9.172171601552526 9.690980828454629 11.44195878229538
Sb 7.5885051475920715 13.056560208257089 13.21694322317036
Sb 13.177190250838446 12.33221114194159 19.88064089122779
Sb 11.676113089473075 11.222274004118104 11.627458625782625
Sb 16.113159924567665 8.515661274667574 15.465903786018348
Sb 10.375216439077548 11.619766530916156 20.033367305805758
Sb 7.960168594399141 10.269198159177012 13.992507959495573
Sb 13.447286969991135 10.342136594746838 17.788429520515866
Sb 10.43852668830508 9.683020137696987 15.314194789302674
Sb 9.189556543804128 10.038764350312503 17.892219486456764
Sb 11.356401281423304 8.979466571895806 19.402466076495422
