55
Energy = -213.65612547 eV
Sb 14.459187191172978 17.46862386265794 9.17594334921993
Sb 16.16759298502846 15.266235076917733 10.570383014262164
Sb 19.647009123666876 17.833377012113633 11.147060354274211
Sb 15.587264316781665 19.108337310459188 11.053750016786488
Sb 19.665254465017092 15.034112180543504 11.87869486135337
Sb 16.317994347292654 12.573042449927618 11.934087231703687
Sb 13.64225748628009 12.916736196502404 12.982723857848091
Sb 13.359175029976626 15.444998678562051 11.335096068423695
Sb 13.051384713777908 19.45681548657155 12.433661251710012
Sb 17.389099232239698 16.85852780380344 12.681760323593803
Sb 21.907368328752664 15.430655718375446 13.637681646874881
Sb 20.02358275114664 19.18318684222188 13.700083883668016
Sb 19.26540320853071 12.767447799324446 14.419816882930757
Sb 13.72985843648825 16.985096105895497 13.742339929307287
Sb 15.464520309897578 19.36707083700054 16.324492932632026
Sb 22.08322800046689 12.842210879974452 14.984348938941533
Sb 10.972874520069587 16.62139071014284 14.560838205383043
Sb 22.68355667479595 18.876369384742436 14.789487605999254
Sb 15.915749741765287 13.923345172652017 14.434013496490946
Sb 14.045124645097431 21.196678128260114 14.511750121453202
Sb 15.722414372123895 11.154262205759489 15.257616333445586
Sb 11.706977982632383 21.171555129382515 16.10255820870783
Sb 17.323028788541308 21.588985792562575 16.582225903324684
Sb 20.55103369112211 17.096145014388004 15.607843644765563
Sb 18.445125070499373 10.327388176055663 15.799759045788402
Sb 15.835345489137856 22.626069225269564 18.6659006677833
Sb 10.860952364429773 14.10456454797179 16.018899436396964
Sb 11.88526185648782 18.35298431876959 16.702313952338407
Sb 20.209445796710266 13.869925745169207 16.938781157094766
Sb 14.45898900558823 16.341486770384478 17.436417360267253
Sb 17.18182340714258 15.486052166110593 17.720679644260706
Sb 21.918573270739543 21.169733425538695 16.398132778075162
Sb 13.85162613224474 20.51070083497899 18.434380806265054
Sb 23.205048825571538 21.224172233930616 19.00420043383764
Sb 19.632088377908172 20.03172107949461 17.778004347000454
Sb 21.286470415632802 17.532370955377438 18.99895680685763
Sb 13.138705698135224 13.792200661912272 17.80480487687287
Sb 16.90666115010535 13.095370622867502 19.383814445983408
Sb 14.911514423104727 11.514218363159266 17.9905611420881
Sb 9.658820758474976 18.0413573160695 18.476099659249112
Sb 9.05966695153702 15.236398865085432 18.0061451262962
Sb 17.954383114913014 17.60776387045495 19.631216082357767
Sb 13.967507581816548 16.86982896614714 20.28338813821022
Sb 19.21621498013378 11.5164433384894 18.320152412120667
Sb 23.837110877170147 18.502845825357017 19.844771562257556
Sb 11.228151761783778 17.573264984480847 20.895792078028464
Sb 20.489295304189422 21.506758159321603 20.03793994660508
Sb 15.686532888818455 19.111679584057104 20.56143319756203
Sb 21.19150089783346 14.954677026156151 20.54247737567008
Sb 14.478919669262755 14.487215967639225 21.687906167808645
Sb 12.326168898341404 13.142632287819014 20.51389969399268
Sb 18.549994130255264 15.481693105770434 21.572158206477074
Sb 10.076898175167067 14.933414958120947 20.724978061016618
Sb 21.46155552276243 18.973857181653653 21.47629148455153
Sb 20.877476383561902 16.384773179769446 22.97025536590979
