53
Energy = -205.64431758 eV
Sb 16.67117942070574 16.341931738702595 18.6901864309884
Sb 13.977020598781147 15.346930040464914 18.567892872785507
Sb 15.942839561792402 13.625026560531806 19.758569727560996
Sb 16.645451979824827 10.096682672834465 17.824277827703018
Sb 12.152333657662806 12.79526111962005 16.3678224447785
Sb 16.36247331719778 18.880666322894456 16.711371687217333
Sb 13.958828823565062 9.140529761311107 17.92345356797665
Sb 12.123309094948784 17.48372958255213 16.001129911134434
Sb 17.673857585322427 17.70499449627774 14.490781437292716
Sb 16.01137444703847 14.177720517298228 16.937827018964278
Sb 14.892180230074514 10.716087478831769 15.599904605737049
Sb 14.00519093770047 19.509953589154915 15.164198769256105
Sb 16.005295379456015 7.409886242502171 16.86779064353237
Sb 12.100893704246593 12.634120905739726 13.466847222256593
Sb 9.638705874615532 14.273992772349517 16.83154734403345
Sb 9.602264218382489 18.515703451697426 15.022301084442653
Sb 8.29102884054005 11.898379780317006 15.848487081482771
Sb 9.124937706239034 15.722922278493108 14.320475499679997
Sb 11.987347710350047 15.690405399430524 13.690234987192047
Sb 15.509029716791167 15.88822203127102 13.787851431053566
Sb 17.295255880674887 11.999640868028344 13.23063351399888
Sb 10.561368608002356 10.41665504570694 16.887066703580874
Sb 15.405643002263897 18.557064838006784 12.800597633325502
Sb 9.230238426710093 12.642930078843374 13.21784496121689
Sb 18.114127452112463 9.268267587183477 13.535504500215565
Sb 11.49700759062367 6.652389456015239 15.277204817690972
Sb 8.110683865926523 16.59472795302771 11.145388824441547
Sb 16.89423763063853 17.201088514833376 9.720705061519476
Sb 15.083328340245217 10.924627308040806 11.343943797290656
Sb 15.455349406731612 8.276050791361813 14.11955890899394
Sb 12.285329858774528 17.86627857755127 11.703086197386796
Sb 17.00367747610862 14.910437893372881 11.480951275649938
Sb 11.310396289883197 9.40706188860477 14.26794868448079
Sb 9.648804037806865 18.867337155489185 12.116117342617034
Sb 9.818718380520995 14.400848505818281 10.23233274957091
Sb 14.584954992904164 13.712797244951624 10.489589061767422
Sb 7.77240460984889 12.429624487893701 9.226575728734336
Sb 17.87973009161206 10.45220313827224 10.894423673371866
Sb 9.037047961854855 7.696698727489274 14.13324794711971
Sb 17.822366684950744 15.51830633951897 7.573353481376806
Sb 10.89146227129117 10.524946866736 10.264492491567177
Sb 8.176504436712563 10.596935849012382 11.433895568302766
Sb 12.126624743258962 5.212922109151142 12.784414429058337
Sb 12.840654881098216 7.80678749477214 11.780029485208232
Sb 9.330309626749434 16.66929389974053 8.518497589422068
Sb 15.117737912614318 16.60046989812989 7.521101741700715
Sb 12.113524921679366 16.37228470481386 9.331445121022659
Sb 15.491128767459173 13.751498967147292 7.7524528091040334
Sb 10.061473715181974 6.798621960404063 11.55300530305046
Sb 9.780649941736682 11.041717137416255 7.65692832202372
Sb 14.001007010710326 10.207568494465933 8.392081883483108
Sb 12.292709528986622 12.461169809094384 8.10302210882208
Sb 12.005075734334133 8.18799506419959 8.972891219703136
