55
Energy = -214.4125109 eV
Sb 13.217919629477176 14.54181480571928 10.860902285274568
Sb 19.412257581258828 13.783324456445662 12.046987876104343
Sb 15.62751838565575 16.02484178735214 11.503571966315864
Sb 21.410180622390182 17.935610800237175 12.779986833381075
Sb 18.94422503412993 16.629898435734756 11.952664977527512
Sb 14.862801602242282 12.131108287988365 10.794833381706328
Sb 12.78139055927594 13.94756206451986 13.686529375302765
Sb 15.60226435848971 14.710190608773216 14.089868812600749
Sb 16.910531382686063 12.445009599505857 12.903815784093466
Sb 14.162689482435155 24.779741291705065 15.578669688732433
Sb 21.58921546465092 13.188094658658313 13.902512258524526
Sb 15.43688720694036 18.612779645711704 12.893388250347469
Sb 22.779565616988627 15.992376866534263 14.427285552383992
Sb 13.229043199948505 11.177870747458615 13.026871655217835
Sb 14.79446794204264 22.480632687966292 13.968734543269774
Sb 14.07283018883686 16.66650880413545 16.893182664373654
Sb 13.167346221046799 18.27908860591716 14.628866374056276
Sb 19.62837360490368 19.653946949974046 14.434287465198027
Sb 17.663743121324178 17.483383258465167 14.433271643562598
Sb 17.611767838305767 23.052845513864995 14.202640405498995
Sb 16.6349617113528 -0.07483102835033341 14.475878053831336
Sb 18.16062203311996 12.580526716481826 15.951718064542018
Sb 20.141285266863118 15.678336295975841 16.130828066867597
Sb 20.94296561083203 12.214239264562137 16.463542400321195
Sb 23.55843543674435 18.255216888456907 16.24916787456503
Sb 17.873630729945905 16.386563266190606 18.20681691647834
Sb 11.423114877624213 15.552825408290683 16.732001155776647
Sb 11.898821718020914 17.918162038877195 18.398839743584958
Sb 16.384868286231107 13.89700098990525 17.85165710700656
Sb 18.238201326151273 23.631595058917636 16.934648630741773
Sb 13.63595778111224 20.80478465248258 15.96602368983668
Sb 14.670862132596639 11.580344069221466 15.601868593935036
Sb 17.046362706452044 9.952742021757743 16.053200402303997
Sb 21.93827243905782 14.708875116828782 18.15337327906458
Sb 14.059664405910286 14.979766679561765 20.071437515528512
Sb 15.543878377080368 19.966504794010156 17.9379613211991
Sb 15.718558521476899 24.575270272633517 17.9983722687554
Sb 20.778098838251047 18.4101424012541 16.78478179041271
Sb 23.51189682746496 17.170054457181937 18.860615818109526
Sb 18.283063561267447 20.957914954332225 18.030205368022976
Sb 19.915990337069513 15.689077005223055 20.10667345944656
Sb 12.340879297623463 17.02224010554304 21.16497446405515
Sb 20.977460390454286 18.349996363329826 19.707015919455117
Sb 11.48678966896904 14.084900854685625 19.216999323459536
Sb 16.65387389108459 17.337375114033026 21.359396331473086
Sb 16.15200598495237 9.572196561164818 18.795996597348367
Sb 13.551605312015358 9.73920673069235 17.571058645351894
Sb 12.196257568855057 11.26431996587535 19.58085171746892
Sb 14.764286300609005 22.245479941954006 19.50393200136617
Sb 18.02471973673783 19.736302852078246 22.196576815313147
Sb 14.41232397780037 19.099902293444426 21.186436055801984
Sb 14.189914131128566 12.342136467685636 21.384088167071038
Sb 16.75713574529667 12.065495119651375 20.07720426479331
Sb 17.469340899592197 22.10567740867625 20.555910083829726
Sb 15.763301490704553 18.864628980932935 23.735502662887193
