55
Energy = -215.10015515 eV
Sb 16.520508383565772 17.606655521829975 10.178670966248088
Sb 20.11626858409086 19.68918879462627 12.184473962441855
Sb 15.223088551686507 18.141818235852167 12.704810365681356
Sb 19.045882692858275 17.080893317188462 11.577818208441712
Sb 12.57481965637433 17.373134421011084 11.887893747833683
Sb 17.95264289516998 21.379279353898973 13.136188004043158
Sb 15.071421287395399 15.479749561164338 11.538623254990046
Sb 17.375905934593952 13.974067164482316 12.752794358407535
Sb 21.3815346301746 19.141694509395695 14.712825324075393
Sb 16.197820827307993 12.503925294707184 14.83380346166596
Sb 24.383778273795087 15.522431795933665 15.26501789896547
Sb 20.07702810960664 21.285367533007538 17.140596587512253
Sb 19.229024911399424 23.128309690133676 15.056323989497901
Sb 24.088170027586326 18.214134828006436 14.182386950575664
Sb 14.496185736197326 17.044086136418894 15.972940387919039
Sb 21.76584226074193 14.760503404139214 14.361085152436337
Sb 13.745079272504766 14.344803821662538 15.273618355141755
Sb 11.934118310519999 16.783809678635812 14.515029087019032
Sb 16.1488716019724 20.490602838759674 15.254001994816958
Sb 17.77492148290415 16.50669719507334 14.10502790707807
Sb 12.15239253893388 13.472380163134908 17.553934281159258
Sb 20.160703016347984 16.702212311667946 15.726423247299154
Sb 16.516556140151966 23.275474094024553 18.72969199756212
Sb 16.456641851167692 23.31153429859542 15.817063913112783
Sb 20.901850512089084 12.52505077227105 16.019333617920854
Sb 25.130153300275857 19.876097249252908 16.283581428085714
Sb 18.25082781032783 13.803431107023492 16.399514902557364
Sb 8.157001337322182 19.23420767233009 19.47570201213248
Sb 19.32544355879463 23.112164768309068 19.28002134692813
Sb 17.92704179163341 19.34407654679536 17.23406648189108
Sb 12.894099602047154 17.934855354981 18.271158501999015
Sb 24.6879710207784 16.554332456501722 17.932610162539415
Sb 13.96190458526706 13.456726817895792 19.816162437125595
Sb 10.817785118960957 15.987848933776155 17.840185645564176
Sb 22.10711698640679 17.695594799859066 18.296807609548033
Sb 17.742713444241453 12.983061365218491 19.11676604267072
Sb 16.00927462360988 15.292981533341605 18.960375648468425
Sb 23.07444152883995 20.39539273595682 18.058737082780503
Sb 21.51946539244346 12.909256548634486 18.839270822516287
Sb 7.084796084020527 16.741326598425406 20.338082829261424
Sb 18.328417123190885 21.192016405734208 21.221268333189805
Sb 7.671527991883912 18.759484655209445 22.254418298066643
Sb 13.858177091672705 17.7000722880439 21.051787291414342
Sb 23.938039261616005 14.299088714004087 19.676363532364388
Sb 10.3291790134756 18.252616675469348 21.137526896661498
Sb 12.719116342107974 15.178954242098053 21.808953472859216
Sb 16.242300898295888 20.457862839225783 19.316873683290922
Sb 19.729475254145196 15.079914101206633 19.28122832005321
Sb 19.63765889034618 18.76429872855094 20.309541615135345
Sb 16.12740609192218 15.932123201479941 21.76427871303777
Sb 22.484185383072678 18.57256313065112 21.018306609075797
Sb 10.023558886019362 15.433693879373996 20.54970196472409
Sb 18.625738588063232 17.29649893756958 22.56707421036009
Sb 22.8298360900599 15.795744888402467 21.929203710480216
Sb 20.079246240739952 14.830864909776016 22.095010194091557
