5
Energy = -17.37064345 eV
Sb 10.720383758420917 8.88002742494136 9.8880269448443
Sb 8.728179191238363 7.10385484568403 8.84202261183151
Sb 8.368638428867747 7.741155699479929 6.079257078138333
Sb 8.203564665329367 9.88026975426682 10.11078747189109
Sb 6.651483814913181 9.066942134397436 7.752155752064341
