5
Energy = -15.47164285 eV
Sb 12.129667004853584 10.41651749618021 10.341045542436248
Sb 10.297280641628506 11.776061264467964 11.828718425052985
Sb 10.345285969773146 14.388036172629405 14.664365567205248
Sb 12.238062417896392 13.288509551830748 13.159276727703617
Sb 13.996020523937176 9.23276247279531 9.111118888523048
