54
Energy = -210.62937959 eV
Sb 13.880120041245325 15.925122413639881 9.308628339631218
Sb 17.774972988288866 10.953013703980808 11.933548880774735
Sb 14.503460361841524 20.195785396578025 10.19834552086778
Sb 15.56727074256742 17.643195851040865 10.942728878586953
Sb 18.301185490139535 17.461135534150642 9.958030464625377
Sb 17.283402598509745 12.88294607375394 9.823602102780942
Sb 14.692440438952415 13.643867321671422 10.871271160546247
Sb 15.081426677901568 10.781068500799812 13.01854929063593
Sb 12.62421536614231 16.366021132488182 12.000423645819824
Sb 18.33094082524539 15.03955764623999 11.491451491728972
Sb 9.773458198103029 16.836822215520723 12.02605101305945
Sb 11.983605444923114 19.122475860819204 11.379163080870638
Sb 20.952650472448294 14.938608413600656 12.613094826796834
Sb 15.893506720588181 15.102882091145785 13.136489392884718
Sb 19.621460461254724 19.091123455867425 11.963731205730062
Sb 16.95335173396738 12.592026792045004 14.21109082796173
Sb 15.722669540890738 21.866349412299176 12.199044637323794
Sb 15.585430069097507 18.661895516206524 14.208802205170963
Sb 20.106686962279166 13.735504990918058 15.212292214357342
Sb 10.083155002878776 12.883156313007264 15.146454362259599
Sb 11.756751375973414 20.116395303796246 14.096578393366615
Sb 12.602041266398077 9.99666865777394 15.53253104929662
Sb 9.361821347992217 15.609875332507313 14.575361764346376
Sb 17.812812471542358 20.460893414829744 13.736386557978115
Sb 20.642122872382444 17.400252810951887 14.121692290972979
Sb 14.368712599172273 21.18637895227811 14.686297561596913
Sb 13.251381374314512 12.68471628022978 16.4905368420576
Sb 12.374521249564323 17.485798292857478 15.201918673173607
Sb 18.42733704279818 16.61968403303993 15.890218316977148
Sb 9.890169377151885 17.47325789794282 16.72227237348242
Sb 18.55039265514507 19.38855857786416 17.097042438137727
Sb 21.29379346761285 19.20267263435223 17.737101292425987
Sb 7.265792417230779 13.829828819080054 15.460818025789338
Sb 14.849568602577362 17.394462975972385 16.766498630364893
Sb 22.49635861362135 14.614714158380556 16.515997706889387
Sb 16.705511281508503 10.069460310557613 17.317149491591504
Sb 15.207126052882451 8.834795991714548 15.194311319433533
Sb 20.659988449734527 16.475879798999326 17.778351427785378
Sb 8.923472531315713 13.213555431610997 17.708686370369133
Sb 14.777670259198239 9.61579821640312 19.40521441742854
Sb 17.373175146951823 18.747189673348316 19.728054835662284
Sb 12.327711663148804 10.668141833109772 18.307794231806557
Sb 14.683878718840772 19.351845330692438 18.852103246882898
Sb 12.951901841644993 15.224793275296152 18.72856737315541
Sb 16.086357455025 12.899288170967688 17.406534468681922
Sb 21.505049290320063 12.0414530869844 17.3081568267638
Sb 10.080590293770515 15.630957847841195 18.882619946879476
Sb 13.299278462447438 17.460237954351857 20.591333502886474
Sb 19.23554756644846 12.590332223557613 18.85919275381987
Sb 16.968363054138575 15.927296753297941 19.252562167897814
Sb 19.62276615907277 15.12108425356685 20.11972511657915
Sb 15.806343608893817 12.197587595503812 20.258018930987394
Sb 13.548942101628414 13.732630101180252 21.16185052873383
Sb 15.443090138142889 15.876706319241993 21.73147852924243
