52
Energy = -202.95637956 eV
Sb 10.132348054379746 9.184492200575841 9.87979973104207
Sb 12.013150820940798 14.08446641244847 17.70191204610982
Sb 11.201800322952375 10.160977759668475 18.00863777029611
Sb 16.733843492255637 10.060751748869912 11.254545456300667
Sb 11.59486675387131 7.6094944253091805 16.732239556248235
Sb 14.16815345150024 8.82715183071031 10.62423867714234
Sb 14.53269467708962 13.80770190260746 16.296506870999572
Sb 11.724513139218267 12.174497750511398 8.065758975334223
Sb 13.571146751180384 10.47173075646482 4.203032158872402
Sb 16.84108711514479 12.479930759502068 12.789705411841487
Sb 16.105721809362173 12.073855545037254 8.457618867843463
Sb 15.041814579487225 14.389039042906766 7.05906489442292
Sb 10.07557286034359 12.391701562566656 16.57042515348461
Sb 14.048179523676461 13.087968691366484 13.46158936377227
Sb 6.931970541618629 12.918596076216934 11.787169643828157
Sb 10.9865358007922 6.5055322351356075 10.67224966243741
Sb 14.605979048669294 9.913662817679723 14.819452016465384
Sb 12.139844829782906 10.735025109672394 11.29994332631135
Sb 7.293177964756886 8.281493710826732 12.385749332089357
Sb 8.030706033315242 10.498313612708172 14.118305809163797
Sb 15.921292707961967 7.33520060417111 14.93797435020335
Sb 13.866612959865682 9.220757046659484 17.533376607440708
Sb 5.838177379135518 7.52580951577331 14.803507825671163
Sb 11.539207338314453 14.221420521835189 6.052532762958361
Sb 15.273524782964596 15.75714846772669 9.487417154242335
Sb 10.906513681012854 8.684564055267792 7.093681522812765
Sb 7.8387902656138575 14.674849984119001 13.895360027940587
Sb 9.477884791167115 13.182441771365003 10.381754554595142
Sb 17.343396370563966 9.699680243249656 15.763515106507766
Sb 13.734665022620234 16.532100715945166 15.667488787606136
Sb 10.881003168838088 10.594802253173103 3.201741391631733
Sb 13.427997085131992 10.091606246351292 7.049573807648021
Sb 7.617366051411152 12.393991737560913 8.279865468288065
Sb 10.745553648173729 17.853935242444006 13.132024439451085
Sb 9.123901807299863 10.31905115037098 5.4591709296240145
Sb 11.816563966064288 15.755145574625725 11.659063914320619
Sb 9.510019255510265 6.607003258435276 13.165295532619536
Sb 10.649302844862246 13.866306334282509 13.88244890599597
Sb 14.402459865642076 15.9201380389414 12.89866889263471
Sb 17.388342024077645 13.944876607125254 10.280098066579548
Sb 8.786722098832115 15.958885596265464 9.750941781054966
Sb 8.792995916356361 13.15906122467997 5.749053841824533
Sb 10.862692685537763 16.12531612801166 15.67848669254122
Sb 7.709196882445173 8.905965036491423 16.545628795705756
Sb 11.330406699882841 8.699400567312122 14.045670636898397
Sb 5.461026103440464 10.307453708143331 15.449201061345757
Sb 18.005680015198124 8.412622967932572 13.27586235863258
Sb 13.152737225518058 6.955746619470175 12.583315865979902
Sb 6.2093587107082975 14.64390051219837 9.526848446255983
Sb 12.407663961945204 13.02667467129455 3.594959683102644
Sb 8.07160203513322 17.08203592893602 12.307341822150851
Sb 13.765637519010715 13.0080160326047 9.91454374613644
