5
Energy = -16.02738983 eV
Sb 14.575557661001756 9.912605060660685 13.892328919807886
Sb 15.163953776774662 9.959640454746218 11.054153287457863
Sb 12.830235452964795 10.939596750776612 12.070873692632368
Sb 12.263852122223872 16.66143353443779 15.297944195442046
Sb 12.177312381662425 19.08526154273976 14.659551920184425
