51
Energy = -198.876877 eV
Sb 17.724731101734886 11.59134328366349 10.918773581740524
Sb 18.506533224052525 14.364735018940436 11.170879592184736
Sb 18.39067843069651 13.612261860678254 14.587985603747468
Sb 17.02101683349628 8.167836262679153 16.266567051968796
Sb 16.401872008928798 7.834125318955544 18.988958772295813
Sb 17.45415226679759 10.337644529331403 18.15008102662198
Sb 18.200606775374116 16.454305125737257 14.148861728179927
Sb 16.227312257101044 12.441713139764806 8.547722102253307
Sb 17.215350149784975 15.118371702831894 8.676378765562703
Sb 15.098358299624193 8.640324636735693 12.53388163096757
Sb 13.611820110741073 9.90038929201705 9.155853754072744
Sb 16.214964793848402 13.315450712454814 12.633669471810059
Sb 17.282180332869956 14.003010632287712 17.272762713064164
Sb 14.236878627006847 8.43112402328123 15.299086025697472
Sb 13.831589071460765 6.253745686582537 11.510783471880151
Sb 14.566012508536057 11.267206995534906 15.46990775814506
Sb 14.55459273987163 10.745639079395158 18.32636353808589
Sb 17.914617139734776 16.837743240410056 17.04607460232667
Sb 13.521659262445846 13.692706223353317 7.876883727836668
Sb 11.641376071476111 11.477312311005889 7.734548470131789
Sb 15.016668824386016 18.429784143129893 11.96465326971372
Sb 13.509151060080143 13.419741300777263 19.114601636477726
Sb 14.835973493707787 16.56521074789648 9.716708269756872
Sb 13.267058070857201 10.743217027033934 11.864951575361085
Sb 15.302637965799377 16.334918271757246 13.915121677082471
Sb 13.173429401364277 14.433039783700439 10.66707145089725
Sb 12.48578723420802 7.210372620907417 9.147002307716615
Sb 11.305468764688275 11.995226462904839 17.86019750990531
Sb 11.010059153794373 6.7101073145542625 11.550127235381565
Sb 10.282197386698206 12.486804890092458 10.062168071900874
Sb 15.079983206301558 17.432761717008443 16.62785716346286
Sb 10.654635262422254 9.849114552965899 15.449117030292854
Sb 12.700947111879051 17.93281607883897 8.121640577314976
Sb 11.450247876770764 15.721597799945508 6.932500159769514
Sb 14.498777201078864 14.530327915266582 16.6455750407361
Sb 10.794027666016303 9.39118522439255 12.521152477274494
Sb 11.846438694457875 12.413334854171115 15.053549751377108
Sb 8.066970677945209 13.895940974120514 8.873051767395014
Sb 8.792431565263817 10.111182124348847 10.523116295485606
Sb 10.949204027649195 16.090186348018644 13.101809662817509
Sb 8.648391373253828 13.272318772247733 17.62981435981097
Sb 11.934836788123627 19.07916528385732 15.168602242184988
Sb 12.137124140840049 18.665858703408993 12.301359215546483
Sb 8.014410399601775 11.297415199160843 15.57306641565883
Sb 10.942004985440617 16.262258300755825 9.686030943052364
Sb 6.875302009239779 14.247470246099748 11.47909171944499
Sb 6.738721152387255 11.425593892249054 12.039972662410571
Sb 11.454439456065254 16.282210262433185 15.946160996144679
Sb 8.78073892462533 13.953278544580598 14.903541532629063
Sb 5.623429637894886 12.486091796452149 9.574899587640026
Sb 9.336917736152689 17.832038164004274 14.79353846723318
