51
Energy = -197.6304121 eV
Sb 9.33201299938222 11.743499179744877 18.292167681424463
Sb 15.045632502425851 7.707737446555371 8.703230043574532
Sb 10.686979077108786 16.293928698172515 13.765665260350668
Sb 12.378725917765264 7.925201306099398 13.709563536081832
Sb 17.80550075446734 9.270979232433639 14.888174831692687
Sb 15.314314229721262 14.888328391362707 15.234298676053758
Sb 7.788081283581826 17.08914312976812 13.375833351510902
Sb 17.058942079314214 17.021033894379528 14.27339096905995
Sb 9.736966585850167 7.19567091436321 14.750205792969325
Sb 10.30715635053159 16.483786724822583 6.846580675534852
Sb 7.690725799463179 10.771379219861089 8.93200371400754
Sb 9.410532234556383 10.746518561547513 11.281097125541123
Sb 12.362433419205566 10.710095737161945 7.679468415656134
Sb 9.682469305327757 13.749528272874265 7.5900588585224895
Sb 10.393584179210956 9.963280364769162 14.330017688445752
Sb 14.3133958443256 11.108137560215638 13.376457895991683
Sb 9.939914726822675 7.869449325674728 17.52505114442474
Sb 14.241659219969943 7.938105968625092 15.90887908817023
Sb 12.536883443054192 8.676249826257745 9.795673975374104
Sb 10.13206776645138 13.687487295154389 12.644791142440502
Sb 16.915602029389873 10.220254604640996 12.250375690136401
Sb 15.207554595804696 13.809179001009765 12.618612510667548
Sb 9.17630201148873 13.475137130208111 15.568417844586673
Sb 12.405313951240782 14.48573850835489 6.907662328889688
Sb 5.903796765444415 13.66240732025934 12.631342224192952
Sb 16.26353230633963 7.068619370551029 14.028065053362914
Sb 11.523684357735448 10.367642057707041 17.022964288478597
Sb 6.763216355814277 10.890595694761327 12.553019181854168
Sb 17.837458660939028 12.090798542490068 10.109812863298583
Sb 8.15840192838331 8.266329773370336 10.334596222601627
Sb 9.65020515154383 9.938463035857595 6.958056184978591
Sb 12.834081942240646 11.757066021839208 10.337724958954622
Sb 10.312398784388792 17.193149953803683 9.659717490961215
Sb 11.523098405746783 14.442883070805843 9.716656836107733
Sb 6.694512634218234 15.006400405002973 15.077481545009087
Sb 14.098367916152327 16.291583770144854 10.771180933079894
Sb 18.293702138663097 9.649496518695898 8.678005755734652
Sb 7.17555191470765 11.392827546630766 15.35750102863433
Sb 12.231276574839962 12.816181580460709 15.05418459775068
Sb 12.570560277983871 15.451264367014668 15.994760174770935
Sb 17.957269925171556 14.915115166009057 12.484984642785086
Sb 16.751495667046385 17.326739643409372 11.440013480490085
Sb 15.417930766956356 10.612000150052118 16.007808479763163
Sb 7.959330928848024 15.208542946043183 11.255107831876245
Sb 15.26891109106426 12.423817334464998 8.811875916576183
Sb 17.09168455106955 7.795657312781435 10.754579230495505
Sb 12.680318992592152 18.768637207827712 9.99910826269876
Sb 12.896398778133706 17.948716454660534 12.753760493558394
Sb 15.759757757643342 10.051323404150978 7.20225790475327
Sb 10.160013325803419 7.500386215171095 8.40933974696336
Sb 7.598584315670525 9.57179736357628 17.586708950761864
