55
Energy = -216.15671136 eV
Sb 16.943420309205695 14.060274416382033 8.905028020180586
Sb 10.355534626461647 14.671192895288733 10.401574526756514
Sb 14.424294868540658 13.037594956013091 9.838359702999705
Sb 18.306151368974067 18.637621757152147 10.45171214852296
Sb 16.78230051508661 16.211934866848967 10.87345512550958
Sb 12.159325356897423 17.841850855406822 9.521050320113146
Sb 18.57795813417886 12.413602851970975 10.687800998942281
Sb 14.590378945599749 18.990390292672114 10.671853159115134
Sb 15.038354224163712 13.331676713037456 12.663387352160726
Sb 21.139541480758634 15.417141289992687 11.771533935256482
Sb 10.083636958062568 12.97054341877602 12.745073176908718
Sb 20.69930420761929 18.260151943394725 12.068716731707998
Sb 13.056230560084812 15.432828164186748 10.874338243506543
Sb 14.784257496712977 21.369351443518045 12.349520464154295
Sb 16.689945543998693 10.970892869525864 12.337019512402588
Sb 12.642816923475113 11.932827536357442 13.671417037861977
Sb 17.144136988491546 19.704753329355984 12.984034371227104
Sb 10.103041886082263 17.367133723870413 11.511906993871794
Sb 18.48705726857303 14.611170466820633 12.566708492818638
Sb 9.31582717778131 15.196155695136708 14.46867957566336
Sb 15.03750063812286 17.68056734789406 13.249431307222727
Sb 11.724405177551475 16.70977983919 13.907745061664773
Sb 18.823681123342677 10.899321326408598 14.317426244068296
Sb 21.598994304109016 15.347132778506143 14.648668971860278
Sb 19.47520312281075 17.345229908722537 14.531777019533894
Sb 17.47873428222089 20.372719075830855 16.419458489296332
Sb 12.801120490976883 13.598295561639038 16.048545963521764
Sb 9.996538551636936 13.455889119356018 16.64959152697401
Sb 12.44444311459166 16.861685646230555 17.231272740861172
Sb 19.653550017648236 10.150723502369607 18.2335021469641
Sb 20.07232985231243 19.08335379167651 16.799147740365274
Sb 19.517399264635884 13.467480516873174 15.595120957027051
Sb 14.007620949319243 20.003803222830626 14.787806071849527
Sb 11.116636815060144 19.50597886424548 14.561558595306284
Sb 16.269606873036857 17.704003223899235 16.831791742046644
Sb 21.56042419595546 12.004247336348383 17.108477528999995
Sb 15.595619627414662 19.854391949495096 18.59597739818009
Sb 13.521055290363355 11.639215152694199 18.069637112441125
Sb 10.152111121345484 15.720544398298271 18.507834669893388
Sb 17.258069165224565 10.17139419340794 16.603574442425813
Sb 8.749168177391589 17.690463893489774 16.931336258958968
Sb 16.28527786502044 12.617675965138364 17.956588334265604
Sb 10.97353467930366 19.398095089479927 17.44996302671047
Sb 18.80537391708271 16.75405994416377 17.952405427204386
Sb 16.501531328734465 19.04114243456846 21.188176496358917
Sb 19.474919991918515 12.946825857744436 18.902287125542376
Sb 12.829674461508478 13.703282327445997 19.9563741556882
Sb 14.6026590753812 15.742905113370263 18.895952968746144
Sb 14.222227529878612 17.232185007285764 21.34228391075348
Sb 16.596115227496718 11.365792091767268 20.631809915120275
Sb 18.880859053325654 17.48134698394522 20.742856777864766
Sb 18.883781512260807 12.732908289913524 21.78261360659808
Sb 17.397307871956954 15.00607811660939 20.82171432396525
Sb 14.49554299530368 12.747128759509305 22.123762903304332
Sb 15.626617999427998 15.288414388364561 23.01350965315802
