6
Energy = -21.60749143 eV
Sb 10.741127058580997 9.929593447444397 9.692498690362264
Sb 9.959665204843846 8.035437549402094 6.639863882982839
Sb 8.127414356848128 10.524430085702154 8.699934890201698
Sb 9.03214799777665 11.718903892664942 11.142990033198831
Sb 9.018461959709823 6.2739980155690835 8.202022273489025
Sb 8.456419850597744 8.852873437574653 10.95792665812279
