6
Energy = -22.63482619 eV
Sb 10.20369434734499 7.2390602220700115 7.84225129377386
Sb 7.64342245198156 7.282898940831741 6.512177097012694
Sb 9.758197956277701 9.982352345799 8.779621693974644
Sb 7.192376732244994 10.02170576517109 7.451352197707456
Sb 7.38640965492148 9.116141032140414 10.184830355558937
Sb 7.833858632867785 6.375801469626254 9.247727137610681
