6
Energy = -21.74551823 eV
Sb 11.146169604492398 13.576658101704375 12.458121627241797
Sb 9.148924393414507 11.764490897786192 11.723158988630573
Sb 10.872232905332362 11.043682054507425 9.401033345177513
Sb 10.93709453700929 8.241281104243164 9.514410268444495
Sb 13.037287302799502 11.904984384927829 11.27116955835599
Sb 11.21076806790384 9.626036968826222 11.935082178087939
