6
Energy = -21.50951862 eV
Sb 11.322054553028048 8.126785241552664 7.5800975567311655
Sb 10.155274846564565 6.516117693808208 6.049328327344248
Sb 9.557288233332242 9.965445823645775 12.652486542437968
Sb 8.285977929968288 10.282096393927155 10.115709746527862
Sb 8.60564195900476 12.534502608861912 11.848019124723905
Sb 10.88323712338344 11.384526883485632 10.563833347516336
