7
Energy = -26.2670779 eV
Sb 9.872211346272174 8.470644126040435 8.247461773620216
Sb 10.610072398194557 12.030651493144953 12.055145441475814
Sb 10.551374517497111 12.26697934415831 9.184296770873354
Sb 12.219312385636568 9.876929901311032 9.017911859360495
Sb 11.671854556608583 9.302195797277614 11.808794674887084
Sb 8.255169042968802 11.24124640575844 10.596950264375192
Sb 9.029221492417706 8.451738195795611 10.962157089207658
