7
Energy = -25.34506054 eV
Sb 11.572630039443698 10.401106595766834 8.697413729616676
Sb 9.703181247237048 11.513755632557888 7.045548745167949
Sb 10.719132721058084 8.640252657109093 10.74409591605136
Sb 9.240848787555384 6.39956700452819 9.682686072770565
Sb 7.9171228248797 8.263531509157268 11.362560249732065
Sb 7.2741123132759915 10.298343949148293 7.207449186166738
Sb 6.972632264654021 7.883102849836494 8.659906298598703
