7
Energy = -25.2690591 eV
Sb 14.746606409439858 11.954005097737962 11.026322419772086
Sb 15.852789622240254 11.7169546321683 13.646158185199102
Sb 15.897581041795616 14.233983393871743 12.299759968988251
Sb 6.804722170889725 11.414713515317557 10.423255464267132
Sb 13.423427830506458 13.165420094076113 13.246972117323223
Sb 8.254355928478883 11.898032342702614 12.882734627463298
Sb 9.223858914942227 10.266241893913515 10.927310227490352
