7
Energy = -25.4963751 eV
Sb 11.174660657594707 8.253982091358708 7.945526643596609
Sb 9.195643383502556 11.60240607238179 13.411044511651443
Sb 8.673372029240246 8.827256919818279 6.730768182057386
Sb 8.591887569987698 9.036629598781456 12.7041992749081
Sb 9.423662643988465 10.098936745089615 9.293476768245462
Sb 10.713609798443764 10.830141253628938 6.813373444384055
Sb 11.10813107082142 10.231614472520072 11.98257832873594
