7
Energy = -26.41545318 eV
Sb 9.7937155396889 10.888904784133858 12.926378968460872
Sb 10.906990544588437 10.760328958164049 7.862444737226854
Sb 9.212314507066138 12.097082063760853 9.849669888639184
Sb 10.36335112784292 8.355369601994736 11.77190726134556
Sb 12.102348216174917 12.151473287260353 10.030287724161772
Sb 9.026247203756956 9.246152661916037 9.372553908218299
Sb 12.456970677672468 10.242195362197798 12.169414697419706
