7
Energy = -25.41908039 eV
Sb 8.25884434867643 7.278819848541593 8.88811804479687
Sb 10.380203418963742 9.24833868319975 9.03918544518336
Sb 10.965633936233218 11.320625094738594 6.922555025918354
Sb 10.32721005257539 6.765023911254158 10.78595946504665
Sb 9.5633827632476 12.820664714434479 8.598800512018673
Sb 9.143228327202182 11.03076299709352 10.894815352310513
Sb 8.05623996423318 8.23050756186938 11.56530896585705
