7
Energy = -22.90174232 eV
Sb 10.75504036020838 14.520164190717619 12.506749255743198
Sb 13.474666516010718 13.459246859512485 13.457229393442523
Sb 16.130911153777685 12.485284376720406 12.434459475523663
Sb 16.140664655131395 14.41672411042759 14.470807164193955
Sb 18.5585832007844 13.448522082045892 13.44611633006496
Sb 10.754392875459112 12.386420671503881 14.401225802368147
Sb 8.350438667471995 13.448335137915365 13.448110007506946
