8
Energy = -30.78015084 eV
Sb 12.501313093735583 10.31030037722163 8.963773062484448
Sb 10.116473794444842 11.811092506190453 8.555146526988294
Sb 9.960864168818182 9.010817865354067 9.048517405439538
Sb 10.516954612498461 11.507184672541598 14.943035236736465
Sb 10.998308629485043 9.953635000461128 6.550447232948406
Sb 8.975398263972803 11.19346443394415 12.54617650662957
Sb 11.518521523525825 12.486353504872712 12.441261879418668
Sb 11.362787560410553 9.677773286305133 12.902263796246062
