8
Energy = -30.36735385 eV
Sb 12.378603106547628 8.69986510135555 11.021010311478879
Sb 9.974599955885438 10.024469333215425 7.5353894553208285
Sb 12.336342528784296 10.720010619963213 8.951489985048058
Sb 12.554133570337914 10.950111787884289 12.829442851475973
Sb 7.9014831605105 10.581614907693554 9.118109882343445
Sb 11.45979095478747 12.746486253534206 10.760905069506624
Sb 10.171877489671614 9.314930823583627 12.714361829453551
Sb 8.938964215303317 11.650978902430714 11.535921537883985
