8
Energy = -30.02536648 eV
Sb 13.035453097984263 10.512157137720743 9.88672216470545
Sb 11.469497747351722 12.607672814589872 8.678629890039694
Sb 11.87350382489636 11.723986418444008 12.373526841417819
Sb 10.854162809625931 8.691140228641716 9.579124241894108
Sb 11.164414666985088 9.779373761847943 14.203688654767713
Sb 9.45789928334214 9.70943543484745 12.032018787266624
Sb 9.39379406549188 12.491152058527794 10.750105134213154
Sb 9.278410784464093 10.77917019856151 8.369148676090314
