8
Energy = -29.98340517 eV
Sb 10.483397362246315 9.08146728925293 11.909652403653531
Sb 9.944708883629788 11.190769377478064 9.965112836642644
Sb 7.046219460638704 11.049640705209578 9.732558584871951
Sb 10.563727515903972 6.989572794687658 9.919021789841391
Sb 12.844813547744467 8.282825210396028 10.55321174101107
Sb 9.815784618515938 9.340663054614732 7.742189614819375
Sb 7.149338220217264 8.443624034358452 8.45685408825305
Sb 7.3333758853491915 10.802803028248595 6.902764435152493
