8
Energy = -29.23376345 eV
Sb 12.95679619311297 10.341612639836477 10.745480917277863
Sb 10.984405482789274 8.31052920856416 10.072624514726277
Sb 12.877076952893109 11.565192659727625 13.782525909958737
Sb 13.951195016324027 13.527758202608302 12.06126601803945
Sb 10.732753725787198 11.828288303374707 9.843185257753609
Sb 10.348526007698075 10.246879768178976 12.148965430301619
Sb 11.379148644504397 14.410895686583292 11.248789038837936
Sb 10.720660443534804 13.386722481012844 13.813379342773393
