9
Energy = -33.75108822 eV
Sb 6.6976744251175875 12.543160523680243 8.843661443904859
Sb 7.834082980587544 10.507188507082613 7.202026861971168
Sb 7.610710039719603 10.914040299983274 11.01085397184599
Sb 6.859873708249261 8.776594122046918 9.257105137915884
Sb 11.877940914927292 8.081951985092813 11.766690181466602
Sb 12.887968057772037 10.174582919263527 10.090177946281447
Sb 9.819684464097156 7.522848168369096 9.706481435081852
Sb 9.95097966090035 10.319113115787236 9.318459832401357
Sb 12.81740709557361 7.516841705638996 9.16086453607583
