9
Energy = -33.28917324 eV
Sb 9.817291252174813 10.785874435620247 9.637563500395826
Sb 9.653441262866075 7.2920271775644725 10.88800776091165
Sb 8.87480447564383 13.19818921585614 11.236814569927041
Sb 11.09401068482424 13.59720271404958 9.507776743144086
Sb 11.71176119213076 7.580112184039891 9.240964636749604
Sb 10.638872031120737 12.61267436202576 13.426147715012842
Sb 12.82607050336769 13.033913384357568 11.73622068020944
Sb 10.712805328204588 9.749414157185262 12.213150131268515
Sb 12.682811649558978 10.281908097676942 10.212396074323573
