9
Energy = -34.00325609 eV
Sb 10.957445412950864 9.019644292745875 8.206127391656542
Sb 11.189959883049255 12.78181163647559 9.72812879068133
Sb 12.552999117819427 8.73556671427774 10.551584552628103
Sb 11.918144094545342 6.435013689402167 8.979167498660647
Sb 11.08043119192328 11.898232367452366 12.475912872523404
Sb 9.790434493376535 14.369667797228907 11.639437561318442
Sb 8.315795034419573 12.497273580757335 9.995178117910953
Sb 9.787095134813757 7.9961365413375525 10.60411238523983
Sb 8.62072578051924 10.479683523740047 12.033380972798925
