9
Energy = -33.88773277 eV
Sb 16.49450289024029 12.127875384627215 11.92613042777627
Sb 15.4868472666869 14.74719302717245 12.649495947328298
Sb 16.344003752478933 12.978490874358707 14.687232620092882
Sb 13.861043181755429 10.973114790481318 12.211546020816385
Sb 13.493856400943537 13.139348043935199 14.026076516724144
Sb 10.511567819302071 11.093779855183751 11.193973093178478
Sb 9.334371561286533 13.67158157265442 10.854822268827515
Sb 9.65430729651032 12.605153571586143 13.474650351129794
Sb 7.69621036565972 11.501201528000387 11.706385515704065
