9
Energy = -34.15871476 eV
Sb 11.206077737492551 8.338823700812165 8.776829327319037
Sb 10.808189152243743 8.837811349425643 11.627795587667372
Sb 8.84533788304286 6.741626802510496 8.807524692051667
Sb 12.421394761048283 11.173912880588043 11.644316965424041
Sb 9.657202365559353 11.420927721723839 11.043984479902004
Sb 10.190054255308942 10.98247184602148 8.219129660348896
Sb 7.097757090685133 7.845647451835911 6.8201156272223695
Sb 6.681704149722936 8.444884961147254 9.604252336243558
Sb 7.41139660962314 10.533007290662113 7.775165328547869
