9
Energy = -33.73132215 eV
Sb 12.351749632980875 12.721356492915849 8.034515786845493
Sb 11.382057157835886 10.045952477670994 8.426013632478453
Sb 9.606084367711345 12.271072967209092 8.785336374878035
Sb 11.390413339501965 13.603442529902871 10.59431140283724
Sb 12.46948758930651 11.687681832618546 12.45557431385459
Sb 12.418355787356079 9.254367625567198 10.994909299444762
Sb 10.13450997562832 11.72901003178007 14.043675143387551
Sb 10.019369141839626 7.93642192464604 11.689038100284899
Sb 8.741413810639694 9.441521213045116 13.56068165249943
