9
Energy = -33.92955345 eV
Sb 9.640925322220074 7.676117779075175 6.453669331871191
Sb 10.64692307809633 7.398176069069661 9.127292200029002
Sb 9.375933970383189 12.654628265460584 11.839464345520716
Sb 8.053603001011853 10.100306952153032 11.992061158890888
Sb 11.856630247859707 11.604772549778131 10.817812641243254
Sb 11.617942683477665 10.026559178417086 8.402764658067241
Sb 10.649821227579318 10.480255463711917 13.18068164342933
Sb 8.9084736748313 10.284804775015173 7.4107379803153135
Sb 8.021302196551384 8.54593436932992 9.547071442644167
