9
Energy = -33.95149287 eV
Sb 13.17910138249293 11.302673206757913 7.1084560313977505
Sb 10.805124691920906 9.836122950442489 6.531093513180041
Sb 12.193077210503446 9.403664847001597 8.999371528182074
Sb 10.559260725588471 11.71999675652107 8.678274427380098
Sb 8.142599802368451 10.8485972246852 10.362191684556853
Sb 9.082098272637541 8.459880526731366 11.68334097281379
Sb 9.36900041528825 12.072677948546898 12.6727749418721
Sb 11.238629041825508 9.886193886034784 12.975997370350505
Sb 8.69940915976506 9.738493355669094 14.256800232657051
