9
Energy = -34.08448176 eV
Sb 9.997552005762078 12.951361988301892 9.185089601937886
Sb 9.463333452129435 13.534769473312355 11.936084287071692
Sb 8.466651126510047 10.270580247401092 9.385303230248066
Sb 11.232863680893379 6.99173733812143 10.017340050976545
Sb 11.861089413065447 12.168216157454168 11.21786715315444
Sb 9.555338039980303 10.637993192332164 12.047777545086555
Sb 8.382253150356394 7.233084565962937 10.026795566454922
Sb 10.898824037038745 9.218582816922524 8.210010268703419
Sb 9.766627574089934 6.618206700017621 7.598264776192944
