9
Energy = -31.9407881 eV
Sb 11.768179917284101 8.712887399533166 12.380018578125101
Sb 14.230817081092498 9.848629403497808 10.461011656946289
Sb 9.892534698650302 9.431730263932517 14.228663353699913
Sb 11.900655205179332 11.780031396097858 11.988823431631019
Sb 12.885331395198596 10.32224994942582 8.282279129770533
Sb 8.986097825759792 11.828936695660394 12.617847761437616
Sb 11.248951298600542 12.980654549752122 9.308503423917392
Sb 10.165021917722319 10.281628157605212 10.38139158472432
Sb 8.901590009378468 13.865842390461575 10.390131475707637
