10
Energy = -52.8221242 eV
B 7.992421433608291 7.8002230586347405 6.088880029319765
B 6.650575355149349 7.438084228188384 5.3470142847319275
B 5.657210658059899 6.821230973896877 6.3475015447578835
B 6.426833487288404 8.215098376003953 6.92169292308032
B 9.001253546144888 7.3907279281890235 7.28211659189151
B 7.90064821210696 6.704651627533422 8.553316301113021
B 6.61809353430713 6.551240155895258 7.594730873109823
B 7.075011800859168 8.296416438200797 8.39231297968208
B 8.14800601923765 8.064195573251824 9.549440297797602
B 9.399582767446685 7.587768454414137 8.79263098872448
