10
Energy = -47.35487777 eV
B 7.150465443239208 7.052359964704881 10.30125058203308
B 7.066115535710548 8.104932414086344 5.89752179230016
B 8.718611388077884 8.305197488591753 5.953208441857659
B 6.617009227616336 7.984234215812392 11.437823431517486
B 7.799057363249985 7.9282279540835106 7.331565929473408
B 7.462521431048397 7.683231552573983 8.886501791206136
B 9.535013116875184 8.129903092199164 7.305822572088861
B 7.787996890808557 8.439111100127256 4.5903162476943535
B 6.931472509291823 8.68754162735847 10.111399245033667
B 10.852189555931437 8.042116013703893 8.117421847668197
