10
Energy = -48.52524178 eV
B 5.445528432870892 7.405788327983352 4.677713595506796
B 8.179476010278249 8.240090949779518 5.35385037132615
B 6.842733557381316 8.064820364443465 4.591500370163163
B 4.501251704779786 6.512672603556286 5.523399198950147
B 4.398968823942713 5.645165198374139 6.800521260724532
B 8.927216807104815 7.824763770340286 6.646012667250872
B 5.227266036483073 5.13194512290777 8.005287970992677
B 8.848508972617191 6.950331464554063 7.924494440398423
B 6.598660400644454 5.228732059092303 8.715089786333333
B 7.973603675161379 5.938904560232111 8.705344759617486
