10
Energy = -51.2321335 eV
B 6.765458935133657 7.563413886345689 6.387311609456704
B 5.986432206889507 8.331963974905687 5.291854684884396
B 6.642657627379792 9.307588590589964 6.230102222081981
B 9.322369668661882 6.967778359212115 7.955668526927131
B 7.664342865814669 6.911061874266898 7.624149751293534
B 7.520761363071973 8.72994824739697 7.42233311653278
B 8.448412260309587 8.380516489331434 8.705278026378977
B 7.521235612088607 6.946208226386073 9.306135479576385
B 8.626524012027964 7.597521295851693 10.208390765191316
B 9.884663341357237 7.646856948448083 9.251633710411669
