10
Energy = -49.83145953 eV
B 7.801441231510064 7.837580258496343 10.036940000979198
B 7.727788952832992 6.624334461632989 9.088830295919323
B 8.569690129351219 8.104425560252949 6.825247822327759
B 8.238313321997046 8.129144791219067 8.420629157903381
B 8.541521292158826 10.863385879392496 9.855944844363457
B 8.38128597544524 6.648262021763191 5.963197229601419
B 8.201077067265029 9.305563218356914 9.77795912450958
B 8.842967258620574 7.903387119055306 5.23529072310368
B 8.051493442749413 6.578703205412329 7.5331756101438305
B 8.849830453039793 12.371192609867636 10.025616530609428
