10
Energy = -52.99969087 eV
B 8.501721367869804 7.687677138233206 6.546761465277817
B 6.864556369296536 7.37005801353113 8.99791100748583
B 7.813919465513679 6.369177785837112 6.049026211884257
B 9.206590315296912 9.839550566449743 8.330651796872482
B 6.7884630314029 5.404434666180101 6.641153967573352
B 8.098539262561216 8.454695836506213 8.309976402158316
B 8.341381227402206 9.653075882061218 9.610461859336716
B 9.229300479035562 8.9933004633961 7.047957545123805
B 7.29111347851172 8.54884063723495 9.896030582036772
B 7.235712029762647 6.79745340831988 7.558608022126301
