10
Energy = -54.19765376 eV
B 7.503449606051873 7.8555046012951655 7.196557405972271
B 9.05989096878178 7.310499874723735 8.204235375672697
B 6.614638249177366 6.234864040830117 7.014983427410048
B 6.443007147176576 8.128580886350084 8.554148471902744
B 7.917854615924803 7.8614095191972915 9.105255777101311
B 5.72115681285396 8.004534780130028 7.159700069780524
B 7.52869199807178 6.365064744639843 8.260156145203812
B 8.858987580630817 6.895217461385755 6.6790778434806555
B 6.169297308238275 7.302802232627444 5.803677925559418
B 7.71579151243025 7.031677158442532 5.59880586718036
