11
Energy = -58.90999965 eV
B 7.240150719628338 9.148976627893209 9.507780009046936
B 8.695900752428308 8.283517959600887 9.211617566596166
B 9.40704346666308 6.821070173658944 4.7034073300468195
B 8.17204061507127 7.649557182979756 5.009920639322049
B 9.354878620974246 7.249574290793218 6.220637891669642
B 7.874571698290658 8.17566557336928 6.47417466544569
B 9.006069206929068 7.800723838524055 7.711181837095946
B 7.847229336210628 9.206448040576998 12.142413214970068
B 6.914273193253847 9.5648630136465 11.002597044401282
B 7.621086761731276 8.66032987653963 8.006763138105164
B 8.405690860317137 8.703065878099403 10.758578685074031
