11
Energy = -50.62513284 eV
B 7.139663628567544 11.932033793370744 7.4559516484801245
B 13.04686856308129 7.641816615879592 10.32291155983607
B 7.173952419714569 10.961202419378658 8.6853304732235
B 8.86354653801708 10.377674112594446 10.931976393626485
B 8.644272093062263 11.287629611261487 9.629447556802585
B 7.890249795606317 9.304606762307332 11.333350546731571
B 13.468322958280167 7.632642073343483 11.91706451241088
B 13.764672080896215 8.868586931080664 11.03443195974502
B 7.433967151303671 10.049905110412162 10.03272331547977
B 13.310092534363257 8.891370393714528 9.446225516220066
B 8.36021210866241 12.148352048211825 8.30640638899828
