11
Energy = -57.25600435 eV
B 8.07971501014962 5.88572321521864 6.369682072943884
B 8.226279284369586 5.318437954865298 4.877689152031186
B 5.830508036268818 6.510002015225968 6.366142820297978
B 5.062446093880669 5.412720728844574 5.320145728303768
B 7.139486357183191 6.6906068803894785 7.4530863740053
B 6.603243013381394 5.665635015858974 4.917851015552612
B 4.456251607261201 5.642343665136786 6.802768783056839
B 7.195833531686058 7.354721722856635 5.8485107340441935
B 5.6854319671306 6.12844182376123 8.032618251067271
B 8.152848443301604 6.853907192806801 4.675616600665955
B 4.334471759434762 5.3437381842869165 8.388915641946056
