11
Energy = -58.36806625 eV
B 9.535096901784907 8.6445994748969 7.939428695166754
B 8.758292568223377 9.433035208641385 9.371841481193087
B 9.86973261580624 10.109033711921828 10.410270546118861
B 11.40928032101632 10.488218382850633 9.745017952190738
B 7.153571513317039 9.166935327714475 9.234789304269022
B 7.226931389816062 7.044282718242777 7.552282126347456
B 6.465126920033385 7.864567703289905 8.620961590603628
B 11.071070171939107 10.738131890207766 11.209506694984281
B 8.614453568503828 7.6240749270599615 7.086715889663281
B 8.176918876341473 7.887465852056438 8.713277347002606
B 10.409697059409547 9.689826709309468 8.806080278651573
