11
Energy = -59.14910281 eV
B 9.731619671931977 11.038792420907779 8.972868853038124
B 11.312424972118116 10.230082317240573 9.57705813058523
B 9.592102040100748 8.268972452540977 8.53366390362894
B 8.644752522671023 10.474235805219525 11.528385526458743
B 10.418383486134143 9.698337307059502 8.285120268713811
B 11.19150076996263 9.534324875972466 11.042424513356005
B 10.774350522517233 8.633422323140246 9.549058207293978
B 8.807002758694379 9.64159879484289 8.797776536373208
B 9.970036752237114 9.79235584023528 12.030889583874838
B 8.477039294944007 10.916446585768849 10.00679744642172
B 10.05095070868865 10.741595280021002 10.646121536153567
