11
Energy = -60.8814296 eV
B 7.492039794913624 7.944435057993011 8.469717042022907
B 5.755304844160961 7.506247989710958 6.386494592830195
B 7.493523365609628 8.429720996933328 10.076463062726965
B 6.75139480102576 7.026989935626837 5.315875490157688
B 8.290159960277226 6.840133901538918 5.357854161672563
B 9.298811891292315 7.084615639205037 6.496270127818891
B 8.879820949186502 8.061030742329768 9.449276867539586
B 7.543890628362413 7.41149375286877 6.822411781518538
B 5.783292674898924 7.971915026860357 7.871012258073134
B 6.1073778395555305 8.385450347142802 9.35568849416193
B 9.163411147889246 7.568291832330939 7.973993203352935
