11
Energy = -59.14916791 eV
B 8.290499632318065 5.99665111836715 8.709879297419523
B 8.023131964098729 7.545732578844979 8.974662101151361
B 7.936424326901451 8.653585833780136 7.793539542463434
B 8.438882848794945 7.036537647989755 7.397252953113741
B 7.7925809370537324 7.927990468543238 6.068105093524378
B 5.269480671941417 7.908286763503532 7.294016987652133
B 6.600913170252652 8.798097720678765 6.8215628742501195
B 6.252791120497853 7.259251393276934 6.210670468591617
B 6.439153125059198 8.1316989465995 8.367620577253144
B 8.15271746408996 5.383330370820275 7.270459143691807
B 7.739670450355082 6.294825556100966 6.027704733677648
