11
Energy = -57.54613831 eV
B 4.701331594658025 8.958849057072388 6.298145903315851
B 6.275344987354145 6.752127764019032 7.77036068881942
B 8.045103389688446 6.707499558240398 7.865094020021033
B 9.617628226066147 5.91302695750213 8.262311788992857
B 8.351747286814527 5.129196540306852 8.669485510611963
B 6.8567361533941105 5.493134279636796 8.421534638251385
B 6.150108603949409 9.473452919344428 6.148759991739223
B 7.643083350912317 9.342684805397338 6.409260915895216
B 9.67544780911022 7.34233242644705 7.70052589915837
B 6.768142053717437 8.09943482996707 7.070743388582
B 8.59440870330472 8.355270977813683 7.159089784975642
