11
Energy = -58.80577344 eV
B 9.174655754583299 8.790223539272747 5.58976118080864
B 6.185363941047381 6.614225510861972 9.67410170521356
B 6.588327906196491 8.092180256086909 9.58926664071978
B 8.136969858711996 7.6381741222887 5.789307591695925
B 7.14110764108005 7.186140356046311 6.9630249284522465
B 7.723438986269105 6.884704052433038 8.82719063868475
B 7.453226151834783 8.768275943277429 8.414692870001835
B 8.098809823400114 8.932824787780657 6.9872639674215415
B 8.94053024968982 7.569260942160735 8.091900463116747
B 6.121085512574014 6.734433034066421 8.116977668717713
B 9.77512283035903 8.225803848153031 6.884024580386045
