12
Energy = -65.25832819 eV
B 10.006013445452203 7.790363649954165 9.763115298541683
B 9.865574622885537 6.504871150824287 8.9408147053913
B 9.265107474333172 7.9985492679445915 7.843042164492239
B 9.469276790917377 9.182952269164748 9.241623014967844
B 8.796940548143615 9.692084675027727 7.912226070299373
B 8.806138232295659 6.294135826383282 7.810682821468074
B 8.31891436392761 7.3802556508437105 9.298053302946986
B 7.5236057838779695 8.604893295609239 8.567894381419602
B 7.55389207049263 7.165783540158822 7.5315685380714985
B 5.737221530526838 9.681875849681763 7.366437590322446
B 7.260416453036813 9.95642465037758 7.401612183480878
B 6.412608454256539 8.312874194570922 7.182149344426343
