12
Energy = -64.95384273 eV
B 7.8940203935231015 8.063458944016384 7.473192648577549
B 6.308115838062455 8.693262317350133 7.5098983957794525
B 7.769214552047549 5.1967744883293925 9.309395755991172
B 6.475496251720357 9.249955032370481 4.937082524680612
B 7.166211036590098 8.217118448333284 5.919619244711994
B 7.093909326898755 6.5516274006339374 9.653946402972883
B 8.702696748725044 5.557707494720593 6.690061812034427
B 8.322430884217507 7.010172258995725 6.3166049995825215
B 8.465735510016083 4.761823486540259 8.007315990072117
B 6.928474544574742 7.829010021177135 8.782275089476977
B 7.840366246463402 6.412072688879917 8.021074625253473
B 5.637596629834169 9.273529738724086 6.212111002634038
