12
Energy = -65.2812284 eV
B 7.327046385941025 8.390250072429957 8.276204746965416
B 6.610079006762914 7.599753058183865 5.592888645923995
B 8.082968315853506 5.496883232585982 6.406738553392611
B 7.623777959314429 5.666323854110779 8.063376323906589
B 6.433990082356193 5.541618332149001 7.011292312730621
B 9.117330604002577 6.018869316126366 7.505363504319236
B 6.854458327235045 5.966840710604547 5.443796901416594
B 8.453127465015374 7.214628873571962 8.22422618029084
B 5.444336756408667 6.500756145271673 6.091631493752672
B 5.347035417865091 7.989292547121345 6.7497098648681435
B 6.874795677851092 8.784986174088314 6.620576778974965
B 5.909377003766265 8.902447472773721 7.9339475859805715
