12
Energy = -61.49804247 eV
B 7.9112492183180745 5.776910608228362 7.802970287841352
B 7.238495215299259 10.041507586577975 9.011023459633009
B 8.140361069973064 4.697131879651496 6.703692488718503
B 7.6600078064385935 9.91502319812231 10.596529426651422
B 8.359255817079946 11.236677890718983 8.821476995925577
B 8.077086119061844 8.768029796135997 8.435626036857446
B 8.612959980738763 5.279494381172147 5.356872911961854
B 8.124026680216609 7.379649323871888 7.637172488485419
B 9.642161577709548 11.123158111452634 9.731044270687029
B 9.1101118475335 9.56346807444459 9.406727772457081
B 9.158930702023188 10.228576238635545 10.956493727658653
B 8.454367668663851 6.517723350582304 6.2823588195505495
