12
Energy = -65.81595639 eV
B 5.287144162581493 7.824346593460669 7.179605465862404
B 5.858143504463791 6.924173602572737 6.024768987639661
B 6.023921069887801 8.052215316677371 8.567870559311167
B 6.720970683253224 6.819299097642903 7.5600024335314595
B 6.884118110475656 8.624727958507993 6.9935746093633355
B 7.242235593542735 6.087590149707531 6.113090377608605
B 8.292724593676098 7.460431772453315 6.961456009352162
B 8.306495662311615 5.7780333283557175 7.228488444497155
B 8.342436082789664 9.146502643787732 7.38088115768023
B 7.615577324876354 7.972591149455293 8.660742134091386
B 9.311345803949994 6.650557643492036 8.152332229039914
B 9.33451940610172 8.22087079014396 8.204457513009316
