12
Energy = -65.11323548 eV
B 8.668914012032282 6.812691636104673 9.602617719088064
B 10.577338579549313 8.702751265393314 8.052497922800042
B 7.1392630933084575 7.019295684681623 9.815228547356364
B 8.093340650245045 8.440152950481407 9.203942113441766
B 9.587967366693755 10.273502912782117 7.762842837545474
B 6.31614093716886 8.274473186503954 9.534110394677263
B 9.789625617181283 7.771371193029292 9.078087663792182
B 11.034784546478413 10.323993724454345 9.222091608275276
B 8.242043766203414 10.167029006725341 8.610681570615585
B 6.817525311424996 9.650971494109973 9.005670387677203
B 9.646195555781418 9.516361865079414 9.540379026728589
B 11.16285899427314 10.123403510995049 7.647848638342439
