12
Energy = -65.35255049 eV
B 9.107290788870584 8.175638011138613 7.655966150371303
B 7.8970822039071065 8.273507062498176 10.37245152188465
B 10.508769062198471 7.948320308795144 8.62724643053949
B 8.091957805042998 8.501983365377441 6.175593792393119
B 6.099217254876105 8.256403585948688 9.707293338769238
B 9.626151529340815 8.297287139408828 6.016316596209923
B 9.138842474126076 8.119203753895905 9.383594207587912
B 6.735154074319349 8.735932442503898 6.918085287758066
B 5.9166938045374255 8.69374668431607 8.20453872742707
B 10.73789139405683 8.094483571051956 7.102999691889323
B 7.5570454909115 8.332345413962635 8.540240416767668
B 6.61624780306752 7.872621311747251 11.137553531612696
