12
Energy = -65.26995651 eV
B 7.4898260457385595 9.989270982977349 8.649867077528782
B 8.538116940915394 5.238634159367144 6.546938015782059
B 7.2663923200279115 5.113731711526947 7.452497313665035
B 9.408594060772469 6.503865155655338 6.326704653246969
B 7.426934293703729 8.032499493554685 8.181685933355409
B 6.563441514614267 6.253314064782783 8.282544069313685
B 8.748450455416712 10.752936475106653 8.172243561006217
B 9.040864219668103 9.379666680973946 7.559587482269845
B 8.030651020686278 6.655890808674566 7.331210383538926
B 6.349015121551805 8.982526523013536 9.083475340660504
B 9.216331797344901 7.9347623266121845 6.94175353402609
B 5.972729590693509 7.520022646306669 9.005230204731621
