12
Energy = -66.55904863 eV
B 5.520255077757987 8.232655142494238 7.1187015220514365
B 6.960649015741407 8.788436831650447 7.532779602433055
B 6.829992818610178 7.327012386159163 6.3123317195707775
B 5.182730575600053 6.742099970467635 6.839348015965652
B 8.392989088103679 7.820895777795819 6.733716459899866
B 9.303369553465307 6.659984427167193 7.7440790340709516
B 6.355383539501609 5.729072364369514 6.951308564195853
B 8.468221453298174 9.162110955117447 7.913522641264182
B 6.428890053554903 7.071214584096586 8.128687846208404
B 9.641891664161776 8.150222983428879 8.025346573063237
B 7.857861352937636 6.100603954928881 7.350181177183108
B 7.992344463644011 7.563577367543998 8.55449474213069
