12
Energy = -63.74756361 eV
B 5.5011445349500745 9.424702985301495 6.6350661635890855
B 10.768467356906664 8.598770470749347 9.286001965007161
B 9.708360816762767 9.4850788515218 8.62454860647032
B 8.336116884962678 9.21672681393712 8.004216571105102
B 9.598364094203724 6.050125924997439 9.122178109910532
B 5.830117513826954 7.705622257983268 7.040704146601311
B 4.550273422519478 8.260468722754984 6.3667801850558945
B 10.726011414388921 7.049826252803834 9.51261536471988
B 9.301355715603556 7.765548437516653 8.709909873884573
B 8.269525271940621 6.266915516953616 8.432494904307521
B 6.898327877551019 9.310391102007586 7.298226581395943
B 7.087615773129162 7.0080060620084765 7.741662204165756
