13
Energy = -70.0387784 eV
B 7.4105504877416175 7.3966461139252075 8.909014399576193
B 9.065453786602522 7.579656282375698 8.686733729835273
B 7.247506976774304 8.900040288077772 6.408763791764512
B 6.4318148916311895 8.389833517131496 7.721102044918008
B 5.754768123283599 7.216392243895801 8.683159786240758
B 6.665266627999204 6.239818484787477 7.696067695291949
B 5.2438185584002035 7.185254911820306 7.136965278686455
B 6.524310587212301 7.320991191313922 6.074723480630835
B 8.155616243446822 8.575430826878119 7.7189410454383
B 9.578082041009342 7.652685081426706 7.143788058364399
B 8.39074326132875 6.427748434122805 7.698451248707591
B 8.298597648527858 7.518096830639432 6.079253557973644
B 7.572137449943989 5.9365871032227595 6.381959879331544
