13
Energy = -69.57510158 eV
B 7.433531737322311 7.546015780383046 9.80417272983495
B 6.815575834786916 6.7513717114405765 11.005441587205683
B 8.047213397637146 7.320285944424354 11.687519687608832
B 8.192665732733039 7.623940312014289 6.775240732752999
B 7.654630861461298 8.05420322225415 8.210057122020936
B 7.603388754551623 9.41276983130801 6.773397971034868
B 7.937075808170947 8.69064353305692 5.376575361191041
B 9.800298858951935 8.152633239458634 6.340208467192578
B 8.747636015185783 8.357806527213922 10.795515423861177
B 8.96144589128909 7.548196898003648 5.147558485955873
B 8.016618921348012 9.912817482096084 8.198555079658659
B 8.683935393541304 9.072996301770734 9.356248991277257
B 9.317789592383743 8.744131092436893 7.740097619792196
