13
Energy = -72.02604739 eV
B 8.38099495535236 7.29982462871676 8.954653811834067
B 7.337979627826596 7.702156291802976 5.847158031479421
B 9.161622459337988 8.051071337395372 7.762790720562157
B 5.8590476751279565 7.674537940553527 6.452635426331978
B 6.202156821212226 6.602655576035736 7.587614279200013
B 8.345718253227936 8.952423820188793 6.7109853191711855
B 7.403105556337647 5.974527832699468 8.435802442937536
B 7.678376842465594 8.917017590982587 8.427279950202346
B 6.784239535190352 7.448793454996725 9.093364596328957
B 6.749678763304248 9.102299395977647 6.844298201615609
B 5.973685954756337 8.35302492749453 8.039394313028541
B 8.555451937279518 6.380180775771763 7.400801622154102
B 8.865768862777792 7.383856976486068 6.197801036409781
