13
Energy = -72.91453834 eV
B 8.832105908348508 6.433387056059584 7.811597885143648
B 7.898881590736492 6.958862709154548 6.561181203709545
B 9.759139993755706 6.950807609177353 10.45677999441282
B 9.653373872516326 6.031662846420959 9.150940926275698
B 6.899889436272718 7.5880366220908 5.4478357019003125
B 8.985014358310625 8.343616542849462 10.617477280655956
B 6.161975167652922 9.002336816788063 5.588926401269554
B 8.094176801629704 9.04051646230043 9.452250492659545
B 7.994540588428425 7.997250814829848 8.005597682544629
B 9.006022596154716 7.571113896218575 9.140274009085758
B 6.261252545473513 9.920641817153095 6.896926265460437
B 7.240818149587238 8.576274051202223 6.749868749249108
B 7.1747445254355835 9.574701240326192 8.194264012203373
