13
Energy = -70.40619198 eV
B 6.166149210676486 5.377599006560465 4.719054348150063
B 8.018833781042545 3.579138825051683 5.538636798032522
B 7.066769050404592 4.109066232327821 4.42299151514655
B 8.19372499968142 5.130236737887453 5.73902297731906
B 6.4225031663799825 7.195074138800606 7.114564788022516
B 4.521568406580879 7.926835856014304 5.586995709335881
B 7.3143457892556984 6.451346901638037 6.004210344277393
B 5.614576834824118 6.838386509142391 5.130264421305486
B 5.330106302288795 8.165525383115408 7.753703307691523
B 6.545934074275709 4.27967484380473 6.079655082261368
B 5.619392857491083 5.486595378615989 6.544084069600998
B 3.9884813757118436 8.327322337552632 6.998477550850876
B 4.681843284957204 6.760371254277349 6.918778811595955
