13
Energy = -70.81043957 eV
B 7.640149751103914 6.330354663006289 6.19996864846335
B 6.464200098639538 9.067834524540386 6.259211553188542
B 7.0110529018645495 7.712521701210389 5.690174437536436
B 7.957503879930536 8.84781646027056 6.7823204245600515
B 8.670104409156812 6.175697673244798 7.553404665491637
B 5.695413225407446 7.782793137477896 6.9967270630780884
B 8.952956247491342 7.834488052121806 7.551377230983055
B 8.713900228011358 7.113981483755174 9.029003107826904
B 6.5380085393046 8.978823759729238 7.897905315623649
B 7.274421031731309 5.2196935113769225 7.368984992864703
B 7.596320618735424 8.224356073115647 8.82610081327786
B 6.057866595827935 6.241371159990507 7.270776446329366
B 7.262262834344182 6.46172597177908 8.538234607411729
