13
Energy = -69.3881747 eV
B 8.484921621768617 5.622138633742165 7.356650386264586
B 8.265277932593257 5.289576926736599 9.019927086042328
B 9.381515388933376 6.302633195494438 8.692143171824988
B 7.171100144687368 6.2839964643595865 8.425436418734156
B 7.900757929179012 6.547505399961644 6.2695215948790075
B 6.684941582112144 7.870182982334589 8.290220506685051
B 7.051480761496555 9.276263691748397 8.946695998234595
B 6.604063824511677 9.216130272615697 7.161110380244569
B 7.6222533908304575 8.100778878710253 6.490546230782757
B 8.897839834214466 7.380253080320807 7.538651982484864
B 8.151509607308988 10.40098107599387 8.618767472184137
B 8.425327423910298 8.987354462371435 7.801722731423018
B 7.016818327140375 10.705643183818944 7.593373459653252
