14
Energy = -76.85054707 eV
B 9.008009814492123 9.667409831198572 11.11245151151972
B 9.897646907850008 11.41432171230877 9.189729961251532
B 10.66542106058625 9.872860271141551 11.949284686654432
B 11.621036118327565 11.422930700972614 9.292129778862492
B 12.11979834121801 9.89145365610522 9.706832418966812
B 10.66780144942934 9.980780237795921 8.70407560640407
B 11.935842962621466 9.237988480481112 11.196699255130465
B 10.570405630868095 11.70094361334348 11.932388302682812
B 11.82029197036034 10.942701379339022 11.08059445465466
B 10.57338632704633 9.079350066920119 10.259579948199208
B 10.81477637148426 12.30491061273605 10.432439337986017
B 9.21300612213125 9.816569312045312 9.5501908632743
B 9.31283222210159 11.377910064253252 10.717768693505992
B 9.238721707382028 10.748845055461087 12.334811180907899
