14
Energy = -77.28524596 eV
B 9.387403334492792 6.786445681111206 6.243149623004733
B 8.621030154345036 8.093045809573391 5.424274630208757
B 7.99342531608706 6.535809051843291 5.3337393414025955
B 8.223607063880669 6.087692357518185 7.155397881387209
B 8.525235055114948 7.9496958178904835 7.099628508619603
B 7.061617902372401 8.07707708906544 5.90361110022172
B 6.608808303800737 5.979021996105937 5.750584031741699
B 6.824238522473035 5.689852856254843 7.894644435570126
B 7.2842523865660205 7.803362771151399 8.020615305295694
B 5.893742967991743 7.250525738968117 8.434332268447603
B 5.375077168930069 5.842817968177493 6.685795841305698
B 5.641131317106583 7.716930052727743 6.621293778785823
B 5.263153512763162 5.696524555635626 8.354807549740892
B 4.499762366116707 6.998923164878787 7.5295978213385055
