14
Energy = -71.78446717 eV
B 8.638482 8.638482 10.617460857134539
B 8.638482 10.617460857134539 8.638482
B 6.659503142865464 8.638482 8.638482
B 8.638482 8.638482 6.659503142865464
B 10.617460857134539 8.638482 8.638482
B 8.638482 6.659503142865464 8.638482
B 7.664032775678617 7.664032775678617 9.61293122432138
B 9.61293122432138 9.61293122432138 7.664032775678617
B 9.61293122432138 7.664032775678617 7.664032775678617
B 9.61293122432138 9.61293122432138 9.61293122432138
B 7.664032775678617 9.61293122432138 9.61293122432138
B 7.664032775678617 9.61293122432138 7.664032775678617
B 7.664032775678617 7.664032775678617 7.664032775678617
B 9.61293122432138 7.664032775678617 9.61293122432138
