14
Energy = -75.3823265 eV
B 5.700872104119338 7.504494715529604 6.692048220037564
B 7.800636572377359 6.808975589060165 8.737499653294945
B 6.6925779187556 6.258368970058874 7.661729479384887
B 8.04921758361336 9.136837458580013 7.468030849187668
B 10.340454478850935 8.333170367299012 9.082442637327263
B 5.906686186317416 5.9214655050323515 6.3089440495848415
B 7.144163763340383 6.848037575913865 5.889701048933433
B 6.942874030272196 8.587355398992845 6.436886416484657
B 6.4846117884262044 8.018468290831223 8.12794769724429
B 8.406958887575865 7.3396312430219 6.79335618877202
B 9.030460865268878 9.268972613311817 8.82139644333929
B 7.523751547893372 8.58930205090936 9.213562547486875
B 9.607243560965022 8.01672933645826 7.703262882274663
B 8.942352069144725 7.6777616145449405 9.583616778025146
