14
Energy = -77.09840809 eV
B 3.8534100117814867 4.820749806445039 2.4436384667040536
B 4.954194083916774 3.7286162287608606 3.161174577173462
B 5.850050432826451 4.295164956288315 4.4436970141748215
B 3.446404518333346 5.570186595565523 3.9214207046994307
B 4.562016011029239 3.151362978855188 4.673995539576944
B 3.168651142099487 3.7926741392351 3.5647975334760567
B 5.138421645894702 5.552085968140563 3.215321475399429
B 4.665954291979341 5.744569709702656 5.042296796244997
B 2.828293105388629 2.9666843327290735 4.927753906911364
B 6.25084651833594 6.005347715692449 4.3152368887686094
B 6.18103651084586 5.355968318017544 5.754218624123396
B 3.377198561604939 4.604234813249754 5.273294425162485
B 5.011854145503349 4.255268322166342 6.116225427615185
B 3.7523282150263815 3.197745309717676 6.187587814535685
