14
Energy = -79.49619255 eV
B 8.67016309427102 5.24835858745115 5.5320062120893
B 7.592844211429635 5.794750951171523 4.523377003264474
B 7.008687897626262 5.062198703937226 6.066780648621758
B 6.274849335916259 6.501223406711381 4.9931020722022295
B 8.458444347906823 5.410691662889531 7.082237155209132
B 7.918223111096098 6.761755770618109 6.011444897946426
B 6.864429048760589 7.8864435868114 6.530120146361202
B 5.503291169814454 5.343152084672916 6.620221865130984
B 5.538065394453795 8.523610643832237 7.071716736091527
B 5.770577461500513 6.882072949317036 7.787761718038042
B 7.2033539940025815 6.117055372606341 7.698798469647935
B 5.150161804580492 7.1412518252517785 5.980951412266026
B 4.258058089187931 6.117517656582601 7.173435830911137
B 4.2541431181314175 7.675208876824256 7.3933379108973
