14
Energy = -76.61975853 eV
B 10.990961172971287 8.891103533055151 8.13480728491508
B 11.299317504260008 8.310188067762576 9.561273003676275
B 9.882129776667304 9.416641786919163 9.488464071722264
B 10.164542443336686 7.75384492147188 10.508541038011554
B 9.817151909958707 7.709241584506996 8.799322967304176
B 9.498172238063196 8.903750526557863 7.54150877030951
B 8.402848650343005 9.495280946238385 10.079442821747131
B 6.962036090850924 9.411215378418365 5.711745933014975
B 8.276121397927428 8.370328614828288 8.574073431168884
B 8.60887247316181 7.608055866519719 10.155994430902675
B 7.874477698147658 9.021841654894708 6.993009336690667
B 6.545369500230148 8.775180815381184 8.445603935818765
B 7.15461701238911 8.474197837777748 9.913901390578147
B 6.167475917192258 9.300555460291763 7.006920514579807
