15
Energy = -83.5063731 eV
B 7.600536897822136 6.665385076583592 6.543516331540142
B 5.247834614333366 6.730981979913123 6.659868617461541
B 7.726333118328401 4.884433161250043 6.137615418625403
B 9.315571716405204 7.027154568249703 6.627291047053709
B 6.51622496692873 8.046355273973266 6.547531929766002
B 6.25663379191251 5.499013867669282 6.258033161412572
B 9.093790498980715 5.681885065279065 5.864152207509147
B 7.2607424577130155 9.52479159142555 6.598543752743411
B 4.8336600670017935 8.266518045072207 7.343690420252179
B 5.759286327715265 9.5158865814514 6.912155585705115
B 8.617602820594847 5.675024213366812 7.582342935298497
B 8.300019125821118 8.311196360383313 6.6426986904479355
B 5.5513027875932215 5.726066941273569 8.03238597142721
B 4.566909053642819 6.954932816868862 8.175937174952926
B 7.1142554102380196 5.251078112271387 7.834940410835528
