15
Energy = -81.55369426 eV
B 8.045621107107024 10.137159988265058 4.975369951517419
B 8.983931728339341 9.048312825647136 4.4876331205431015
B 9.40755413748009 6.101288378360989 9.896322046410653
B 6.949427080117043 10.668299318066495 7.8860161295150295
B 9.132794837479388 6.482757582693397 11.473301394425826
B 8.428154170309979 7.509012566142897 10.429600234373657
B 9.939705809745437 5.223324546801241 11.219917467637956
B 8.237432952767609 8.36270000517299 8.922286511474182
B 7.680959765268549 9.195599734052864 7.608020802769313
B 7.15392523664287 9.799828123695532 9.195337755703111
B 8.677102207724614 7.883884785323542 7.400180113662366
B 9.059273183085905 6.8532062394483875 8.51957642804738
B 8.494554752774452 8.875155369872253 6.07578521747329
B 7.495586355219546 8.803230957539975 10.371703660701264
B 7.42440528712956 10.439824909298002 6.410573316181586
