15
Energy = -82.58149703 eV
B 8.384813109192109 9.84719840417726 7.624489635313541
B 8.73158750369614 8.530991376754 6.764347282582895
B 9.050612426465921 10.079712521197052 9.160390240969
B 7.561665471806164 7.019441167061605 7.034857482506686
B 10.005680618075184 7.3188499776319444 7.567838756292774
B 7.108675798919725 9.845095428949076 8.734569120302842
B 9.299138436349999 8.474300022319627 8.536711780695413
B 9.04621904394422 7.089578110520253 6.149583627550717
B 6.81540471542545 9.824983259448599 10.303197455030705
B 8.70117574730114 10.036295181207324 10.718742502128475
B 7.510063668976798 8.258511153607119 8.146404790237172
B 8.327609608208721 5.65609961800942 6.6238434985138275
B 9.830981615414009 5.843323224824052 6.940681939131046
B 7.610896534307202 9.249755003826936 11.533850313367537
B 8.067115340528352 8.623586235588787 9.755322432902085
