15
Energy = -81.95739209 eV
B 7.7197365733572605 9.45238153866268 5.695437443425691
B 8.599180700296806 8.383858475213943 6.499094817597887
B 8.905709067000956 7.902037866045208 8.02636330048649
B 9.13268235207885 10.042248464533824 6.617587686134487
B 10.077630981823502 9.10338104358161 7.442632876653847
B 7.5180706579756595 10.217218978550648 7.035627303529643
B 10.261633341442073 8.562497628702324 8.970128533211403
B 8.610083844684056 7.983953958924716 9.588159077936727
B 8.584216660358774 10.20672107788425 8.300586009382204
B 10.522826141462344 8.909120662079903 10.502510876967643
B 9.038860796578096 9.91597925186462 9.850442828412977
B 10.316034037765935 8.600513265616813 12.074697464117921
B 8.389157193035718 8.169109778876036 11.168550854367984
B 9.243909316128729 9.7522460934755 11.412153995319985
B 8.877872987560371 8.596336567537197 12.613631584004871
