15
Energy = -78.53548656 eV
B 9.913000745424752 6.790227200653104 6.4337843464240025
B 8.724900985819822 5.724541641975368 6.871098490347747
B 8.206979032073484 8.669035133572828 7.927274270364838
B 9.930082202033905 5.324871470872219 5.961252783900953
B 8.618381194414424 7.232327941646406 7.362961203733605
B 7.775537390918584 11.418957871726935 8.177035890024761
B 7.5577407124649705 10.086891369400565 7.4383133206980245
B 8.824595523131721 11.485541911381265 9.399057729287541
B 7.928409968298247 9.925929635741252 9.02334333808459
B 10.040257800803039 10.768707672185895 10.124606113792614
B 8.86905987743237 8.689228776270474 9.675245257560523
B 8.415598074427646 10.17087424364739 10.662093102586672
B 8.221991096946507 8.927960256531913 11.686736862187955
B 10.188158374049445 9.349953984033167 10.755805142486185
B 9.375794310890079 8.025438179489893 11.0918794376479
