15
Energy = -75.56924328 eV
B 7.223651383733544 9.559808272611624 9.193931191907568
B 8.002238727104237 11.001617395223066 9.761229180328876
B 13.024027291557031 10.490702795022122 11.741065342954144
B 6.448942817662117 11.02069544669109 9.262679279034552
B 11.726586281018507 11.277986766075554 11.39523052795212
B 9.478453878540476 8.19743385387651 8.621183015810157
B 10.790611260933098 5.346293716997486 8.39035352936966
B 10.38412675013141 11.974986257631327 11.000850167482488
B 10.738383985079425 6.176323766418424 7.090918720597363
B 10.042461737731092 6.656572867402343 8.757334391653965
B 10.066113181099155 7.568946995000141 7.252023323927233
B 9.61205215496076 10.635265275567509 10.321745073102642
B 8.894085585277354 9.402493631592263 9.502572125682091
B 5.692230996220758 9.777333708735956 8.818998339907614
B 8.975154714375813 12.122945621327204 10.429505450009206
