15
Energy = -82.61415731 eV
B 11.998471221625884 12.43500647946911 11.910500263349217
B 13.657670836409741 12.589082002455452 12.01558567217757
B 10.409418770602509 12.495661324069292 11.727366738361926
B 14.962024152975335 12.80841943112495 11.04085095611453
B 8.802218794840744 12.574481748430468 11.532308185251004
B 15.21982768378533 11.806690172787734 12.39649044075557
B 7.217098052240348 12.645871135797423 11.618145299719233
B 12.683075091400635 12.50428921359419 13.43688614785566
B 14.239444960356908 12.396503062336755 13.72016032749116
B 11.063465553044935 12.500653101967192 13.272188907547124
B 15.840706004412933 12.318743144227836 13.893707130165707
B 9.459210805573981 12.629442229503935 13.175561217113527
B 16.889298217873137 12.04565720422076 12.747724218956565
B 7.880919564085951 12.722830379641499 12.986967974128017
B 16.439712560557595 12.289231640159542 11.288118790799551
