15
Energy = -74.13683497 eV
B 10.887193121692196 9.757037392435421 9.485884842057942
B 9.483026586159394 10.396573050944694 9.60040696388005
B 12.399748265395994 9.364791356280495 9.626825547543916
B 8.385665219540437 11.352788338673346 10.127557434692688
B 13.93041916639067 9.075303207354093 9.855746954443003
B 7.842368740618218 12.479816222114938 11.031795120162478
B 15.414579211941602 8.864872692731227 10.140165014453457
B 8.00824684777942 13.535786845219825 12.152353940108128
B 14.999446076561377 9.921461398525551 11.159870001068285
B 8.892108568910402 14.23566192905736 13.219651875716234
B 14.500643973466946 11.016963454718116 12.175087449892855
B 10.255369475353147 14.381654125779333 13.939285484457884
B 13.894682369300472 12.114211856791165 13.11912001525587
B 11.72944886413624 13.976111153315255 14.151366022491796
B 13.003004195015016 13.152917658320735 13.84083401603721
