15
Energy = -74.00858593 eV
B 11.041806852307294 13.183774249943948 7.9886438902379
B 12.184597934762797 12.192473786009598 7.702301342334005
B 13.142363158325855 11.029067989398532 8.066375098271878
B 9.928987552193089 13.805857414038467 8.870474660184248
B 13.78722928816734 9.91731567237783 8.947440588023511
B 14.013853371840765 9.045195998395409 10.202071606968033
B 9.035336517799836 14.000218716722522 10.13338056131895
B 8.520569810748874 13.744258984790742 11.570108382429272
B 13.74524228321136 8.577695970011325 11.646392614417666
B 8.523386792661777 13.037736596920285 12.939655960863105
B 13.051919388371136 8.55704126296523 13.037802226013104
B 12.057468547776116 8.966710124791906 14.163635394952916
B 8.997349015054454 12.028554014983376 14.02558671841124
B 9.825515188324323 10.88792953961133 14.689951653363918
B 10.905607087532552 9.787402468116928 14.777412091287962
