15
Energy = -81.3213136 eV
B 7.737691390463461 7.207980168799909 5.380842437471207
B 6.050574960901114 7.505758686119564 5.869106427673241
B 6.7883715731678835 5.910170244385193 6.150484427362312
B 8.471131449176886 6.171878889007484 6.600396893344431
B 7.289899418458093 8.726844533376447 6.146559557514008
B 8.535845292481309 7.84582704330923 6.897560153743392
B 5.770072954691051 6.648169443724811 7.3827434385122555
B 6.403027999347489 8.222394917986259 7.509720452767016
B 7.784589714810705 9.212979295456183 7.578321094773796
B 7.337997181273519 6.207040197228422 7.86914672596345
B 8.969431079588919 6.6551470214799044 8.03216896264504
B 8.86955264162682 8.30970334399135 8.632075603541024
B 6.268819683609742 7.135411458303931 8.812843041818807
B 7.181733759768679 8.609133681272185 9.116932188053271
B 7.923041958540705 7.013342133465514 9.402879652723112
