15
Energy = -83.69707462 eV
B 6.099075054928056 7.352189092959875 5.913943918079378
B 6.7585846432363095 8.711039025196628 5.462823140303215
B 6.416303345199859 8.577803335565182 7.1095216730491835
B 7.402316809187512 4.839469021904654 7.025924609486431
B 8.076120669524402 7.6722404386770835 5.940016171214694
B 7.93247400634707 6.086291004622762 6.28577232295751
B 9.113736603742042 8.502888359477907 7.235250516785619
B 7.914317314773739 9.310889189654581 6.435398111985124
B 6.157915367831686 6.012017901884243 6.830733542516209
B 8.475421833577391 7.49226639442313 8.401340683371691
B 6.601541040489582 7.834077461186274 8.629175234596156
B 7.708255350021686 6.070565324000304 8.210302566439657
B 7.718023815448382 8.907797169964448 8.14478920518113
B 6.348812664851 4.975625450636245 8.240225745109324
B 5.9753541148190905 6.353093463824489 8.833035192902944
