16
Energy = -78.9071231 eV
B 10.601711 12.266629162570021 10.636985765778402
B 10.601711 8.936792837429975 10.636985765778402
B 10.601711 10.601711 11.361225449284895
B 9.486140235305925 9.592403721684141 12.076985928723866
B 9.486140235305925 11.611018278315857 12.076985928723866
B 11.717281764694071 9.592403721684141 12.076985928723866
B 11.717281764694071 11.611018278315857 12.076985928723866
B 9.592403721684141 11.717281764694071 9.126436071276121
B 11.611018278315857 9.486140235305925 9.126436071276121
B 10.601711 10.601711 9.842196550715107
B 9.592403721684141 9.486140235305925 9.126436071276121
B 8.936792837429975 10.601711 10.566436234221602
B 12.266629162570021 10.601711 10.566436234221602
B 11.611018278315857 11.717281764694071 9.126436071276121
B 10.601711 10.601711 13.012073746516124
B 10.601711 10.601711 8.191348253483874
