16
Energy = -88.75472213 eV
B 5.557300275175561 6.594027668036204 4.748278762830492
B 7.175367645212959 6.264418288021743 4.389633814929905
B 6.904118317176429 7.811693027998349 4.998670727232316
B 6.306661112913142 5.304345024439277 5.615791809578531
B 5.597180351772922 7.620472631370347 6.164161877930333
B 7.912730189374079 6.766018570287888 5.935110738627369
B 4.839068036732063 5.9700761961497415 6.114228751888008
B 7.976113350962923 5.167319984156861 5.35719226435148
B 7.620834581010653 5.241421106449413 6.9525474839858115
B 7.273390464593839 8.19575962558871 6.572741845743662
B 5.8160983525685515 5.472723345496758 7.400588350794872
B 4.792078894342079 6.855695488633786 7.5211580848514235
B 6.1302123128165205 8.076368126008163 7.7739583434759005
B 7.115678180628324 5.472149441557431 8.489042104602952
B 7.428817782429413 6.936895166699563 7.692276182493839
B 5.982271344969821 6.678537501785054 8.702540049362385
