16
Energy = -89.85993335 eV
B 8.287045056955598 7.944534241349976 7.552037783751899
B 7.541177935238328 6.450988338166561 8.11200678116928
B 10.930439565658832 9.35716271163961 7.751991745943836
B 4.8276266886670705 7.1276122907944455 7.44702874226624
B 6.618483055762535 7.805309401436466 7.236838831664996
B 5.7359032017290685 7.7832717424464395 8.8389613834925
B 9.201586226494538 6.478222988651409 7.938510740635561
B 9.390848281433714 9.690281520094068 7.793383527710568
B 5.969287464118207 6.188153224696539 7.922538359475132
B 6.251836554387867 9.379048020478075 8.160189919834368
B 5.01441830271294 8.684253966028459 7.464733072325551
B 10.77684798048436 6.57098702685234 7.9865449617950475
B 7.261325592026256 8.221065992934028 9.054385860668983
B 7.897976575231748 9.632703337473426 8.363123551972262
B 11.585887276723398 7.930550643068888 7.932479076885627
B 9.950388845012672 7.996932899213592 7.68632426304541
