16
Energy = -89.28508853 eV
B 9.439439920151235 8.048503069150279 7.857689609701116
B 7.7258966696917435 6.671394209203151 5.530093265519591
B 8.035477871359953 8.829262497740178 7.409146815886695
B 8.806907587697623 7.585831844127827 6.488786281679662
B 7.276311295619521 8.309080929892257 5.9982330765355085
B 7.514305734193069 5.1533907844390905 6.162410925389157
B 6.200643531918907 7.509736504661503 5.15321614898013
B 8.10751892301073 7.477728670904529 8.480471913718622
B 6.251648412828482 5.8974399415479475 5.130913074348004
B 6.996135054257445 5.062349643390154 7.641346208937169
B 5.767708036078923 5.008485264966555 6.371039805102556
B 6.578634221922959 8.186745528705323 7.9697826274755945
B 6.704582202361121 6.489542842426071 8.429561114092266
B 5.207213855080432 6.703147795452688 6.28025917748685
B 5.335461152940973 5.734601128644873 7.730443097484444
B 5.242345202504899 7.34056568607536 7.861638477979438
