16
Energy = -84.43423695 eV
B 9.111595449472619 11.237635433097134 6.541353608354793
B 8.663829978315217 10.010395477790848 7.415295367312028
B 10.168173243032738 11.09043196163749 5.450997316369872
B 8.257351456762898 8.74147778603851 8.381395351684633
B 8.85324206381708 11.070428545095707 11.617016482220043
B 9.958145727656358 9.752650338445546 6.267813003979846
B 8.773584615903678 11.429094793669204 13.12189145945065
B 8.700384843357524 9.899482344353919 12.807919994043592
B 9.806148334220152 7.7471866033879415 8.75813081010292
B 8.792288617889076 9.476095442148935 11.267841252286841
B 7.906431885444218 7.295541500085772 9.01858372402015
B 9.642088878792839 8.438909619689335 7.183728437885938
B 9.151218217552525 6.6824079157991365 9.975250567107466
B 8.850158260704099 8.344977905609952 10.067245107074234
B 8.758780957320019 7.06614083423868 7.421649871225797
B 9.03710505190386 6.026040745407779 8.576480294327217
