16
Energy = -90.12599786 eV
B 8.655874317601935 8.437602022482874 7.966163104848336
B 9.66099375736463 9.725313004020796 9.31861152947247
B 8.134099569353971 9.79357499274986 8.982861770948253
B 6.988882891072992 9.122787388583466 8.107943786359376
B 5.733297951012275 8.294890043216045 7.49176896080132
B 7.079367896474597 7.241586447227601 7.903578980767922
B 4.727449258559539 7.726748251630181 6.397830334701888
B 10.587776318032068 8.5093006781804 8.987624221504836
B 7.692707752379043 6.101945219702668 6.348790422652079
B 5.119778651240727 6.58440544858381 5.339998999663833
B 9.038038075051508 8.165685662963046 9.74973296070822
B 9.888499034527134 7.193732013843845 8.451631110123099
B 6.222397812864054 6.983934672581181 6.49616767425024
B 6.471086072634209 5.7614971041780585 5.404201231900543
B 8.141521508636622 7.013482631373408 9.13789541600819
B 8.819139958754459 6.753539835005342 7.334157444617718
