16
Energy = -90.01638887 eV
B 8.055818130124239 8.952078416231226 6.571934929244685
B 9.191846058974598 7.900045992670352 6.1405341169276575
B 6.637131624498671 9.513448491157 7.071375936000899
B 8.155693882977111 7.800971096067162 8.75907848609294
B 8.836980888311192 6.927250708709085 7.628308594567236
B 6.312542415182873 7.884884300642589 6.470424636529264
B 6.250505024233446 6.229016370735922 6.331239821442847
B 9.244759633621495 6.334903173517951 6.062315420468061
B 5.307030922085686 8.818624345653197 7.524499438989674
B 5.459678657294165 5.605994392881855 7.8284331002011065
B 7.664249336900526 7.028694385797313 5.9721951847829065
B 6.701479585750928 4.818109360898138 7.3620977408021995
B 6.695318926239155 8.305623491834886 8.41715007620897
B 8.062222690122015 5.378809439631436 6.67000981221474
B 5.172921866728072 7.203605372134893 7.745281842934177
B 7.0250741829162315 6.546987190491688 7.868032073526941
