16
Energy = -88.30007847 eV
B 11.073340877198994 8.027968256066659 6.23369241691674
B 9.7821925059599 7.236344836309743 5.897452703347865
B 11.128267691731557 9.24492381495649 7.1761872102855415
B 9.971922467058873 7.812936090912586 7.74856995604573
B 9.44299676847775 8.928825233295758 6.44381189011412
B 9.924791156809759 9.953689906656008 7.8560413717888204
B 8.422879952274975 7.474423600581684 6.602982380685073
B 8.560993805288433 7.656070013074749 8.508022461221488
B 8.448141015639303 9.43704715816742 7.839074284045756
B 7.139808276947896 7.141801275823356 9.293629449903746
B 7.150153529380364 8.92624623294573 8.761021761741876
B 7.026995209751035 7.2382419136356875 7.461909753467694
B 5.695335101704025 7.455780663983003 8.21452657320156
B 7.176044619807719 7.852876983754912 10.746663900665652
B 6.572547652072134 9.233527042036535 10.347077803921865
B 5.60754348188647 8.281705952717253 9.521931657801865
