16
Energy = -90.07962847 eV
B 5.721684259247207 8.323837311210214 7.857411649181189
B 6.270742903894939 5.734954320985955 5.1203193819508845
B 7.92825537976767 5.160429801030175 4.965818555470624
B 6.323668822530806 8.496468635964233 6.382010723601385
B 8.401233578738916 5.679880878637499 6.468732993360093
B 8.028586143247788 7.5533828947676245 6.6610016165002985
B 6.98891895697729 5.595537226488486 7.533737130366844
B 6.08965200604635 7.365963639638622 5.2288142966693485
B 8.356430441621447 6.490611518827928 7.854940732074273
B 6.921834777500602 6.963737855673533 8.592499440602271
B 5.521816089616182 5.371676133731024 6.684867658427766
B 5.340292442917375 6.3603820977824075 7.962906772116068
B 7.527350418288025 8.249025451002035 5.301280740392466
B 5.465915452945549 7.486006236413579 9.112652300225081
B 6.884726697653302 4.647547786732127 6.161933006224287
B 7.801507049909437 6.740719005383016 4.849557742844838
