16
Energy = -89.30371442 eV
B 7.5827667974612485 4.9997851709383 4.908910976548815
B 8.796262639697954 3.934669836635508 4.668214661527278
B 10.15186953436614 3.8900008026322412 5.497284516812572
B 9.073917432884077 5.075372691738165 5.837510099348717
B 10.465046011131262 4.892145106994352 6.708677406392064
B 8.309160718795118 8.462236768578279 8.696222274544844
B 8.32359859671056 7.2495863729479835 7.579021639870903
B 6.762420412180967 7.2401353775620665 6.5227708168282135
B 7.969408813684562 6.133916751126108 6.321964264630313
B 6.596598191526349 6.1493316609457 5.389385101086774
B 7.0013812175532175 8.345909433148506 7.685078591462781
B 7.0197850798520856 9.58185806817481 8.733781199859632
B 7.1123138015663905 10.767013599345121 9.778348135960051
B 8.431847498756985 9.641936529354375 9.780429470516069
B 8.30147162976195 10.927521903226532 10.737086879528702
B 9.463048034326187 6.063012922591454 7.155650988869429
