16
Energy = -86.2419703 eV
B 9.75647358469814 6.077082610603606 9.59423063691893
B 9.778222099577238 4.941526025310419 8.479262800766584
B 9.7230873933083 6.1756855997599125 7.5443149423639255
B 9.10614711884934 7.44018241839654 10.076592052782772
B 7.447799934544968 6.771600188306737 9.261608716635187
B 8.273925075524025 5.667530117531659 8.534919153309124
B 9.198274746391302 8.877304023614162 9.195274620858845
B 8.925319155952653 7.374825451951256 8.234079253656638
B 7.619263960163241 8.27057876424489 9.72216281775366
B 9.343850216782641 10.397921228705691 8.681238971198264
B 8.981928899318385 11.299115511604825 6.980151982554815
B 7.662953450649627 9.895325169070382 9.36127076029028
B 7.761075916627819 10.915622687223268 7.897905654793143
B 7.65905469490152 11.451734590772308 9.555713041481578
B 10.096217241519845 11.750594524033508 7.9813332816769735
B 8.774651274945333 12.21641156492567 8.740648827618132
