16
Energy = -72.02721966 eV
B 13.049296089096652 14.830411479097162 14.374765399111606
B 12.789393875877696 22.54027355629415 13.289222675772487
B 13.72766024297071 22.741808664945076 14.457564290211009
B 14.021761324469278 15.412958025167484 15.441192389337845
B 11.826629528917758 22.336050204178562 12.091512996333417
B 12.959470445465255 11.02329319866388 12.102223541209906
B 12.98152184134138 9.715239529831885 11.277825948282336
B 13.125125285635905 9.243034004601093 12.715188909700075
B 14.68886936480799 22.950854480514156 15.655901659656053
B 14.621951723159587 14.065467060537875 15.0348649074054
B 13.776360639516488 8.988576067443262 14.10551191919761
B 12.78078407840676 12.458981093790545 12.792303471199626
B 14.617858167852647 8.714501735994869 15.403292740727336
B 15.515626606073956 8.33653397459908 16.607274783987446
B 13.821504664825245 13.273826479722933 13.92646794656706
B 12.360063933722516 13.847924832090388 13.309334065575527
