16
Energy = -88.89551383 eV
B 11.759513187595903 8.805484064067784 9.625643768458408
B 10.274852547534143 12.763969020642575 9.855826713026094
B 10.469214139231589 8.962549487570659 12.075681850571051
B 10.415183040359485 9.588592842525017 10.469323386683671
B 10.828194981712597 7.9036928912185225 10.803976576529921
B 11.151480778778168 10.566311418753738 11.708650996767698
B 9.919246079511856 11.614550555531604 11.10961265511938
B 9.392740954835213 10.168363398514645 11.814844141553145
B 11.554175898554343 11.856960675383888 10.171330677960412
B 12.065587452105182 10.343230103298875 10.133720309515622
B 8.759904510397169 12.31860855146812 9.952527956151696
B 9.858357105098175 11.167810393710132 9.097667712473605
B 8.346128011894152 10.790065554114936 10.250226860477236
B 10.06020211049239 8.260800787469135 9.399036144040869
B 10.64994990499867 9.755446515398031 8.695728346121282
B 9.0137304011188 9.577672732557046 9.36627120370277
