17
Energy = -94.49755699 eV
B 7.086333600665706 6.962722323159942 4.196454646113392
B 6.628464259546289 5.8592555241682085 5.168180861446592
B 7.2206068735111115 7.28019663343242 5.8415620778458255
B 7.411193106698949 7.2938965646860865 7.5985058961581995
B 6.724787677501845 5.814083351858111 6.736579492583225
B 8.01682942407249 8.580379185257572 6.522871507615695
B 8.77577339978495 9.886176466314758 7.0568049637643915
B 6.414731238664454 7.15925681505095 9.1219856823544
B 6.912391263888718 5.780315404466399 8.341292821443876
B 6.345260097944868 8.702935123786975 8.759842272977425
B 9.381804698639602 10.039446394040429 8.468704086850426
B 8.966516182960554 8.335728226770303 8.036814477935867
B 7.542720220868188 9.59785281895088 8.276772202270342
B 9.526899712066534 8.909470286533017 9.59908302814167
B 8.08209924506159 6.389559597005792 9.246584009136885
B 7.816286370059383 8.209239524642571 9.528650168717057
B 9.305818545671126 7.368614345293344 9.647924080402243
