17
Energy = -94.61516277 eV
B 8.198855346504446 7.335530056665275 6.538887177363552
B 8.59026870156439 8.054716159801083 7.962434275630098
B 9.85152199397958 7.992320348711306 9.145180509471063
B 8.102070925442936 7.355162726648164 11.256994016351925
B 6.535985947260225 7.66812803695084 5.926705013338859
B 5.969379847050336 8.369831937507568 7.474025983670346
B 6.820441322693871 7.514782293901779 10.404310941916906
B 9.578223371561483 7.844213559296456 10.9080980287088
B 10.844404668477862 8.649782869916079 10.343113836847209
B 11.114691180507753 9.0845578465381 8.865844149112323
B 9.945736256049306 8.983676337686344 7.820904541464264
B 7.852344284063293 6.887770505013399 5.080362600965645
B 6.56607391250041 7.225857528803247 4.25979823961001
B 5.132097892807916 8.668333181328803 6.188658738954729
B 6.713070250533648 8.036892553637932 8.881732542370344
B 8.249796864436373 7.657383350648034 9.603982667532815
B 5.344920814024295 8.080118034105908 4.7481989588640605
