17
Energy = -91.70473231 eV
B 12.60396778473898 8.559202626551803 10.00154370639643
B 11.056312145510004 8.284861430737854 9.806738675911108
B 11.612531614187047 9.927084526167235 10.00190214954159
B 8.309117783793328 7.775329274518499 10.662798184815813
B 13.218386738910331 9.935102637818316 10.180153020443699
B 8.651910883257383 9.608639748231074 10.740979889966324
B 7.268488689892368 8.868739202268948 10.981538215181759
B 9.575945630768524 7.648308768653118 9.626129678514767
B 9.990114141984174 9.913958577179953 9.824727495198374
B 8.656589766078834 7.946957206206794 8.234926384187881
B 7.332171158287251 8.953770033696355 9.339578070673424
B 8.653524759021208 9.114686835304395 6.9636542337388265
B 8.980011146963259 9.929018050783771 8.470380765579067
B 7.433320717369901 10.118962109784263 7.955906361668685
B 7.137212522235588 8.250655321402274 7.715760024195825
B 7.366922752679333 9.42615404174572 6.074419316551217
B 6.1934629771512215 9.45365039318105 7.095206120742431
