17
Energy = -95.71820042 eV
B 7.868255031992721 5.498302011502107 7.146635772605435
B 7.674571437425991 5.497106604230866 8.79998753974336
B 7.7317780388928465 5.75767511329908 10.372655271161511
B 7.430649371052261 7.0972123657628625 11.0922606958157
B 8.415207652562733 5.8049418397607475 5.683923921932192
B 8.136277994533897 7.156889915958956 4.908598354710304
B 8.510570096864686 8.666394267833002 5.580813730175643
B 8.989832941595557 9.855196188273913 8.360741505871992
B 8.797908755101153 9.711650714066336 6.784481907983648
B 7.351924156989459 8.510377964601533 10.430743052502699
B 7.08724346882617 7.019571906023766 9.453663425902496
B 6.964319432006718 6.701830923269908 7.875865054232185
B 7.1961962606495895 6.839350963805165 6.289925705163218
B 6.9306704292099655 8.208046394782333 5.289500664100455
B 7.151809382691128 9.466136463776687 6.276172857474924
B 7.43276054880905 10.042229341663532 7.7396309127783995
B 7.759392588566961 9.598715238704001 9.34283560473254
