17
Energy = -90.49982841 eV
B 12.844726398346655 7.944632225950081 8.832025638347863
B 11.655536066078788 7.28274934257839 9.645655666900067
B 10.587884401764251 8.932261513038315 9.61028719538845
B 11.633916424471646 8.803379667056575 8.369943163297846
B 10.461855824607188 7.610378474843887 8.280398312463399
B 10.101147087651128 7.118649759679828 9.889092087478563
B 8.49708813971231 7.2725076288898665 10.407855104885885
B 9.107350924680127 9.451779486201126 10.387987708557358
B 7.169988480873945 11.25485036755581 8.22840869887677
B 8.90448177728519 7.427453524767455 8.702429096929636
B 8.237464508419661 8.490591073764142 11.350131050488562
B 7.721484842422746 8.428529147893192 9.537884707646542
B 8.086843603665415 10.026140068034895 9.075032840363374
B 8.08300012583191 10.205827155620039 7.39435161884249
B 6.739712891524723 10.880363807285468 6.76744076257848
B 7.872692019057784 8.64333451025441 7.891652964807093
B 6.884886099373253 9.308744355331356 6.684806717328853
