18
Energy = -99.26727908 eV
B 7.678320591948762 10.958659120703732 11.793061636967808
B 9.748091273974296 7.283113358811324 10.38121389114214
B 8.376671241274535 9.903057326804154 10.887402525710852
B 7.171095825680374 12.22031143711234 11.117889849584184
B 8.560610589568784 10.092644205035448 9.194999165293433
B 9.423175336836533 8.826749772195228 10.049520671190162
B 9.722633419139225 7.683837534015952 8.757419276280782
B 9.793143737054375 9.362144531817558 8.337196444063299
B 9.232230365131944 6.231335191896585 9.39001452978156
B 7.844354544800042 11.329172850663552 10.062503001390574
B 9.657817100047417 8.362505371751183 7.110057935878676
B 9.231003340121955 7.340516029351899 5.915310985708644
B 8.174473984278197 8.94038362869237 7.949892451333614
B 8.648118641504908 6.490534403490522 7.88998875529381
B 7.286032289074101 7.797146991023348 7.1655235417668734
B 8.106818471864207 6.833863562804842 4.9152721569608335
B 7.905343128643514 6.304951091569741 6.499570641651537
B 6.86424314531627 7.348005264814445 5.672015121203755
