18
Energy = -97.69472959 eV
B 9.227019254665715 8.5108547107748 11.839602650416198
B 9.452747078780279 7.922159997856739 10.382592488341809
B 8.029287737084744 9.574125033197431 11.958237672118873
B 9.69809361671549 7.544415112054953 8.797138184681852
B 7.825338776000625 8.340788179749094 10.810700482174235
B 7.856228378547022 10.929663685138742 11.113611138623815
B 10.11607255482785 7.2952979425718665 7.291964253509535
B 9.195166916584318 9.778242461679612 10.66360753602719
B 8.199561648318168 7.401979734484551 7.769525218780992
B 8.761286202774397 12.520574012182728 9.036905797329368
B 8.015296328991324 7.774796662257222 9.348772683222178
B 8.918445497324363 6.120612596865991 6.80509979352409
B 7.764202142088443 12.193165368511426 10.141593507932221
B 9.057743537370634 11.131807047237592 9.793263982930439
B 9.788198467683623 7.400897039621246 5.744037119265788
B 7.905760498164068 7.5518692545401835 6.2031752275692105
B 8.541359889138974 7.441831848205856 4.72454107156963
B 8.539980029338526 5.983440624864446 5.277605642322624
