18
Energy = -99.99747017 eV
B 11.504905039976622 8.133266160274538 8.285015166219996
B 10.036626821149417 9.02221363723991 7.140977336967366
B 11.262866964116098 9.623181639524956 8.020918559516241
B 8.944297420739503 8.152775318141659 9.610149732743675
B 8.933905887595525 7.984579997927299 6.625321260964498
B 9.998050195310206 9.204941806458596 8.988637715723902
B 10.162494525752075 7.27651938821893 8.428357122988148
B 8.423209612533116 9.153649762270112 8.119649636962086
B 8.629835450878605 6.78217774844068 8.251443970080935
B 7.433523641872171 7.851963399131254 9.240705305637164
B 7.423890541418844 7.572048729645678 6.8548728183613
B 5.950977390172117 6.562282152523141 7.119597409179004
B 7.13926565605408 6.243998088995338 8.14783374058298
B 6.858576238834805 9.17844268202073 7.843095681000778
B 5.884074005803086 7.531448877970663 8.893530029963504
B 4.576255363973162 7.3271175743434025 6.648549745038355
B 5.747604507590689 8.409619387065318 6.978782605847307
B 4.465719939799497 7.365852853377814 8.178641365792359
