18
Energy = -99.04792454 eV
B 10.02670493814817 12.781198385741986 7.981119109754732
B 9.694370599662522 12.10754718230898 9.529883801290962
B 10.995343371782068 11.728466280042486 8.514751423348521
B 8.588121865491578 12.118925089956802 8.13350464576734
B 7.500937577306709 10.963633797116936 8.448525089843104
B 8.325574423081918 11.434325092961677 9.943302093385524
B 8.497385779837225 9.632995264573866 9.175048128331026
B 10.258669700699146 10.42398116181936 9.11484067078809
B 7.1267963885182155 8.85161874838087 10.285267241903124
B 7.034516521913547 10.389543290046053 9.869526815189284
B 12.31877004602238 6.831929655906124 8.495054601647185
B 9.89508008502287 8.839308132581504 8.92257701247278
B 11.578987506076416 6.133395996039645 9.613700387821691
B 11.033377023501242 7.654895837551981 8.831722729613894
B 8.587310970035244 8.011194359729597 9.700518376750834
B 7.350067011367302 7.311951106610219 10.550791718459205
B 10.096556998399377 6.0776073599751355 10.036099915357815
B 8.566737277242446 6.427376959406883 10.320893473485246
