18
Energy = -101.14404395 eV
B 11.9367823089329 9.712988242650303 10.576229444160642
B 9.754749076585284 11.211000104525004 12.225552268544558
B 10.563588444776165 9.70890634630229 11.924673671727469
B 10.353112916276196 9.662630418381278 10.148722503211907
B 10.054571132682359 12.417915798977797 10.37541949351676
B 10.753719286295247 12.577472712178057 12.296636206846788
B 9.255737274805591 12.80383068690538 11.83312828066523
B 8.611079525318516 11.67482610769267 10.894642082531128
B 12.147313229424133 9.722743985701209 12.352265564819835
B 13.252568466830954 10.89665223007457 12.815260238121642
B 13.324928843856647 10.082889741276905 11.284364568682923
B 11.669127061853166 12.56480309537927 10.131634583011254
B 12.370660587644679 12.469990169113602 12.047536318756679
B 9.16760880322744 10.024334079370425 11.21103390157468
B 9.21757814248629 10.7937561703318 9.655860935139398
B 12.7039908668311 11.222888091981192 10.236024695467199
B 13.838579345430963 11.753273187430246 11.550771207158373
B 13.161632586742359 12.836426653819167 10.57757193606353
