18
Energy = -99.3273917 eV
B 9.786680207309471 3.5764580496121057 9.420107917883046
B 10.881024158538978 4.462063585617497 8.861862278473541
B 8.729267551495681 6.245679548709791 8.094870787509628
B 9.132743181428337 4.84113506704261 8.829684090711112
B 8.897460070615892 8.085402497803676 8.68414305458709
B 10.506802915789276 5.813266163095492 8.169591250884125
B 10.025913654462668 7.264380692329489 7.555034511638552
B 7.305214439981017 10.5101069114931 9.995838501257406
B 7.675565308701273 8.843109672289165 7.492642152412687
B 8.264107782687512 7.43574312592564 7.109064383213653
B 8.326526765896052 9.350361444509625 9.490490516675159
B 9.573043153959043 8.709244837345697 7.08256689784051
B 8.7884474448261 11.103652539538444 9.054653694612055
B 7.588132778710889 11.989119091239761 10.49139437091527
B 9.299529435212424 9.93633774679686 8.053427306158763
B 7.060864160355662 10.195958947077663 8.176370960802064
B 8.201037198338621 12.66807699886199 9.234432806907591
B 7.094837956004629 11.72994500537425 8.544223472295775
