18
Energy = -101.05061474 eV
B 10.056973119942507 8.307949080394527 9.88836711958104
B 8.777676207421393 7.0674151770780025 9.925803189830038
B 9.752934781527406 8.480677038328775 8.340899030462353
B 9.453582197220012 8.593670084886023 6.768033844545941
B 9.089265172402078 8.403856581662675 11.093275042335298
B 7.05174103213481 7.492782623992874 9.489040687091057
B 8.77733391142551 9.992904650041174 6.254984609248976
B 8.341474282169338 8.884397244783305 9.477278400180941
B 8.471482660649407 7.25579922457184 6.722601148625536
B 7.771893394143696 11.175440279875742 6.300144452487319
B 7.580543162486981 8.055389429809686 10.854702809902578
B 8.29703914787189 6.116907761810756 8.707846904530113
B 7.788104235396828 5.763711119099091 7.2733471017623845
B 8.05024950168292 9.19019781784954 7.849105649164383
B 6.986452527379054 9.900702626757534 6.6027510485053975
B 6.7710149227468115 6.964563082850271 8.000318257736723
B 6.829582018258411 8.26024222734172 6.770435872634519
B 6.897713648632883 6.725662454776861 6.3603747578823775
