18
Energy = -98.74778232 eV
B 10.984719141501387 8.393528192758238 9.881687271901226
B 10.766274787796561 8.031187568668607 8.396423990802658
B 9.448864527411835 7.242312763398982 7.7620032812645725
B 9.690397010105098 8.474790577760052 10.773824226427896
B 9.649592202530393 9.33156302431878 9.262208235179862
B 9.407092138995207 7.402063652794061 9.420882305237056
B 8.23847270749946 8.551451380000882 10.095737885734954
B 8.332387107197428 8.852879776458845 8.38506314253186
B 6.729175530295935 8.877942013971019 9.491530613448809
B 5.302371516669455 9.615088660062282 10.090753761144509
B 5.36049482881565 9.174095458569768 8.630878708062713
B 8.978592218312356 6.722910415383157 6.279991825185927
B 6.53184916605711 8.526754858499942 7.767082526859054
B 8.026159684643906 8.19863530475083 6.909411687981192
B 8.10343912203612 6.026395056840131 5.100205490935743
B 6.628835626324396 6.551754283804116 5.229733339228727
B 6.455119806563531 7.746836098213036 6.307163443793932
B 7.8734857318022025 7.648728556196685 5.388406876901839
