19
Energy = -108.06086194 eV
B 8.6065744442037 8.364984214616044 5.86608969588046
B 7.603935084767571 7.245936663438111 5.2655733453702025
B 7.927083828079703 9.545091833518125 6.841286073805892
B 7.511352024819334 6.492479138806617 6.933600602204048
B 6.827364930875512 8.398446844766916 6.39447159702216
B 6.194819922847093 6.880168274102722 5.830419846365226
B 8.852901151070784 6.597381614098388 7.839280298601325
B 6.634214382989515 8.53449267289896 8.13897451169116
B 6.999278304449852 6.739138875601196 8.585219619433772
B 9.373626861628706 8.374536951412548 7.367590958737454
B 5.921743597127291 7.054772395004663 7.407563419679667
B 7.663377657158754 7.255307255323021 9.93581216202988
B 10.032922146166685 7.29637342484304 8.62480236907764
B 7.319835854015011 9.079652652139616 9.51587372877178
B 8.556457798561832 9.795646961441637 8.302127369782541
B 9.992130397264145 8.962062038825744 8.77253510686786
B 8.102056568730235 8.4254079867984 10.87805933572901
B 9.407713837341669 7.868496697677859 10.042665650467981
B 8.894221572785678 9.511233869568876 9.879664673364719
