19
Energy = -108.04026631 eV
B 8.475954111992685 8.948736317176493 5.902379607155944
B 7.283740001571938 7.750298461892277 5.719792141030491
B 9.53541728407754 6.039499740124397 6.599772057074341
B 9.092789104927684 7.5154661197034605 6.148749378843078
B 5.549217599574278 9.614751668998082 7.147330922077684
B 5.73613164339161 8.017064238858682 6.438650147039145
B 7.054276654854386 9.387430636172597 6.568119485744296
B 7.870540406159257 6.091930881673872 6.370808751346433
B 9.132203733900356 5.049093875794659 7.729886267640217
B 8.274245681884363 8.540090791726803 7.566251524429763
B 8.53634925216512 6.7463481778909715 7.9925952252960135
B 6.712760287407208 8.892033207643404 8.240520004587529
B 6.843254904176269 5.877905567302381 7.87765524905924
B 7.791087046218574 8.004129009200465 9.06735432364895
B 6.305990056973357 6.484910762750361 6.287719330044898
B 4.964334008337886 8.3961115142746 7.954550022759581
B 5.494166801185286 6.903348017181164 7.76052235122456
B 8.015510883538331 5.120925935509151 8.899756461652013
B 7.790932240585285 6.478977526145193 9.61807356606116
