19
Energy = -108.61505489 eV
B 7.042907356416032 9.082377328317786 5.419208419119952
B 9.697088735111748 8.37844289105564 6.121208816661708
B 6.742108187160357 9.769985318209788 6.804522114904494
B 8.318378658858652 8.189090004632586 5.152534073521905
B 9.046061200067923 6.86476833493335 5.813120245136311
B 9.024986185744206 5.9163207159781965 7.142625378791963
B 8.074853260222014 5.577583584063218 8.419314258751982
B 8.417437042418854 9.407366635152298 6.371053361441365
B 10.108840871062343 7.152487556100657 7.065733478965308
B 8.004229962253426 9.45572552327195 7.992820774378878
B 6.373266609348365 9.806477424013565 8.393847041472979
B 9.256702511527692 6.969763959255628 8.48913710002307
B 6.720151755545229 5.722127954500299 9.246905266989833
B 7.5515762388402905 9.518150337891559 9.548041154431244
B 8.729088247179295 8.314238461435608 9.296691690932377
B 7.9540878942478646 6.820521714317711 9.599843812885174
B 6.07642574946921 8.676074765752029 9.569003779846163
B 6.246219430480198 7.047025162747454 9.965708586152743
B 7.45080338411265 8.166685608436746 10.42389392565789
