19
Energy = -104.84446836 eV
B 7.5173902869460205 10.66646400839028 6.080452436092429
B 6.648502310387223 10.241744793234899 7.2686511799928955
B 8.311700381509763 9.493741124209746 7.153703690122361
B 8.519172978959901 11.286273828298581 7.199040563186874
B 7.452887664851688 10.242830505784319 8.650080187168069
B 8.921262555806464 11.29883021594502 8.8085287778792
B 8.78109741139986 9.307411192555051 8.943429455981443
B 9.766483130082344 10.059470393482774 7.642773547089536
B 10.266458423726299 6.999070703123519 9.600775511207434
B 10.403949819061848 10.126103069519232 9.099033367119025
B 10.426783642187479 5.462481559026813 9.32338857294319
B 10.0109181432449 11.600474076551727 10.067779025686267
B 10.35761931160391 11.595781102946994 11.588147660141757
B 10.246176023939158 7.294969863290949 11.293445971162118
B 10.321648018692166 5.7921064547991366 10.805689580073139
B 10.58283083464022 10.105749828413556 10.753247970749836
B 10.194844817324027 8.809754227027492 11.860346866692042
B 10.326092568258595 10.279995571305404 12.412474022011782
B 9.87809370222657 8.589526062483069 10.079931160065188
