19
Energy = -103.46809098 eV
B 9.34235964355081 7.811854253144165 5.8565913751268495
B 9.573756792515471 6.4680304618376185 8.616630819375034
B 9.778875126344925 7.421539447646917 7.381394753957575
B 8.908258393229984 6.875559756509228 9.96093539012195
B 9.826601811045448 8.273154894749618 9.022172154250422
B 8.721739496962947 8.001408331080611 4.452661645023657
B 7.952572843225265 7.737385973859769 6.990468715238969
B 9.352503858075483 7.992936381201589 10.97062694090274
B 7.6092662967032485 7.880921421134264 5.464088443506178
B 8.316297398977717 9.399126822233846 8.901666075366581
B 8.147572771031443 7.775513229393699 8.651051367544147
B 10.106008833150183 9.680908120954813 9.899020081822732
B 9.634860149953896 9.38011992870579 11.654582027847603
B 10.030206983553468 11.48411937347644 9.822195913413932
B 9.046411198229745 10.783654894118978 8.777485196767719
B 8.42020919283386 10.351245128029802 10.516276916170531
B 10.255707568906283 10.807249101607377 11.476626615373677
B 10.087750989220481 12.403178142453342 11.208726103768454
B 8.638450839983706 11.871721228338048 11.06485498362336
