19
Energy = -106.52077281 eV
B 8.874649658473663 7.824245769916238 5.766972248128897
B 7.381485577499569 8.396494152780981 8.528878666137214
B 10.482795171149466 7.9914562960656585 5.997836123954917
B 9.544319027423418 7.184835553487726 7.124857351369012
B 11.570284164965878 9.595476324897321 7.927825985719518
B 8.595330794612673 9.581290681130962 8.691364617107384
B 7.319732933405699 9.39939745892179 9.845150816612987
B 7.96932859139677 7.8124118754511365 7.117639627749422
B 10.277480726463843 9.571482973724017 8.896631473360282
B 9.165919225946434 7.845028699808941 8.60264215969569
B 11.710281626180082 8.875444045400982 6.57096192315415
B 8.351679678343404 7.935525486037839 10.002033232383825
B 10.721752877418536 8.20473055002862 7.750111475378399
B 9.248338279064084 10.458476981347072 9.91327147602775
B 8.833375338122172 11.353322852770404 11.20158787058238
B 8.069514351125964 8.613181316914584 11.453468590578103
B 7.388186205617921 10.26241754523661 11.226033580021218
B 7.995082185474282 9.606700250661508 12.695169562011024
B 8.048316839247363 11.144825949694807 12.515173083957364
