19
Energy = -106.62063234 eV
B 9.061008495242001 8.657376391191052 10.669624637863176
B 8.5119487433689 7.3944248509507124 9.91067160493635
B 10.207424590951232 8.055460844445175 9.478367005548611
B 10.315309173406108 9.616842416244562 10.536643409917048
B 8.372039165065258 8.671449385987591 8.798095056184096
B 11.553000722759489 9.366648862134243 9.65930032132096
B 7.4652002863954765 7.128234755262439 8.710192502397513
B 10.21920350878189 8.002618682328889 7.627950237207373
B 8.754261594297722 7.782332044691936 6.977630594448114
B 10.139983842654482 9.748553926271699 8.64589040310355
B 11.494387465720624 8.481085169592454 8.364207529681897
B 8.912617344047922 9.783806741206842 7.598430137063045
B 6.003503504829534 8.79056575456743 6.690969166479722
B 6.036484240452728 6.751182642756577 8.023889755076626
B 7.539265187478419 9.143491954774065 7.214668910625753
B 4.520766380560967 8.235042403593622 6.611804884629727
B 4.515654190920545 6.996023863917286 7.554491518384908
B 7.288594118444142 7.2151444348883516 6.74112443708957
B 5.7336566933674975 7.091224331834579 6.367632959787763
