19
Energy = -104.60082705 eV
B 4.692116058880715 7.525087941178878 10.181953429303931
B 5.413307343059022 7.910226763121189 8.862124947377515
B 6.333770752659354 6.890409503453007 10.096222943118628
B 5.65396129180701 8.163510276353012 11.221399185280614
B 6.938232677259547 8.269659809868458 8.97298835010729
B 7.889355568091372 6.941225012074583 9.961205991788836
B 7.185675519303286 8.397123507082043 10.904791061743603
B 8.329806722697864 8.695842989896905 9.780331590849064
B 9.454292290145215 7.285463353252652 9.549178355937492
B 10.939278944047569 7.564397185546073 9.102306055519698
B 10.078852057547154 10.386161665759182 8.379707259617236
B 10.355331614250366 9.570238346353795 6.4520426365971035
B 9.508622287168407 11.190835373630032 7.119220288287778
B 9.92173882393457 8.982732089435846 9.264375673465045
B 10.2819497656411 11.044595267090731 5.7664098068413585
B 11.955614128656395 8.734641043041393 8.987644766856327
B 10.717051811357951 8.637256713589762 7.6884408142127185
B 11.263123759312236 11.0333826702883 7.185136373576929
B 11.985146255953607 10.122908574348989 8.215161868140536
