19
Energy = -104.26261312 eV
B 10.401499048192008 9.284350284804962 10.26333969696346
B 9.990558736960244 7.781461290327664 11.645692846832642
B 9.960148674679209 9.315488492444645 11.77598142724083
B 9.869866997045957 8.682558138583541 8.87249751318221
B 9.680237137419963 7.447478927575013 10.141945337022841
B 8.649707478675165 8.822712268378362 10.698062694429998
B 8.069902160618659 9.515333056210268 9.361741356055083
B 8.257367903226475 7.747211512500867 9.288430152185855
B 7.688372852077588 9.046350811214412 4.992692977728067
B 8.213902184234959 8.032629725094727 6.118239684612065
B 7.176623228792232 10.498980410438287 5.31337328482801
B 7.472870786352328 5.220551433950934 7.339907317822271
B 7.711604873027489 10.425702524603999 8.064381921874666
B 7.539824187929116 6.346730412414211 8.760780597969067
B 7.93175833113988 6.578848921281064 6.777796432138769
B 8.62285480528858 8.815155174725552 7.799637015326278
B 6.912310479386532 4.9312251071210635 8.71182790154861
B 7.950467053661111 9.648586195017943 6.535698446938908
B 7.202574708176509 11.156835004326565 6.740942958162926
