19
Energy = -108.55524636 eV
B 7.759333598393606 7.53099747487019 5.126316134849775
B 8.832946995053767 7.026992350678745 6.284007826587139
B 7.442892329493538 8.008947383558025 6.916913950066423
B 8.417634874659536 5.752382744872232 7.3178540454311705
B 6.61230270986177 6.426959486146555 4.6627635263261995
B 7.752651999045309 5.687489960894754 5.781320999407693
B 8.602959135334975 7.311536888312364 7.894562299316624
B 6.293930369693179 8.243232057814774 5.770212571183788
B 7.179608824706422 4.729236740824456 7.122311234436163
B 4.855359849258145 7.498318316692198 5.699217670516308
B 7.130458975399549 6.958308227892562 8.395328322735686
B 5.871059998869555 7.479637541366358 7.228876431906613
B 5.107521737111091 5.828590271444436 4.807375234347332
B 6.287225557416733 4.987036878965702 5.7055289030407925
B 5.540911803523515 4.782607682346963 7.454469823867132
B 5.630701324435467 6.311920667424242 8.409885048423488
B 3.783649947310388 6.318812601521627 5.729527756522476
B 4.5449005361619355 6.408208182330543 7.214207299920366
B 4.550294569496781 4.928712614245869 6.128860066249163
