20
Energy = -113.89938808 eV
B 6.919653911748621 7.772512036106794 6.074099739386177
B 9.922159399354252 6.719026599468103 6.289124851055062
B 8.476900267799987 7.424030441205845 5.960394070874939
B 8.540469197115522 9.25219776256442 6.789635651436355
B 5.893785293587828 7.955402601021303 7.275540297176076
B 7.395296976179718 6.8910672328501725 7.371966060757216
B 9.900311347539622 8.385659335383089 6.427321276495512
B 9.105195253557216 6.209064275086336 7.619266642687099
B 9.959698932656368 9.007813780219118 7.951426568783955
B 7.103918600748281 9.498383413848595 7.511491587323675
B 10.390134641050151 7.435267162357461 7.725539366838209
B 8.59078209352507 9.283391622241714 8.670193219824256
B 6.541853347983266 6.697055737498536 8.995967507904238
B 5.849101714513079 9.191401853253833 8.556525956365286
B 9.383715472350941 7.613478687625502 9.024646851852056
B 5.222769440817999 7.652253174681552 8.747585726979976
B 7.876725431759112 5.925406771057725 8.604769027915278
B 7.21805996021622 9.555975338157886 9.387648338319051
B 7.9492279155751975 7.857903854208277 9.747713097487413
B 6.335878624784239 8.248346144026126 9.84478198340085
