20
Energy = -114.08173685 eV
B 8.283936956116722 8.808876034606495 6.757054990519556
B 8.122071527227975 8.432249861685134 5.065472103750044
B 6.388887242068468 5.999957814470251 5.221283636024086
B 7.938925412330156 6.760244241485736 5.119375124200616
B 7.55549594899708 6.752544797525838 8.741354272496935
B 6.375408615911154 4.312278270579979 7.554509788462591
B 6.89906471494319 9.16442740506831 5.851330271841227
B 6.619906282502266 5.336183765443217 8.780762670786027
B 8.825060331961941 6.0460256817410665 6.4860445207648025
B 6.1885638033460175 4.618613527460355 6.065448701794618
B 7.869244309844958 5.414527771107684 7.599438294362976
B 5.43247754408261 7.074467465030614 6.036927399493829
B 9.100871502038983 7.565565622345612 6.0382556535605625
B 5.7166566095678135 8.549219762361544 6.7766529376970075
B 5.007958466079508 7.326566646998397 7.633308927191492
B 5.586014271831335 5.807586156992232 7.306832468380517
B 6.96000554996575 9.41232770317553 7.527779671794996
B 8.647124566963317 7.252451947425103 7.6773838381631325
B 6.298556270228646 8.24402984747856 8.426328541689369
B 5.839302498011127 6.777388101037717 8.989988611045531
