20
Energy = -114.42945762 eV
B 6.899192320483744 6.551722179617814 4.760480948423266
B 7.438384040154013 8.157403874005427 4.811874065888906
B 5.864920437809626 7.983577072613327 5.3809537065654185
B 8.516047359623661 6.891295790091934 4.713771477425895
B 8.957719329392885 6.013489544703687 5.962359939049565
B 5.64280626039987 5.986662319714114 5.6279798182596075
B 7.038140335677946 8.841149773186153 6.3037308508478525
B 4.53950746856412 7.365501085764513 6.062838098120287
B 8.717174298772209 5.45934797108631 7.472097477200084
B 8.450192471132803 7.840621136927929 6.129933103768923
B 4.320351234792123 5.756155360110645 6.660817932553617
B 5.949394241921379 5.3579114486348045 7.190311138411138
B 6.041507075094359 7.796657497984228 7.23772067774981
B 4.501258726931961 7.137849956762204 7.711590218114728
B 7.735061242800936 8.233872828798281 7.622297151277878
B 4.5328343950762005 5.582688284651215 8.281792116148935
B 8.885050487716963 7.07470586287182 7.6297645045871
B 7.380318882202259 4.888122664307306 8.226385405041196
B 5.9591729801356275 5.0563643711579465 8.84905969529378
B 7.204466426736974 6.598400992430338 7.9377416906923415
