20
Energy = -115.48576893 eV
B 6.757534349696352 10.122411786949902 9.49497113914166
B 6.890450066506562 8.863145387153528 10.499717684917776
B 6.300689054797762 11.047058960361483 8.266902782081802
B 7.272759172024599 7.422948806572438 10.927188935677247
B 7.093626045594517 11.352244201216902 6.977765326180373
B 7.936003735873651 10.78974130919097 8.316223661227964
B 8.518942055111106 8.56338463955487 10.855365714166162
B 8.764371535740736 6.819922719573024 10.987042666321413
B 8.527196814017616 10.86412245919645 6.438275810509176
B 8.847258481112416 9.951454674340576 9.427238208575416
B 10.020585643190731 7.9200649056452095 11.209406460131245
B 9.43359345145978 10.103273237109297 7.72743986215977
B 9.984646619306284 9.373546977612193 10.462905859093217
B 10.197822987724217 6.484648700885876 10.241554871993815
B 9.845661912406184 10.047024281054831 6.127793570949393
B 10.370569216883647 9.296127331476503 8.812569055368307
B 10.892540151167188 8.055208264447069 9.796496791823799
B 10.7046531145881 9.152080292672098 7.112283536898641
B 11.1677165292589 6.61324692185346 8.96606757193461
B 11.260945357114165 7.9459104367075755 8.140356784421835
