20
Energy = -112.97619317 eV
B 9.511605243776087 8.455648037527661 6.32179897300565
B 8.084452368968085 7.48722864400179 5.82613784257828
B 8.241282569033903 9.535913200785323 6.431481655475033
B 9.211776417148148 6.805600331498702 6.789687171232825
B 10.131916584512634 8.066547797763528 7.732205082286415
B 6.8239559811066535 8.406457943391153 6.110732040235287
B 9.51603491112177 9.683753101484928 7.528212094860102
B 8.044873782909194 8.007800425828023 7.525229280316934
B 6.733718079996638 9.475747610194007 7.2377116752358175
B 9.56129634649457 6.647666175956885 8.428976252313976
B 9.700740480186747 10.281423456569302 9.037106606406343
B 6.795190630511805 9.637859447162008 8.890214600372222
B 9.272254018055124 6.788381157434347 10.032280898273617
B 7.878765947046478 7.63856758539712 9.20696416889933
B 9.737563250661973 9.851739569797639 10.548351953645026
B 8.16053800457642 10.101462206540871 9.858676775672317
B 7.0048693121508085 8.77983753571464 10.192646105762082
B 9.692765548878924 8.182476955945948 10.80369195743248
B 8.050069439098289 7.530424423134895 10.836728954256698
B 8.358382963512051 9.147516273617258 11.173217791485879
