20
Energy = -115.78493096 eV
B 6.992290669478786 8.27687262321184 8.70981657387496
B 7.310510499803066 9.424888504878545 9.709555942859112
B 7.459891811113955 12.023267518657573 11.559509001584555
B 7.36455982734696 10.700529054905587 10.661053766044775
B 7.841270145133426 7.350601523025265 7.846575151373946
B 8.784749139641983 12.737333294701813 11.94852887958763
B 8.75055363388104 8.549064816677806 8.896064417480403
B 8.905906941705826 9.97131784938353 10.067751471187465
B 8.869602074449558 11.374522123828388 11.051842128165699
B 9.357229467589827 7.260338315790356 7.7953341174478465
B 10.247892204258493 12.23372894072679 11.534149738703052
B 10.370698448713657 10.740684111025175 10.52099421122617
B 10.49250362196767 8.042361606588031 8.491684060563607
B 10.383004385644343 9.373266151218722 9.548290530474516
B 11.684249223335744 11.67997246634507 11.127310225658508
B 11.836568897899891 8.658732971156905 9.026094513542585
B 12.068499649588444 10.148166503001585 10.120152202610619
B 13.288870948001627 9.055804005348515 9.369647492971588
B 13.17908460450894 11.31032525179194 10.91254812564849
B 13.900372299501704 10.176530861301094 10.191405942559559
