20
Energy = -114.65336096 eV
B 10.606582445409877 12.814943624271713 11.673634948158234
B 10.824816251691603 13.530310453913815 13.526943939274444
B 10.076620580483244 11.793770145904531 13.07003026274713
B 11.675610242348089 11.599612398064497 13.45665392527508
B 9.26035652840705 13.077247921321472 12.773161558617815
B 10.043816612620798 14.35122159656784 12.232235170514862
B 11.595130233419113 14.267565601411768 11.926666383549207
B 13.195685158040874 14.07293096505805 11.661834732417352
B 12.240579665856224 12.650606490108911 11.447696000908309
B 12.102548244638136 13.069645539431397 14.401184386712679
B 13.89443395052697 12.590152935079136 11.508128262523625
B 16.081382518883917 13.087791385682891 13.03259038800349
B 15.767530796143575 11.878253691072114 12.057064183713678
B 13.72918135982044 13.391105521161768 14.48573529392681
B 14.523021182409138 10.946654594829011 11.892816860893236
B 14.440034913373676 13.9120034103236 12.683376565173756
B 15.261499634382314 13.733473812740536 14.174452568848052
B 13.041938345089589 11.285569544890302 12.3974722649123
B 13.095018415552149 11.806164479595216 14.225053150878802
B 14.533530881948998 12.130293849616654 13.362587230859202
