21
Energy = -121.45336167 eV
B 8.666332774668387 6.90212239141101 10.366993068001516
B 9.949573164089907 7.844637625469064 10.689659312548583
B 7.233143748718309 7.4047030920326815 9.97028872574323
B 6.757752643596202 8.916450348076564 9.709308550007357
B 6.752522919646496 10.488796492833082 9.358808575536283
B 8.37671335834718 8.5072672621526 10.401157351583954
B 8.095285301809072 10.165203078978449 10.276853484668743
B 9.627082824107418 9.565286745361863 10.714638156559902
B 7.866254686196347 11.56814040945196 9.501014804623527
B 9.327152839796927 11.423442668484507 10.274221096300018
B 11.15594655124744 8.908481420141367 10.989402160496825
B 10.899510110464906 10.601847244908173 10.648894847480683
B 11.952299816624553 13.297025398289865 10.705327036334511
B 10.689005549557645 12.314562993707177 10.58949944926165
B 12.479006714555842 9.84249072163651 11.114759204566669
B 12.174144750925414 11.550828611870536 10.95777782698686
B 13.490139834022845 12.498245235519082 10.883411307048403
B 13.320901115636897 14.142913839771772 10.976218221566855
B 13.732247852557144 10.826833986718796 11.286234584399894
B 14.734668086761955 13.4937762158075 11.271826220083083
B 14.915007588071614 11.931636448779926 11.5083982476035
