21
Energy = -120.9994103 eV
B 7.898649184031361 5.514535588444896 5.967660018250361
B 9.197222921510143 6.552274287850148 5.927643254785887
B 7.433668106783726 7.103008804052266 5.728377887128624
B 7.438620597981544 8.729969881909687 5.753446260266537
B 9.088822351110089 8.180094608582682 5.938139797710262
B 6.977595114594331 6.118483445027226 7.18191419944498
B 6.554060355371815 7.828230019745641 6.96294624181005
B 9.421361474986094 7.326664227904216 7.5034160741269424
B 9.136655141571367 8.970420356607482 7.44768686606526
B 6.998747368731103 9.60597227899037 7.081285529057851
B 6.640604960921359 10.32115900363656 8.47101035542213
B 8.818502451605895 5.7491859219811605 7.3978717148142135
B 7.03523178333704 9.628594115084804 9.82912141398844
B 6.170706647233468 6.958063230914717 8.347183988671969
B 8.977138730494467 8.091328843569038 8.925947281023719
B 8.254636267084924 9.72102463533242 8.539177014694944
B 8.456215894293319 7.087957364661595 10.234198201306771
B 6.233539174651909 8.6339151822832 8.398009178088657
B 8.059236559511794 8.578178100040313 10.484763841993455
B 8.944964071919275 6.32223936180969 8.881142459110633
B 6.903158322512669 7.618038221809746 9.638395902475843
