21
Energy = -121.64207052 eV
B 12.305262994445279 11.952176181661384 10.383014809585003
B 11.911173650508415 12.20176220192033 8.887182769393357
B 11.492636469856006 11.048814722553272 11.436479620410788
B 10.911663160270873 9.69742016983762 12.133005305037482
B 10.791135724601405 11.520214152493764 9.886622675826192
B 10.38905258068773 8.241298497131883 12.569462745115784
B 10.605074560317565 11.67331967094882 8.121913093612289
B 9.560513776554954 8.93228476006876 11.33557759049608
B 9.839037401452915 10.524440451313248 10.87546314329299
B 9.256734975358171 7.417013917736995 11.89256659981576
B 8.404007783830508 7.7676622135576405 10.581942731087183
B 9.462905772678711 10.821241819858336 9.180013646261681
B 9.372074537650386 10.824947419929353 7.4669618934930195
B 7.9552979934677905 7.150329777923758 9.038683525761071
B 8.89114337348443 9.395827136693736 6.806047220504218
B 8.244778616796387 6.749960830443936 7.510927235869553
B 8.707913442833274 7.831543971552859 6.480486823571468
B 8.57208020596187 9.730268695112121 10.162658025434572
B 7.524788742965681 8.713700723668742 9.42953564059117
B 8.334881873881963 9.876125184483461 8.42100720100453
B 7.901722729885335 8.36352786859868 7.834328071324635
