21
Energy = -119.19750491 eV
B 7.634800768349596 8.68291244407437 6.940066802306767
B 8.386475512661377 7.5803520481684314 5.963588139793696
B 9.451547916513762 8.2366032864363 7.030307460577334
B 6.778513328936031 7.20554625251224 6.227082662224475
B 10.99685452495006 8.392629788502596 7.684305505288653
B 7.802283716674238 6.024801092138365 6.376550547145695
B 6.643129959104653 9.473742352772707 7.993524126264128
B 9.156193119441113 6.324815118875923 7.125838194964886
B 8.216711678601444 8.556012198271755 8.607063440945137
B 5.698901478193041 9.674551762498234 9.437526203120122
B 5.744924231980203 8.071002936645025 7.151187995359069
B 7.463043373494196 6.997275244984149 9.359630721679006
B 10.358107403793388 6.905356182840389 8.087708259509848
B 8.970949748947863 6.7666153497596335 8.984818629353107
B 11.359157934418707 9.358142554850941 8.872391066914846
B 7.226099562114327 9.571845490167643 9.78120160491705
B 5.013071447110587 8.841393886773515 8.294641645157206
B 8.867350272000714 9.568398069346122 9.984502248183604
B 6.258237229789171 8.013872530349461 9.21596478274819
B 9.890808084976197 8.322795017786433 9.176312002400211
B 10.400463918801906 9.74896160309847 10.023413171999813
