21
Energy = -118.23194513 eV
B 12.90224223073887 7.604491078189778 8.379530775808085
B 12.526776076441926 8.812052707544392 7.44838977396105
B 11.561177572001734 8.59021193677427 8.853567703433844
B 11.452080387446397 9.91104936915717 7.625351001128706
B 12.223480730322052 7.29838548933305 9.763170719238015
B 10.920432503459173 7.857457911226504 10.389854241410221
B 10.263824646413218 10.872253319726035 8.052043053959116
B 9.483365269507779 8.568498110632596 10.45962021115608
B 8.672719487753662 10.216262049295901 7.660642368963331
B 9.476379930058762 9.990098180193412 9.434871556560065
B 7.890510045267943 11.000599295475757 9.578649176042017
B 8.358732089870355 9.654294820236316 10.676651414051976
B 9.165586014841184 11.61197172377192 8.839971150536341
B 6.7888514952520875 9.999742830220374 10.144822778248617
B 7.8240214871854885 8.048106005271608 10.601036546913047
B 7.140438160162857 9.808283848449914 8.45442521088538
B 6.7743778301942355 6.993295760355909 10.046654935927576
B 7.648691893544522 9.232913393010293 6.987529940787841
B 6.338752605489551 8.572098285684236 9.508763277263016
B 6.589010030275142 8.311707086192603 7.689097033273468
B 6.104102972939984 7.144548891690394 8.693222147545285
