21
Energy = -116.11683037 eV
B 13.490025072154214 11.194710000761773 8.63075975189614
B 13.101274665943416 10.771533400198942 7.145011233392909
B 11.994709099107274 11.648171948350326 7.861597479173074
B 11.196363441686817 8.566098378125094 8.428321640572392
B 11.976202032696964 11.203426745708775 9.37771476189874
B 11.886318554265236 9.883117312208954 7.806751920075289
B 10.830805626823365 8.222657632667072 10.020773132112073
B 10.137010912141083 7.332309147207142 8.767083225308248
B 8.60903835253553 6.833377314051342 8.988133187090957
B 11.167983125416821 9.83495661992461 9.742216398808823
B 7.467607864932483 8.216865633221776 9.140906593495224
B 9.422986174912108 7.532549603549051 10.325622923552762
B 7.805642828374527 7.007009767143748 10.330706489741335
B 6.453124055083725 9.472243883319557 9.665062406074561
B 9.657381201829239 9.361596302935956 10.395403156787488
B 8.082364000680515 9.875666158538987 10.296216854435743
B 7.659923374566464 9.663042980426969 8.434967717120278
B 7.203749293600476 11.006458729022823 9.10141792920892
B 6.531632854687764 9.698342806362811 11.401530148065572
B 6.84422021210115 8.251511279805728 10.833546254039259
B 6.676604630867439 11.027682540709971 10.573408302399116
