21
Energy = -117.95045094 eV
B 8.059693827484942 5.819244089740877 5.775860723713167
B 8.17538736409256 7.343002703618165 4.9139116262933715
B 8.452620365597786 7.637548434906849 8.22738798138575
B 8.675078466025763 10.1607118640081 7.589443293163798
B 9.324317072226723 6.261391577861966 4.794774194344689
B 7.715422791428046 8.805936374839087 5.372919996738287
B 7.107906052158168 5.510741192536618 7.040193799774131
B 9.768361434733654 5.853923686332527 6.225295772998594
B 7.445568142123612 7.264908941057512 6.641103243757225
B 7.996971242278387 10.093496102632177 6.186255178668633
B 6.036612599098455 5.928881513044066 8.079465048772692
B 7.337286071313828 8.557674675623772 9.257079348830194
B 8.89366966452164 6.086540648866667 7.587114542529966
B 5.013729850021837 6.991083799725241 8.773368909259789
B 8.745370969325082 9.184054643360199 8.791269707397856
B 7.296957756599424 8.869611550224226 7.3607777671779475
B 6.768002132326434 6.817016119454238 9.54596777919546
B 7.717593146733166 5.849130438422927 8.705325078794994
B 4.455106801571336 8.438452286307546 8.868157529731837
B 5.796609207523982 8.932387673689645 8.241303128178703
B 5.835115546420933 8.124477350356202 9.804458902768005
