21
Energy = -120.36856117 eV
B 8.545693129489376 9.50060590274564 6.722517149649212
B 10.723908009015895 7.814090443692846 7.789884121964926
B 10.169532652597942 9.22336536336528 6.750229560838637
B 11.664702808850377 9.095808577410459 7.267652083514234
B 6.965726280014154 9.06017052113476 6.941472863699212
B 9.540911492099793 7.048291385194511 8.542537818336944
B 5.713976709703369 8.348355721499518 7.7376526425368874
B 7.680275764477481 10.334034389614976 7.869971440500003
B 6.548830658517146 9.459593636755478 8.639410954717162
B 12.036438864255683 8.534440727129772 8.712778532616216
B 7.901863341191336 9.888430543869575 9.539569384451914
B 6.805749191281091 7.518102039120607 9.401693370792046
B 10.91356143480369 8.027401227661061 9.751302587253223
B 10.71062792588749 9.6043244540587 8.666565868117656
B 8.084959939895239 8.247872341532181 10.61404206786135
B 9.208593274871717 10.143422473107458 8.41645822890043
B 8.267634287496403 6.841874327405017 9.385061679795838
B 5.413057985988099 8.416182362267614 9.294439473341045
B 6.616593998516893 8.992623766817662 10.338764559392034
B 9.30771692331136 8.780163866640358 9.448621601026034
B 9.537879603391392 7.479080204631846 10.527608286350297
