21
Energy = -121.49678602 eV
B 8.603007651222145 7.493906863672119 6.885298608012488
B 9.516048808051636 6.942780327584726 7.999937480086142
B 7.979151950169289 8.85531546393116 6.660879589001221
B 10.249628526606674 7.630818804872926 9.194919774638008
B 9.198696246676196 8.672301442028626 8.069996051660747
B 7.869839042422804 10.298314052717087 7.249085947353351
B 8.979759529827087 10.393075892198173 8.676507819366936
B 11.100537462537979 8.257538632585932 10.412174640666231
B 9.986245925328172 9.287636617658135 9.462893145743754
B 7.957557717734083 11.615813554457844 8.081152642797782
B 11.767855176069574 8.76714397539683 11.796424955838297
B 11.041889810706232 9.942543360870575 10.731593705311989
B 9.81091466968859 10.882738419128009 10.047143680253718
B 8.752760105781096 12.113535517471083 9.317805056905708
B 11.635343333362538 10.460278721629338 12.1975640891309
B 9.57635269768661 12.53925335219625 10.672376441851554
B 12.302612478073533 9.379101180866943 13.218192555291026
B 10.806418320242217 11.49974886780974 11.193979646414787
B 10.245434871277514 12.831963480197475 12.08203734094092
B 12.081108597512104 10.842165067453099 13.731338162539373
B 11.255556182610698 12.010745508860271 13.035417769781834
