21
Energy = -101.94547975 eV
B 9.628423985357099 8.865416261801213 5.369361495376652
B 10.770995368416095 8.309850190069636 6.555214840617548
B 11.682494363848397 10.58082912472396 5.5326355382193
B 10.09920119143125 10.483004958856846 5.260945904652186
B 8.749816162697277 7.035224635235225 6.532937680175621
B 11.535435192735127 9.712419148791168 6.85053284108101
B 8.274982912478727 8.787285723339465 6.472580584594717
B 9.468529835501888 8.259903773221167 7.436506459249269
B 10.364330787915451 10.856542344505103 6.813328625276177
B 7.555715927975006 6.573877640035363 7.503431767088765
B 6.3020260832768855 7.780279453537489 7.121263057979463
B 7.731189472287383 6.445127059037681 9.21319931665344
B 7.337124026719908 9.044863303836564 7.81195299312467
B 7.635947383519676 6.4194763631974405 10.767419778775794
B 7.477705664985112 8.245182640677983 9.489678839937966
B 5.675189105806026 6.392675111573098 9.232418529949125
B 6.573307459672146 5.637613129161813 11.691606488428043
B 5.254712879173124 7.682670575154465 8.397852862743667
B 6.037997835512762 8.72897051849104 9.300073292871732
B 6.455374088333775 7.4481358367727895 11.518460649864767
B 5.464567544079434 6.3286688877422135 10.816438724751897
