22
Energy = -126.66811948 eV
B 9.273570216592878 5.953112413814647 5.842332516054486
B 9.34402636015983 5.632837958350824 7.341697835251417
B 8.169730566937856 6.847937837045482 5.052038879589978
B 8.512495185210337 7.228945036059798 6.848944530352012
B 6.5321814657019495 6.03150476583285 5.448825322982721
B 6.7359524863050195 7.537538334401658 4.644089191573498
B 6.15788379838078 4.750181615316406 6.4374978511461
B 7.889494142512881 8.498831141063183 5.622586834864321
B 8.25980705983073 5.59173862530433 8.560686387850348
B 6.608535507757776 5.189184012758957 7.951863185694943
B 7.721945988442116 5.342790161443102 6.5645422224472645
B 7.508774337372401 8.460909438070878 7.281942280286471
B 6.969519358109994 5.903789541538698 9.43840227966216
B 5.271558772462958 7.252102577241961 5.231378759277441
B 7.318897419796013 7.08520348834451 8.217974810344089
B 4.934688754587166 5.758693257750664 6.121852873814824
B 6.012428054931217 8.143834104991942 7.807584553129141
B 3.903184068811986 7.0111590189089785 6.204267351324805
B 6.261906138708076 8.732214313460345 5.957975016635369
B 4.610722131862446 7.187319569397048 7.7395071675995215
B 5.659059969189594 6.548741810364449 8.801270308381115
B 4.797160450347856 8.405426335379426 6.552700374878531
