22
Energy = -124.48506817 eV
B 9.994355794704706 8.467203140813268 6.504227627720565
B 10.340176785527461 9.557321610550483 8.308613787408989
B 9.06532365185322 5.649430502844552 10.012454015355429
B 10.957960884489955 9.741391648331264 6.920386213326402
B 8.855713776557415 8.967363184161318 8.493150129713136
B 8.953214628499062 7.424852922004852 7.452293352912568
B 7.591218829497279 6.056785880406865 9.320115352049259
B 9.093981843910743 6.133771150013006 8.500927002243484
B 7.987876373129712 6.275406134882136 10.923510993032751
B 8.471303210575744 8.665835600853264 5.967053290362576
B 9.392774652167482 10.10165395445358 6.646067280493448
B 6.963375841482105 7.530591300897024 6.831783401438897
B 7.561884615983436 6.337141752312911 7.6856265617551465
B 6.912346161257022 8.822581666180122 5.798275779311812
B 7.735252975020692 10.088893033541886 6.8582727631743605
B 6.8375280272413095 7.349592901810723 10.61455460490031
B 6.3730562077057 7.111371178929261 8.546457809965016
B 6.983605908143624 8.947051221032192 9.766793071965242
B 7.3344664729878275 9.816461347452604 8.449002907878862
B 6.1741521876942995 9.430571359572573 7.085096832125263
B 5.591204663116344 7.922301911146716 9.803193755689403
B 5.785746310525037 8.831438759936859 8.516992281222723
