22
Energy = -128.00285463 eV
B 11.722420751141607 7.506023637490808 11.341853615425508
B 10.35533760975528 7.621270499226984 12.111177725606971
B 10.757059671121748 8.80036336023043 10.880937167379352
B 12.26608638949259 8.309625131355054 10.108196956003226
B 9.08570126288599 8.788298420522384 11.442656731894179
B 8.918283943801857 7.770065508679409 12.77465137661922
B 9.588795577516374 9.790222707305864 10.128620018006345
B 11.161599525063302 9.372131329031486 9.349907050488632
B 7.6446038014310815 8.543174421879161 12.484428235285835
B 6.7039237955025985 9.590927735470132 11.734756602459907
B 7.954829881076898 10.134786633684177 10.570688817870614
B 6.382829707903591 10.71801548893961 10.7738905229249
B 8.88803265038149 11.229613782293539 9.534532643356254
B 10.248748951658197 10.690585697556287 8.717289143337956
B 12.83885314179794 9.176238210519502 8.832119994432357
B 7.181214925322972 11.584019620740968 9.710371074615864
B 11.852587316363651 10.512580491716106 8.355297922462027
B 9.478101988274407 12.080106606313663 8.099295838327736
B 8.02649961766753 12.347941715441024 8.624519698780961
B 13.294025588984411 10.130839615721548 7.633405020638664
B 10.995025368666637 11.768656539208727 7.540511585692029
B 12.451950330696175 11.331024643178464 7.047404054897378
