22
Energy = -128.28154592 eV
B 12.386941432413261 13.152572521669608 10.033665743969648
B 11.411827998819998 13.949433516044047 11.050405654608447
B 10.143850999417369 14.497039844850582 11.891272107136237
B 12.546213488013022 11.619106964982334 9.68326242246249
B 8.937970299801245 13.64968662150011 12.394956560104138
B 10.284946573022985 12.871052572741904 11.889005833914073
B 11.581593520292888 12.10643386792991 11.08988716724695
B 12.367647514522393 10.05617067033834 9.183562312294299
B 8.747931750646314 12.03960291402619 12.27471460320157
B 11.101086049455676 9.083134315983726 9.911376485826874
B 10.23372404474783 11.221622055702333 11.648095179817684
B 9.864462114483745 9.819327247384706 10.882966944033486
B 8.712222177119834 10.440140844946516 12.027130598650762
B 11.221998240014361 10.665252381593199 10.33575751437018
B 11.87741121289336 8.792236110517353 8.29971862005043
B 8.370845588991347 8.998600660168101 11.307476023510462
B 9.705986327759382 8.232658201031118 10.408049985786494
B 9.921538300223627 6.752465435862008 7.916914160545657
B 8.063081449391975 7.828927008014156 10.292335060005666
B 11.20207687056085 7.541840480818355 7.513291475606007
B 8.946394870251662 7.088934719852097 9.1587517055819
B 10.566278731353812 7.789790598240698 9.00343339547423
