22
Energy = -127.72086225 eV
B 8.004308589878034 6.366437335423003 8.645610883832557
B 7.356437344775966 7.672259160151277 9.361106729211603
B 7.001958192547988 9.16385294763201 9.879390160310743
B 9.528275811031504 6.0498203843317615 8.593637527659407
B 6.958484649378663 10.748107274740397 10.304213458881636
B 9.026303898578202 7.218149421591603 9.643785039724007
B 8.416222753790903 8.46076885952803 10.560967873078274
B 7.7600588555281735 9.690494720825685 11.33109558754075
B 9.279064971153565 11.742869548619252 11.112203021974693
B 7.8490102042357455 11.256007449995039 11.626319553466953
B 10.683207127995399 6.978676083307194 9.176184802590134
B 11.689445287719689 8.18692085395641 9.550129816939108
B 10.146303976129103 8.385198115884721 10.205684641942296
B 7.930450307925246 12.06618284382516 10.167198616467829
B 11.115273808453143 9.689335765782856 10.067323469736682
B 12.494209662247915 9.432949736553757 8.903948900756074
B 10.568164965864252 11.364190552060093 10.254136486757574
B 9.404361288154643 12.406912846323273 9.531827803252488
B 11.826728372732163 11.00447900370511 9.232092261910665
B 12.961778967788911 10.70588435543023 8.072561341577698
B 10.866749526028345 12.42104331522016 8.847308830923904
B 12.213660767176432 12.069918754226547 8.013732520578642
