23
Energy = -132.33304735 eV
B 8.418151581710754 7.640877447751953 8.918304696820002
B 7.877616346950309 6.739223612463171 5.728677062033675
B 5.490634075182501 8.959577679476258 6.176972545225978
B 9.302422437766703 6.107143287092645 6.666674661159987
B 7.806509061628042 8.358184083972436 7.475299579252637
B 9.391467467046379 7.334114596666728 7.715846921248093
B 4.808661637763338 7.212183287970766 7.471557553037501
B 5.081648652668122 5.766810137752264 6.699437650178935
B 8.130029922124388 4.76374505845946 7.245894113153462
B 6.876936958322776 5.145196879453512 8.184793573541022
B 6.685434679397518 7.131567761505503 4.481484309947366
B 5.4210181260539985 5.898605825348655 8.363796402955625
B 5.486783616778037 7.478943950495952 8.886253172781768
B 8.511865417987831 5.152925548761883 5.573473046008656
B 7.132163775024639 8.18278287314946 5.977361732112028
B 5.824578152773911 8.453968258656372 4.7545120893998005
B 7.232209223626928 5.52858758262957 4.580030366753902
B 6.839656881406142 5.202474504452131 6.340127713172496
B 6.929333204680305 8.276809487661584 8.978958837231438
B 5.666679240524715 5.59752582010169 5.207984885029719
B 8.283387961184724 6.101546412570711 8.266410552059263
B 5.899799359403221 8.677463579060824 7.735225203323149
B 5.092648823202782 7.189572477544864 5.730011205515191
