23
Energy = -128.86372559 eV
B 7.936181263415982 8.766873273573923 9.913341131453414
B 6.498803708834755 9.36040496848879 9.882781205564987
B 9.27849008549567 8.134709397919313 9.215061076649702
B 5.164369782947283 4.770220133052768 6.918835275599117
B 9.199656128575949 6.281659652138985 5.936566870561902
B 7.581553490341956 6.8472086990029775 5.82855234110773
B 6.639159940172175 8.057165079865511 8.830817663143204
B 5.947653852327192 8.700421594301421 7.2036844184678195
B 6.573361421179088 7.092082674647595 7.4145817435605945
B 9.12361944944525 6.482471664823429 8.827237363993575
B 7.434967082580568 8.595095040987994 6.145045337037443
B 6.34156556088423 5.386291298768063 7.776086149241098
B 7.457983082558739 6.280376431121252 8.679330489644821
B 9.488107728543763 9.122028624276542 7.964078494853569
B 6.1254985443656915 5.903931708707203 6.092486093902642
B 5.710763860643744 9.494753987570933 8.554591995691334
B 4.557159097666229 5.301371386438752 5.5665935191828835
B 8.965294761517832 9.174800029367622 6.48672774382982
B 9.539258711006157 5.830324244408148 7.427862047009551
B 8.686387027834499 7.463595671815287 7.313339289786145
B 4.883433508439724 6.734764067125294 5.102141717813721
B 6.021937120697006 7.742275287485309 5.753629998359695
B 9.441514990780814 7.836993532181841 5.709350168644012
