23
Energy = -130.31790043 eV
B 12.003628555060152 11.122722168226224 10.251261316747604
B 10.804315567496507 12.412281810624334 10.25127177158653
B 11.369622748941739 11.641829747086552 8.59118682399981
B 12.214362172744229 10.251281050434876 8.67925237393523
B 11.369628629788663 11.641833667651312 11.911365213730008
B 12.003632475624768 9.379826864094746 10.251269811304367
B 9.74307761130581 11.768337985240663 11.660422981001384
B 10.551669365605981 10.251277783297647 11.140088977871487
B 9.273263464501422 12.815721480281185 10.251283533280521
B 12.214381775567306 10.251292812128723 11.823243469035495
B 10.804298578383417 8.090265914841737 10.25127699900621
B 11.369626669506355 8.860738234629824 11.911386123407858
B 8.84108698873313 10.251289544991495 11.489483800848088
B 8.84109352300744 10.251284317571812 9.013044060066656
B 8.163284472025884 8.818994372203841 10.251284186707906
B 9.743065849611817 8.73424633216157 11.660460879792618
B 9.273254969944949 7.68687133167767 10.251316204652218
B 9.743087412717202 11.768333411248664 8.842119255317188
B 8.16334001335774 11.683516761326063 10.251262623602669
B 7.55367197987309 10.251294118983498 10.251258703037907
B 10.551683741009377 10.25129607926566 9.36249703808496
B 9.743086759289667 8.734246985589104 8.84219570632675
B 11.369597918699126 8.860733660637825 8.591205773395354
