23
Energy = -133.53710764 eV
B 12.671134677626187 9.126534227613929 7.800945118133157
B 12.43686223261125 10.130734663754536 8.994560344333747
B 12.335247050021332 11.234393092549295 10.219434607939416
B 12.32819164105313 12.19295128253172 11.441478362051798
B 12.043439474242708 7.957312972934276 6.959091728054552
B 11.149470140775403 9.150144146804694 8.691260633050575
B 10.94505696196117 10.306582198730824 9.808039967108133
B 10.93129371813413 6.947993589564407 6.550778633213288
B 10.842147128887394 11.377697221363134 11.12397400219502
B 11.194971236133124 12.451642711533188 12.458552190028245
B 10.341279650816086 7.989340679968417 7.758035611830316
B 9.691057040989627 12.005279842076364 12.38938328265665
B 9.48235669381156 6.750724406302958 7.039800282304616
B 9.58903265216643 8.780425237080346 9.109002479715674
B 9.278083157922742 10.627754881142156 11.419469603268423
B 8.710516724609628 7.531957807643323 8.191032780371991
B 8.119580546085848 11.799493678707112 12.136124787147125
B 8.653121242787503 9.403891155180688 10.459131450580694
B 7.973892475906741 8.362649373478831 9.351897259208245
B 7.6435975646822465 10.709760733298337 10.879220485594383
B 6.582488979377799 11.433245868358883 11.95147817634909
B 6.933483814722295 9.326887060772817 10.158064578383465
B 6.0278883510335515 10.306796324967232 11.013436792838851
