23
Energy = -133.04704363 eV
B 9.022677573778125 11.25473275717791 12.238930072069737
B 10.33087612492223 11.620786094299415 11.328529495721291
B 7.5619932708275295 10.814959296331402 12.785926611500559
B 11.147646736908964 12.188515596401295 10.026060887765505
B 11.276059166265197 12.538732644036322 8.491131119681706
B 8.381891943753098 9.637839446333452 11.98004519055216
B 9.919201382234442 9.977838855334312 11.364487903630712
B 6.783390826592467 9.533152876789973 12.363407225661854
B 11.186565695721589 10.491447079048402 10.397072793218051
B 11.890305325453388 11.025242079464467 8.890017860298087
B 11.28588296269077 11.492526066522645 7.327243595633898
B 10.658213723549219 8.835680167641302 10.253119551489313
B 8.39506277339105 8.216723393211693 6.8684307851075515
B 9.039577058265868 8.54744183530173 10.867562983637324
B 11.86913013341634 9.42256230037635 9.228341609671698
B 10.620553390203499 10.30153572197215 6.52002859042252
B 7.295414237919998 8.456859497905002 11.272606276085959
B 8.16345592468985 7.615705760350622 8.313073371072402
B 11.04643055993005 8.179450999322787 8.742471451997542
B 9.822302402487294 7.893890779659903 7.695580779362125
B 9.63840405635872 9.056165679351153 6.418989586094518
B 7.877874096386821 7.746366935226027 9.918849206990915
B 9.489296782719377 7.85405028640743 9.410299200800605
