24
Energy = -140.13145475 eV
B 9.655199087034244 12.245453610563414 6.621566669782699
B 8.603687625848513 11.493740129189097 7.6192057549642564
B 11.165135993468816 12.550838638506352 6.942670750137258
B 10.275337591875303 11.755118671456938 8.049390506492882
B 7.64330625948865 10.79999597823476 8.772952140802445
B 11.956758845344321 12.200880826427687 8.300051237347628
B 9.230250484777114 11.24078925483605 9.225034976134623
B 6.832221918247224 10.02112840944133 9.95099987172059
B 12.553696533533293 11.841919755434027 9.782805122713203
B 13.248889462260255 11.335127213477378 11.169526069337262
B 8.473371977451935 10.067160204395186 10.142223260909606
B 7.456701972373838 9.447194453512362 11.281234773799438
B 11.622535801272186 10.828261736565425 10.868255238366974
B 13.921516651334908 11.039625520215402 12.610634559751663
B 14.371553268369468 10.86485128537281 14.147619176913459
B 9.952204308529222 10.612726678178314 10.699959819732014
B 10.872563591569437 11.602056046084002 9.615268657192612
B 12.266419865396836 10.492016030695934 12.323946946207945
B 13.040524064923838 9.956059954092627 13.680605426396367
B 10.544238129531143 10.092373950718986 12.202758165181304
B 13.561182018772731 10.069568188632601 15.255790542090226
B 8.955484728775517 9.699786488494865 11.738911733491658
B 11.32825658860327 9.736213919570815 13.598961955187317
B 12.078878788737274 9.617028613421441 15.009542202865434
