24
Energy = -140.39999331 eV
B 7.418402787661915 11.499821772324026 12.664569856103727
B 7.15665837398411 11.330661765214055 11.097791735343197
B 7.24284804287301 10.661259445884403 9.603299136488882
B 10.233132935176242 11.423479758071013 12.55945063198653
B 7.46094993440874 9.621824453791634 8.321567953887817
B 8.772448520412013 11.331007360903039 11.720910099836306
B 7.682214412932343 8.22650467267369 7.531821366534632
B 8.557118604926464 11.643320694233932 10.087596000818152
B 8.745780710475792 10.56052381151713 8.843335961041669
B 8.852718186564092 11.501457658821574 13.353161447035392
B 8.128275456512794 6.749228188204275 7.086992396270799
B 9.075125775499517 9.36447541504329 7.821516335898385
B 10.13796653106198 11.652815456130051 10.826122938937717
B 9.536357376848153 6.115527222896691 7.22964911211455
B 10.44543140456345 10.175787344575564 8.534511631114563
B 9.41224834954384 7.755490439953289 7.338091939576499
B 11.413856855696423 10.857927808216589 11.53106425596087
B 11.235777514493355 10.725217326213023 9.870519024487233
B 11.37218073259477 9.086503317793055 9.471505265165408
B 10.714927573154275 8.605612302438454 7.999052095225304
B 10.82372280898131 6.868728344220149 7.859104817440565
B 12.252942239281332 9.633519319915179 10.809845225288852
B 11.889179951977066 7.556789782433569 8.907516820236657
B 12.633406615942521 8.246188034097703 10.124675648771255
