24
Energy = -137.94626566 eV
B 12.040034322136373 8.565249476644828 7.133022834265197
B 12.160466589000693 7.6857738334969135 8.415375482453502
B 10.890233535662858 9.49856430507707 6.643682789481997
B 11.277325475220866 8.020958097112663 9.651594700961356
B 10.580646544565848 7.631578899307332 7.8488998957738225
B 10.718289255995584 8.359447982049323 11.199347579439925
B 9.745330513876745 8.26320739608045 12.449209973584525
B 10.14102633788793 9.974079605241267 11.550273591330534
B 9.301025161260823 8.515792654614657 7.513505803866661
B 10.711907070096508 9.327625239955557 8.39559924396654
B 10.401312452847101 9.547109546205625 9.994016315197799
B 8.782408918635461 8.839506039549505 11.059776135688839
B 7.970856830633162 9.227989621978054 6.669990836370554
B 7.289899028796642 9.818781475364249 12.077919286537929
B 6.42383516277653 9.59044250532485 7.486931918100381
B 6.710222530917857 10.127021640289463 6.011928928291461
B 8.3034219993431 8.76134478775108 12.785942105565045
B 9.491392348489857 9.760886317375757 5.894026353386319
B 8.079674384010785 10.18508412263529 5.298167147054175
B 7.707786771910378 8.72012145492385 8.223404672594341
B 8.75767798206793 10.484608349833984 12.064875414169276
B 7.794396827467771 8.691919791750479 9.795230738866506
B 6.40026595684493 9.285667397498392 9.109069613791242
B 6.521318930412851 9.599446924325067 10.668919105920208
