24
Energy = -140.02954883 eV
B 12.061185727041268 7.0099078031380095 10.244635192598594
B 12.589567997905677 8.002569216630475 9.073600936999654
B 10.783044485888428 6.849069883803694 11.208193448566448
B 12.190210118662796 9.34052158683248 8.306923739004493
B 9.322431573459124 7.483057641761251 11.537713855358659
B 13.140498170743793 8.262708069177108 10.64558291080677
B 8.105005135549467 8.497014157539839 11.250202637914539
B 12.135385314724894 7.695911674645688 11.777680386692111
B 7.149242153278315 9.610082137648485 10.569881870595689
B 13.285812445772937 9.46543219008438 9.58207268452429
B 10.694667650925002 8.072667619665397 12.370285618486013
B 11.197371711453561 10.602722617443018 8.149792166950634
B 7.919296781429664 11.170773258266085 10.410137565629267
B 12.646758131447822 10.841674236598765 9.002695678991195
B 6.365554258835392 10.78077785732725 9.850623916196923
B 9.404043246417231 9.022225823500854 12.22900731091493
B 10.025707383190936 11.60173930475244 8.519252112643816
B 8.515156333468038 10.139070944422688 11.515043052370892
B 6.817977516828387 12.265544900677561 9.581761563924221
B 8.757309188006987 12.312445403757403 9.313179471466682
B 11.611396547210191 12.078712032345344 8.927492686593903
B 10.436081367955667 13.159639782831128 9.1381997319032
B 7.616200695677137 13.612578111823096 9.423831709636165
B 9.112768971304048 14.005826652504174 9.254882658407247
