24
Energy = -139.08987892 eV
B 6.780072438998747 7.212116035457141 9.960751351995352
B 7.234701614957248 9.221515640897687 6.1033091354266835
B 7.953895298698612 5.335255520621018 5.2480193012730885
B 9.023192974738674 6.145034669655196 6.351975794307367
B 7.908279152517882 8.444723020233456 7.582177720108264
B 6.399538709787169 4.955528398133378 5.659829587355146
B 6.521053672600635 8.306338249724659 8.6987682801978
B 7.097961233684327 6.331404018924288 8.49764484089113
B 8.657816115615416 8.391682860087005 5.890118462344973
B 4.858605445183819 4.858009043526386 5.869392111079928
B 8.130853746120566 6.955453342027397 4.582556268584938
B 8.098645934122505 7.6251560304556145 9.114924690237094
B 5.137292582948164 7.835011863992519 7.523453012563563
B 3.9588579417282777 5.493277645927907 6.962643852298418
B 6.189562339832416 9.124583798879465 7.3465514798420655
B 8.55592112402409 6.793387013799406 7.7276803425721186
B 4.2675468464010295 6.552294210170677 8.0761454479847
B 9.763390715603308 7.371068074223768 5.265813722319261
B 5.493227576645132 6.338739586856515 6.449413152713195
B 5.476456041150651 6.75060752878928 9.178421935037681
B 5.993150125189527 7.9833607064111956 6.043200751174238
B 7.173093545494718 8.202480168888851 4.8437998781732245
B 9.418136726060625 5.918345428033256 4.760851711822901
B 7.300938307880874 5.829746168333501 6.867112930485226
