24
Energy = -135.56650516 eV
B 10.735427164349495 6.474027889652009 7.391827152019736
B 11.263132404051277 7.393236249787068 8.619415442867654
B 10.473998437622916 8.150456534688539 7.169984094918275
B 11.12943326333002 9.067568930070623 8.442710626999958
B 9.984408243210975 9.985125643214069 9.21913688239445
B 10.50198161003162 8.244048617610176 9.830202522016188
B 9.656372736138845 6.962231586195245 8.68911410102636
B 9.301403697119104 6.769511868723285 6.802864022777891
B 10.053655149036608 9.729142500322196 7.378111263240994
B 9.849564993004808 10.924861631099784 10.62745365258432
B 8.745825832509219 8.746890138562438 6.9427865479376525
B 9.73832257664533 9.182515906108172 10.921604265204245
B 8.053128955961794 7.167937123416852 8.475618230417412
B 8.58180847001865 10.080809087872181 8.043334906510285
B 6.528522229317538 7.147940891025293 8.118150748015326
B 8.3178434414174 10.734721811329715 9.522572625551968
B 8.650498407693787 11.843525403619156 11.102137120191731
B 4.998695003966192 7.365969761064917 7.312229404201313
B 6.190513362922256 7.207688464547235 6.34992144577225
B 5.738114997261782 8.6528643144091 7.666197754006051
B 7.808635829102865 7.3553221771129005 6.452262631022721
B 7.34827365224185 8.838542927223452 7.93273891466099
B 7.344457636255805 11.039043234985318 10.83890209117989
B 8.340024627709735 9.875709553961274 11.24868686990117
