24
Energy = -141.74066667 eV
B 6.506231700500715 9.639891 8.911278317872478
B 12.773550299499286 9.639891 8.911278317872478
B 9.639891 12.768652852505438 8.911140269652492
B 9.639891 6.511129147494561 8.911140269652492
B 6.930384231658666 11.20422208701689 8.91108520283822
B 11.853774459567425 7.425315127242559 10.368584294203252
B 11.853774459567425 11.854466872757444 10.368584294203252
B 7.4260075404325745 7.425315127242559 10.368584294203252
B 8.073105263177075 12.353648226555972 8.911241512715987
B 10.450879977113033 6.615558276996918 10.368614235740267
B 6.615287652294233 8.829864370885847 10.368611460739995
B 12.349397768341333 11.20422208701689 8.91108520283822
B 10.450879977113033 12.664223723003081 10.368614235740267
B 8.073105263177075 6.926133773444032 8.911241512715987
B 6.615287652294233 10.449917629114156 10.368611460739995
B 12.349397768341333 8.075559912983108 8.91108520283822
B 6.930384231658666 8.075559912983108 8.91108520283822
B 12.664494347705764 10.449917629114156 10.368611460739995
B 11.206676736822926 12.353648226555972 8.911241512715987
B 8.828902022886966 12.664223723003081 10.368614235740267
B 7.4260075404325745 11.854466872757444 10.368584294203252
B 8.828902022886966 6.615558276996918 10.368614235740267
B 11.206676736822926 6.926133773444032 8.911241512715987
B 12.664494347705764 8.829864370885847 10.368611460739995
