24
Energy = -140.03277836 eV
B 12.77751889459312 12.517016702181254 6.574243094554604
B 11.278048002156861 12.943170185593834 6.667039907072534
B 13.31466703618506 11.294040214888744 7.407539876893863
B 10.218557570693289 12.434796522561664 7.77081067680699
B 11.948492275001584 12.117870721553864 7.966532128040876
B 12.635969318285431 10.635258474404512 8.751405689196277
B 10.862580283738799 11.168095349574234 8.776998310400868
B 9.225924583866217 11.701001318306044 8.835923882418932
B 11.38961716201554 9.637333622680345 9.43436132757833
B 9.76144229260638 10.31248645095344 9.61829767672431
B 12.859586521856436 10.226110396690757 10.38950489344186
B 8.292705588412872 11.059076325586158 10.023945026236325
B 12.89552126352338 9.863561736697173 11.929704538168984
B 11.621855213724377 9.302695961560898 11.099683415181152
B 10.221247033580724 8.813122118066186 10.254446708988946
B 7.474786268161408 10.576952189229711 11.292241940943574
B 11.657132517174993 9.39214836402368 12.797582403614854
B 8.872841033954344 9.632928410177426 10.897651884463816
B 10.138877297623155 8.88462829120432 11.922299134914274
B 6.940550196984229 10.121549495699218 12.689785687008806
B 8.644960468055167 9.507872879715157 12.688374878214338
B 10.268602707174917 8.987486976962007 13.575289558209107
B 7.497298221816147 9.504276231761072 13.979981746845922
B 8.923490483204743 9.088793294317778 14.378627848470364
