24
Energy = -136.41195044 eV
B 7.048948261953234 10.993085373729356 8.837126862741197
B 6.498279809815592 10.303303900510759 11.060404215967624
B 8.449423505895137 9.80544730197888 8.72184286508673
B 6.320819594622396 11.516305898954483 10.112199071738923
B 7.678763031069086 9.31663570849532 11.62978191367569
B 7.1884172771314505 8.839074772967892 9.945752794384372
B 8.07640293102155 7.794636689930916 10.864091209127997
B 6.7990227086893436 9.324436714888193 8.313990810919387
B 5.899098935001017 9.972919291588308 9.499289604658845
B 9.656200029955968 7.610160926200293 10.669591135260916
B 10.524407237666319 8.066318492181955 12.207894495753534
B 11.372827264319698 7.49798016539352 11.016592146426396
B 12.384136620064961 8.127084046326308 9.978071368157408
B 7.7539720708382704 9.552753372100357 7.036569526085222
B 9.55260467130795 9.834910682820881 7.366106404388197
B 9.087470881577195 9.356485970063154 10.292932553748875
B 13.237865413549665 8.862194794278995 8.855795034158835
B 10.673978602282991 8.835844061435452 10.066394702485198
B 9.049832120448295 8.701921210321721 12.092007532901317
B 8.731098487261296 10.049530968701756 5.882239058188305
B 10.22841439703831 10.258943593380904 5.920345692035832
B 11.579711128596697 9.273774210911746 8.684735711515778
B 11.294099366081788 9.8716553512687 7.041686389835429
B 12.765339831060894 9.532648380381987 7.586403234203991
