25
Energy = -143.11006926 eV
B 9.017801283721345 12.761958938575704 10.548442190765615
B 10.563392176146532 13.356133235594069 10.629076186743452
B 13.211970310580991 11.480152543245497 10.491778789668901
B 9.361931701921755 11.037514824320416 9.876885315225154
B 11.57129733044327 9.524143965804642 8.728462847259504
B 10.902419568983799 11.020391203053917 8.18765395546405
B 12.4679166634137 9.323795535658082 12.316135903834786
B 12.047092454635333 11.159442002951684 11.923719278733389
B 12.307310744725779 10.961154454172394 9.129181179999588
B 10.577612906680306 10.583262310930834 11.017596383518349
B 10.740747932075227 12.040324343987248 9.487910342343918
B 9.167017982822886 11.356195376589069 11.871840865428272
B 10.664568812420558 8.827357864478488 10.91963653964785
B 11.993435401826071 12.6588260237364 10.732711477337856
B 10.86416542650456 9.073255435301233 12.707798303853824
B 9.396702451476589 9.551154124558206 12.192090047200843
B 8.129394786779024 10.045525043555552 11.041155306500382
B 7.894962572602391 11.66842446613919 10.799153430005527
B 12.06389327183319 9.853122065162317 10.540693150527389
B 10.475856579284239 10.842995257309319 12.797576166921301
B 10.472741730882753 8.432924409377248 9.311933929142361
B 10.752628300514488 12.250461257347913 11.972056971641091
B 13.482347404757508 10.2756292704303 11.603591837414012
B 9.11032779380951 9.286477157614906 9.847400139542666
B 9.896190338012257 9.763104816961224 8.459245388135027
