25
Energy = -137.94706297 eV
B 5.891683039301246 9.30718009713096 4.802636106169259
B 7.305410621294406 9.882862777659938 4.604840386401994
B 9.284244645127144 6.681587639728855 6.545009083723583
B 6.226400789212008 8.332559867524761 6.140988978986545
B 7.716351553662235 7.031129094574824 6.570761172416673
B 4.748412352588148 9.405486990141817 5.962116041154424
B 9.101685423297232 10.028731208901917 7.070832219908466
B 8.326649528440061 10.246323340857899 5.741324405585961
B 9.94071281006322 5.4080142961157245 7.312484222811596
B 9.441797585983563 8.311593508430317 6.841920609856568
B 4.057951634163456 9.495160419569928 7.3492774544255415
B 6.495416366678304 7.4460609053284506 7.5921559527683975
B 5.136523118576292 8.440174847260417 7.4699832114101765
B 9.67430376805962 4.5572712807324836 8.579199687364843
B 10.13621354074382 9.335345158262086 8.036614583924962
B 7.200012957795894 8.34070860115318 9.07457047014899
B 6.328428442308497 6.827623246972891 9.100225321032458
B 9.789852821163267 7.873210803944002 8.546215492263967
B 8.491638351344832 9.074909901594962 8.438349914420748
B 10.00430732616346 6.220180568438101 8.880499565773803
B 7.623490704072529 6.218995428172755 10.072362463006288
B 8.924044644338348 5.261123631351046 9.778611614584744
B 6.63554121948287 7.544835136159096 10.506659917851174
B 8.151590160687881 7.782736631651138 10.787287496241607
B 9.351768802878475 6.930626825768739 10.179505835192844
