25
Energy = -140.80955245 eV
B 7.6403388294306245 8.992378334418571 7.1701090008206085
B 9.230548055318987 8.321150690145679 7.487000969454478
B 10.590052261775174 9.501696294908253 7.735895430207762
B 8.986038102935893 10.104783255169583 7.231105570271547
B 7.449189746409921 10.623593698139983 7.505228150024664
B 8.49310327952281 6.199769304110247 7.506293571372014
B 10.379367386441404 11.135285019383929 7.477445839894739
B 7.933663032247416 7.493222066113533 6.897097014717254
B 6.478593196450816 10.044662443483682 8.594809134333753
B 9.944366269322696 12.107184753555897 8.708045753330651
B 10.757931147815796 8.009350181595703 8.390033941327621
B 10.021522594839201 6.667154935054792 8.891565253357458
B 8.28660066826743 10.769841709907691 8.965848345193958
B 9.026296490968738 5.274797113478443 8.721749413586151
B 9.572748338293549 5.400180476721056 10.105793642072548
B 9.541066198768752 11.419857367315535 10.027928359697002
B 5.862190209401891 9.36344533020164 9.885189140434484
B 10.962813158189926 10.77194311607812 9.034161935221533
B 7.512525701898897 9.504630010264172 9.946910122271525
B 9.801464356251829 8.252653161652638 10.01335732124409
B 6.612070507101618 8.559971710761753 10.962203845015665
B 9.13949769388718 6.837741777991577 10.49251669954885
B 10.99160959168399 9.230521871308195 9.55726865534224
B 9.208959558769717 9.8653270078783 10.337178329129417
B 8.13794706954566 8.109361815900566 10.915768007669728
