25
Energy = -125.61545285 eV
B 9.840146704401134 8.055009361415438 9.659210802628374
B 9.371457472271253 9.261654150100398 5.165822668343554
B 7.415364989113632 7.608350411583816 8.034422421320166
B 6.984777155206867 8.86453136365895 6.848182252581112
B 8.084227476502985 8.158411066610158 10.414441719102673
B 8.69396391077013 9.954018385877465 6.681402129808731
B 6.81173427944529 6.19022388094524 6.812084258382275
B 7.106739092394315 10.563366907122827 7.11715582797232
B 5.774908476917751 7.568119934218331 8.92402965071514
B 8.892893813699256 6.608373627343383 9.630161304131255
B 9.763989623714918 10.341119536655343 8.034422421320166
B 5.774908476917751 7.568119934218331 7.144815191924894
B 7.661958991070489 6.435173196077498 5.254288980794272
B 9.371457472271253 9.261654150100398 10.903022174296481
B 7.661958991070489 6.435173196077498 10.814555861845763
B 7.106739092394315 10.563366907122827 8.951689014668013
B 7.025506918907021 4.881564409819152 8.034422421320166
B 9.840146704401134 8.055009361415438 6.409634040011809
B 9.837159616659722 8.680385237414805 8.034422421320166
B 8.69396391077013 9.954018385877465 9.387442712831303
B 8.892893813699256 6.608373627343383 6.438683538508928
B 6.984777155206867 8.86453136365895 9.220662590059073
B 6.81173427944529 6.19022388094524 9.256760584258053
B 8.084227476502985 8.158411066610158 5.654403123537362
B 8.373181952105258 6.030605252214316 8.034422421320166
