25
Energy = -114.51555259 eV
B 7.432491429052571 7.401806825300156 4.533750036116476
B 7.998315961903527 8.95478703713379 4.145925501525483
B 5.78493270424121 7.5191958340843845 4.833686005548826
B 9.34720189453021 6.2301965779476705 5.451997275750031
B 10.442632576614423 8.617577592201425 5.023110326393858
B 7.978609004002666 6.553967218360603 6.348572248947927
B 9.025625665358032 9.44960985279586 5.355940019595399
B 10.357770552215692 7.3723758766174745 6.153821187416949
B 5.615473115254077 7.495788989862711 6.504551627075876
B 7.292486545336214 9.467722359783536 6.90027501466988
B 5.656675548450155 9.143928098107791 6.848068787756172
B 8.475803988939644 5.58604224075549 7.707679850073473
B 10.065340163493769 8.6304929714228 8.482039924519487
B 7.687879166351243 9.867006516170646 8.486762229392143
B 10.108878150155945 5.976818112043376 7.814750935855924
B 4.271563802651185 6.7793989508034755 8.14806820792988
B 10.368574405004653 7.105729639715125 9.039562550384002
B 8.484920599725147 8.590179779720781 9.223091470436964
B 7.641316509008608 6.748827036515604 9.151726507441614
B 4.369576984331542 5.299610885746869 8.984833815077451
B 7.034870047444281 5.231739435821881 9.720880493114127
B 5.828593088010708 8.587415796522873 9.223704129049153
B 4.30114722175651 7.911559456046164 9.37021419941179
B 5.48533169692679 5.6034061353173685 10.177037458803603
B 6.858608689529561 7.7894362914904995 10.284569708002028
