25
Energy = -144.53244569 eV
B 5.800054370813818 6.007462777049548 5.360014205129562
B 6.559706292555393 7.322030941111793 9.551948189689039
B 7.31060446570374 4.85135894855936 8.049877346083177
B 9.049307311441082 5.842638877792605 5.853930368511587
B 5.018166454291349 7.4331467596046705 5.45862963855037
B 8.683805589409962 4.868623387323214 8.940709354340997
B 5.327426714407121 6.570551109919429 6.984835743071346
B 8.75926726043436 7.356038137518652 5.422085653299265
B 7.737712526664423 8.618821705847987 5.217559197471158
B 4.689557637138498 8.184772725769614 6.8665134566507735
B 6.3447029736312475 5.226691692716814 6.80358189870594
B 5.97445408333514 9.210910191553763 7.412233225037098
B 9.16764462611968 5.349145336898679 7.443782896286167
B 6.149418817305123 8.71946739660109 5.69554813822767
B 6.771947935840614 8.855422300094059 9.047535147531088
B 8.061132752844225 7.849425081946413 8.453223586552125
B 9.0551199195864 6.4846170948005035 8.710470566469393
B 6.766013657540804 6.539713520752457 7.973153438091157
B 7.277094828187864 9.69459277751189 6.384127474403584
B 6.670912766462865 7.368728791954767 4.888976081719019
B 8.679103192437434 7.010549338539124 7.122839813299581
B 7.432431295338717 5.8387976350510025 5.433156924775278
B 7.503869530308884 5.955161333840167 9.459903249225375
B 7.542430942746964 9.663384801728615 7.958073348205995
B 5.451590271443086 7.672805690746889 8.275564913213135
