25
Energy = -145.9202652 eV
B 8.52398057454952 7.542479086459363 11.00623136922135
B 9.946117777051427 7.860375397201166 10.43434957869611
B 11.394819360884357 8.289201128835398 9.906660068352886
B 12.86825829975076 8.537625648215187 9.284092599630778
B 14.303888893804826 8.98487706176779 8.696593097545206
B 7.419190768204859 8.239800987304047 11.79388789630515
B 8.878144159679055 9.18568727610836 11.289085155028483
B 10.419807225143957 9.563999275191605 10.575646604431503
B 11.96635050306999 9.867469245336876 10.072838158184364
B 13.467907480519564 10.186465363645816 9.422242543439767
B 14.900600239250215 10.437899174010198 8.694653360429314
B 6.669226299543067 9.384279946056202 12.559552496838966
B 11.044516020804895 11.157792193275387 10.689998104696143
B 8.038106813121136 10.652026490475553 12.054637996317137
B 14.160525203414524 11.758038584565467 9.268600070252903
B 6.566044093119138 10.856322360765267 12.97003204319887
B 9.511506325815851 10.778171695737738 11.285893172734292
B 12.576497608019888 11.456636742910577 10.066222523912149
B 7.366235546406174 12.113830636811727 12.636390598275554
B 11.563978873474637 12.764726512937484 10.461370465499344
B 8.73128039443786 12.253896718144688 11.812908399782195
B 13.271094300792255 13.0333583704651 9.730280320580098
B 9.885991194390241 13.231625401653208 11.18820362747251
B 12.317186550698105 14.246245006697768 10.097631656991812
B 10.88780567235234 14.29622987372637 10.681058270481307
