26
Energy = -150.36401528 eV
B 7.853030388718695 5.929990266413381 5.5339759026915605
B 5.746632235244281 6.275408237570512 9.338312181074498
B 5.273585326209477 7.931485778679972 5.222343560588055
B 6.620584362784352 5.147836436329543 8.56579862735088
B 7.540865400852866 6.477710973059641 9.385240114895577
B 5.3683929652964695 6.211450241116194 7.569423953958682
B 5.961135667465748 7.781542319744157 7.067750617646624
B 7.601831281955851 4.805320083890793 6.9180100513989435
B 8.355609146223964 8.68435829002314 6.840014399668619
B 5.627011578655332 8.95916052674494 8.459195168066366
B 5.991574618726841 4.386082776387546 7.199576800825692
B 9.2233340845038 7.188587396151316 6.376443824531418
B 7.722275752091032 7.324835606719711 7.719543788092655
B 9.026925193337867 5.604465700378432 6.781603092388999
B 4.967091531018983 7.560019611838178 8.806197018750028
B 6.579579087193739 8.716332229923669 4.924556021582014
B 6.594828729694392 6.774411942797008 4.921108006669806
B 8.075921875038746 7.561393299225712 4.999021227986716
B 9.372209606109926 8.521980189969364 5.458659156834931
B 6.311194881148712 5.285846879079826 5.736125678074175
B 8.066377215270602 9.297860679838037 5.1308063621786815
B 7.114561944794387 8.962055532591348 7.899092730441594
B 4.878547750510598 6.483408013982888 5.709303689562025
B 6.658161523312942 7.8438481978890895 9.2725665134825
B 4.760947087787093 5.094448028808467 6.430338491127921
B 8.295093145996153 5.706962196896688 8.247030340584454
