26
Energy = -145.34072384 eV
B 9.65373767789472 8.743809761499639 9.757547210546363
B 10.092821442191013 7.507118693547596 11.244806769877183
B 10.271165478037966 6.415086247741837 9.877479239018905
B 9.087755294896075 6.184860803121045 11.075852695392246
B 8.18122949682445 6.491993571298709 9.619537840764599
B 9.41052586897048 6.134069480357072 8.438493767249248
B 10.435237231375035 7.4539856139485545 8.469282246467372
B 11.377336399614617 8.744832056425171 8.46532705910968
B 11.734546426115203 9.48180675155037 9.999078199956905
B 11.13275667952971 10.4232864699492 11.395731498205114
B 11.823120761566443 11.148915884467916 9.976745102976858
B 11.49080605604006 10.367855297733302 8.459532625292278
B 10.005813579609395 10.497727672366688 9.763112791908123
B 8.797710663775316 11.793148877306852 9.589481080783228
B 9.791489347485603 13.012650295614613 8.679532879486414
B 9.545356123155925 13.051489354681959 10.668889420296336
B 6.839975924339738 12.8896674035621 9.327575630081895
B 8.809338416901632 13.957669034314307 9.54961731113489
B 7.845338752500482 12.881055894975175 10.539423364155581
B 8.109524530809693 12.839954771533597 8.397527825040196
B 10.727208216112668 11.937678984306913 10.954073789029982
B 11.003069487985368 11.895294900260627 8.734578718450061
B 11.01439045073892 8.80219504754723 11.426907338609027
B 9.141399372292083 5.1831944045248814 9.76182254141419
B 8.685995749793998 7.7890266046707515 8.668357568235438
B 8.446930568185534 7.826206376747834 10.614265740572026
