26
Energy = -149.70049232 eV
B 6.5305360963788255 5.1930620930865485 6.131039805088583
B 6.140844191111397 7.913562979594303 4.45350669032846
B 6.676516521146648 6.47405353943604 5.143177800643204
B 7.734962111448758 8.698525447167851 9.10832046676911
B 7.871863577593172 7.5868819142672095 6.274557708448638
B 5.2810442697487066 6.672363614224731 8.37390629422807
B 5.357436310350163 9.099815277136962 6.079829377028881
B 4.954744841122542 8.020258031784135 9.250234419000822
B 7.066795866004631 8.621609009350832 7.367761619553543
B 7.11800669869859 9.02561807538533 5.573290219706208
B 7.9230819268714425 7.812629801057086 4.6214554548564
B 8.615006509158292 7.855069057210876 8.028783516441894
B 9.383377584806789 6.883588519431404 6.979908378883682
B 9.755143324147102 5.664260798104412 5.893622597547561
B 6.397289656768711 7.413622449400329 9.69248266617745
B 6.9041155214020185 6.013026037027565 8.738309251620818
B 7.54867282653357 5.055534961850763 7.5009374110524485
B 5.718845008912898 9.42390629575649 4.604843257186626
B 7.997775661401343 7.011476134777315 9.629628885408907
B 5.341803076571387 8.312791000718134 7.553278316582761
B 6.165803264658073 6.902339443064864 6.785328035930578
B 6.179852218465314 9.020944785329627 8.9527284527064
B 9.273749722866073 5.142978290626058 7.300957471633953
B 8.672208959829002 5.949720283778246 8.573367745350625
B 5.8240197955925 5.307395702971755 7.608874425089758
B 9.123042119350485 6.883438913312199 5.112529310453975
