26
Energy = -145.03670889 eV
B 6.112953225781977 9.089318587140202 8.742767385958295
B 8.341061668797025 10.033025347184697 7.183934875964535
B 9.969537943197947 8.129800917072403 9.923187766080403
B 7.437144806660761 5.7255793205200325 8.381489365379451
B 5.539395537639589 5.669694418754437 4.646505692987121
B 10.217171592240378 9.442382859337389 8.97606160165686
B 7.756537666574949 6.03183600090702 6.641790476211425
B 6.622625415448467 9.371410567230972 7.228905804296541
B 6.776889383551417 7.493731775343249 8.630718268026879
B 9.981128462750963 6.615880809595545 9.484718413659015
B 6.416016204055979 8.22944695684912 5.9646455464944
B 9.064959856973733 10.487649714429585 8.542033407929114
B 7.272257941620548 8.678480514686921 9.765308468332632
B 8.847883447868492 5.62046519100381 9.104451186630506
B 8.720788793409413 7.90051284610267 7.120595507720674
B 10.5726445616919 7.8821462295387095 8.320387307455807
B 5.107415690172542 4.428336877908198 3.77570978530604
B 6.093111246135267 6.62351296190377 5.845123170270524
B 7.87940477514823 7.4454567786023915 5.512030035362141
B 8.502640867726159 7.364283486019332 8.84929700040868
B 6.262716497743087 6.262693448273858 7.474655541186759
B 10.326590146180664 7.103807084373909 6.952651322527856
B 8.78077707788713 9.37244265043884 9.827869635137654
B 7.843346741181025 9.071116239913202 6.051485709843897
B 7.4846521896966625 10.047817352280504 8.720026449549541
B 9.168222505644323 6.565029145426719 5.975619640795015
