26
Energy = -188.18127772 eV
B 8.38058994203475 9.582973830490621 10.797661220766054
B 5.933016092726129 8.269889799683964 10.784304285156209
B 8.435711221555193 6.4750122702822726 10.721385720260756
B 4.037351367996626 8.20647183556445 8.526120373512441
B 9.187257213156354 10.624477920754437 8.262595933636657
B 5.5656360870271895 5.687427752315519 9.516822115802132
B 7.528516357661598 10.396232757649448 5.866198739056439
B 7.7593952679219385 8.002998045494252 8.447275671355516
B 6.1892532981509625 10.531027719514757 8.792519714727415
B 10.548268180979155 8.283678939971159 9.341029178152176
B 10.260328543705356 5.758584267346331 8.09917531756575
B 8.195086938990485 4.039154111013173 9.243384496131426
B 4.51793135834734 10.454466190004482 6.435867452680039
B 5.938218156685311 3.2784912915012234 7.88209345646451
B 9.932411877117955 8.422422038766168 6.352074016502773
B 5.95640664271209 7.93609738095029 6.33349728108729
B 4.069951148687876 5.49359102492983 6.8953854988968954
B 3.2135975915424786 8.041236819248322 5.546808213177415
B 5.395077430521798 9.311622324862242 3.9086671063588065
B 7.446325307027474 5.611346822830688 6.737007127183596
B 10.043307042260086 5.7759218071868785 5.181209081727402
B 8.029757973790913 7.845017390546523 4.064476332980419
B 5.215585936108726 6.304810120055012 3.9869123686605863
B 8.618366835468365 3.245050556977385 6.289451970045228
B 7.8199681622200075 4.889876306848684 3.788900561846797
B 5.728114041345889 3.6174442186116065 5.147525772315035
