27
Energy = -158.04325387 eV
B 10.01723958216783 6.977338238277936 12.889750681326568
B 10.053933594450317 8.460199244848415 13.48242194722507
B 9.630804289843411 6.692212044378292 11.379987648236213
B 10.549542348528407 10.049659869592174 13.694886892400728
B 9.871011752714304 6.721625947999978 9.699672701533242
B 9.162138984501585 8.15275922570649 12.06828242571883
B 11.357093533543637 11.436195237014237 13.76614236891355
B 10.430253677165814 6.951209697456458 8.251298346200176
B 9.522521617033307 9.67813225195914 12.47905237444999
B 9.068261919257198 7.9775246670940225 10.455638490168003
B 12.083096753532658 12.83813072454906 13.723557618203651
B 10.369817530052982 11.019848566099506 12.284204843455397
B 9.631062516265896 8.262837167859786 8.989949665613777
B 10.37594964201188 8.280112868198897 7.386042717694723
B 11.525033807055964 12.243008054571016 12.254019933515815
B 12.141095398525923 13.904544180355423 12.521978724759615
B 10.187205219628641 9.780379937802394 8.404701352105196
B 10.70984417170862 11.81612690118449 10.823637700388327
B 10.558568208449053 11.258157238553029 9.136050718252042
B 11.376671044891129 13.381926574122952 11.027985563829382
B 10.340268926107868 9.699018625697953 6.699434978019062
B 12.135259017060614 14.847526111103072 11.240536958612184
B 10.33380008446117 11.115366234875273 7.365787521835679
B 10.7080586429699 12.914502752811917 9.56429504457346
B 11.621975396306782 14.562461677286667 9.77001410459692
B 10.668876460909587 12.59559691678844 7.910633579007102
B 11.186777092313 13.999760255270012 8.346196310822624
