27
Energy = -194.09286765 eV
B 13.039280360366407 6.8057145098024465 9.84308337493694
B 10.702047632018179 6.176385381098017 11.56679819035595
B 8.109413149751749 7.242752471765248 10.548687278687895
B 10.150142565177918 5.7051935159193645 9.038773465904528
B 12.311525870221596 8.26283483939797 12.348218360566163
B 13.530881962297856 8.691545526922198 7.753983598889968
B 13.460395880365226 10.080100594109041 10.472645440088343
B 11.671607546415741 6.781654973479625 7.099520410891359
B 12.574446188048922 11.194240728315142 7.913556094141957
B 9.487487364833115 8.463544257526067 13.05594111805145
B 11.580653783667366 10.99934927909907 12.850159431481725
B 10.926074755460869 9.394766318454563 6.276805367315397
B 9.864838155864286 13.297730740747266 12.40752152521855
B 10.911233234748485 8.78040911133876 9.472318105044412
B 11.453479962212922 12.556807121952057 10.084661938256904
B 8.700230982478319 11.083775219590018 14.053066331306981
B 8.7023481550717 7.4093831187723 7.049761285625681
B 8.22104179846665 9.797935618486317 8.730677117985744
B 9.250605979375289 10.75718362096712 11.154737994801417
B 8.494359799183044 13.34600826585642 9.703519332112695
B 9.953512540985468 12.049255230994724 7.406029284884389
B 6.778553885234464 9.68983584640628 12.269140930473043
B 6.907724882450412 12.035074904751372 7.391451664674236
B 7.110690508961289 12.63785186970006 12.26090143087247
B 5.998791698664782 11.498520123507285 9.95360682638786
B 8.18713809017374 10.162300734703711 5.82896068557636
B 6.020214471564131 9.198567280397404 7.564194619527078
