27
Energy = -189.48561813 eV
B 7.6127486028453095 8.04412705360611 9.951208871336764
B 9.715926007982835 6.014471224082702 6.117057544815922
B 7.545999836108382 7.657846904071125 6.538515702298967
B 4.933799866272278 8.72370664309594 6.290087500660198
B 5.838718440194452 11.268748191724667 6.4827860752524336
B 8.377125763078572 12.673844537604323 6.655049810748243
B 8.103420109788651 10.227222909390314 8.008462843209672
B 10.481536571297397 9.069358863557468 6.195063096000447
B 9.995828646327539 7.733923898062771 8.693369825861526
B 12.291208108172654 6.788358025738725 7.128583937206474
B 5.771026063812363 6.579259682208074 10.77381944608506
B 6.440530896809414 10.313873949824286 11.419203513671015
B 7.73539393694959 5.242380406369182 8.505559481060805
B 5.254966834683464 6.619693792846866 8.061237256164011
B 5.078749394033999 9.5386517618627 8.983114424706963
B 6.384406134964746 12.43654588339971 9.06403343568763
B 9.345413761378945 13.175563204455896 9.289189875088372
B 10.96790591159413 11.36411450097871 8.007259081795274
B 12.676015128588208 9.094325111523075 8.901716381705764
B 11.011459859070408 8.411397851325306 11.639805454593919
B 9.34784022884373 5.72957576188974 10.953729995511274
B 10.615591918824922 4.7535316141122355 8.464190772760977
B 7.777524574845059 12.731230649890634 11.515235015043876
B 9.375550280061072 10.469746169238364 10.6698603936959
B 12.129174990571311 11.117919840767224 10.938547031065932
B 13.779014299772216 8.76072169983196 11.506620302973046
B 12.317563054585614 6.364299089999034 10.151132152456654
