28
Energy = -164.66279362 Dir = /p/work1/plile1/GA_structures/B/28/all_candidates/467/
B 12.235362295923245 7.251914171149895 8.546488036658072
B 12.333047291449239 8.830943195930805 8.697884547714583
B 10.951311306630473 6.35514618584527 8.925975829753204
B 11.051853565660053 8.042132681741045 9.370097257282913
B 11.136575081793275 9.778091464605694 9.20709009140552
B 9.397441414257928 5.861435946662141 8.873023381643433
B 9.767694145255462 7.151231247961916 9.966011057091961
B 9.859055921620879 8.954785631857842 10.121860330408678
B 9.622436939158014 10.377894804626695 9.13280465536523
B 6.743123090632889 6.063424346054822 7.297198015828896
B 5.780049904547496 6.513503326405119 6.089916525025019
B 7.813323140782803 5.635821642876691 8.456793271139304
B 8.167487018577152 6.734971840435489 9.68493254058463
B 5.172999109237502 7.118033114662505 4.783526784135445
B 8.54452397206406 8.065795843670859 10.718691515766478
B 4.9478554364377265 8.549329101474823 4.2842657459809805
B 6.760305106610714 6.889112442983339 8.780592883775087
B 5.737891611669371 7.469698754851436 7.46823991007772
B 7.095678701421141 8.178093731423594 9.942434283301841
B 5.281820446276619 9.901499280853182 4.919013933713261
B 8.30354335597104 9.511349818917036 9.799630677173521
B 5.818070301007398 8.278960577552207 8.975845386032733
B 8.080743936383598 10.747587809329747 8.670695594451368
B 6.905043689492768 9.5745192022472 8.887362376422386
B 5.5140119171131845 8.445119279431747 5.938997920130656
B 5.926935593661349 10.316311254349099 6.282671422503505
B 6.958779825685779 10.54366167742757 7.497240815431149
B 5.812121456761541 9.231131878958086 7.557744383667172
