29
Energy = -168.67749924 eV
B 11.081794760094613 7.849810324633564 7.225921141980973
B 8.201350430036634 5.961236844150711 9.251616143891814
B 10.534849756064444 8.012533060561594 5.7771628733546905
B 7.401477724186697 7.070969596485591 8.08604093847224
B 7.460128100034682 10.12288012466353 8.705018969384044
B 6.773368724346493 5.7530711699336745 6.838276848085563
B 9.165780831629464 7.36977556677075 9.662830537166673
B 6.819328664601024 8.710011460758677 7.765558178768847
B 7.423589097867364 8.111125588206319 5.099766593877571
B 4.8951355907292555 6.826345803679346 9.40399306725114
B 8.475776909198672 5.7583309840814 7.524111038551061
B 7.590507136004272 7.616225192010562 9.893271536712312
B 6.353787068669737 6.96883323873242 5.592042073380844
B 9.624416001454106 6.8399760855584555 6.70436387275057
B 6.252124791954764 8.808224692814832 5.94554199639733
B 5.918187034385687 7.8760560523719345 10.134274908926319
B 9.027520288079764 7.992328665812798 5.382017812129415
B 9.68345997126377 8.918453654815771 7.101877052059278
B 5.137207880729291 8.439360008500998 8.68608689773877
B 4.349723629244378 7.0809229621905745 7.878272360141193
B 5.154513768788348 6.496755570365091 6.581385623972389
B 7.94353639083016 6.862503057545966 6.280703567846182
B 8.506933150637163 8.633653380233953 8.638469853863764
B 10.183970057060264 7.811564728647462 8.51171590069655
B 8.530037215920768 9.99151404469703 7.596717341826758
B 5.1495066062979875 8.336056118139766 6.974101132412915
B 6.55898483233437 6.252540679721749 9.567891379858287
B 6.212260940660982 9.428463855340206 9.448826824816202
B 5.755917451793634 6.054491152794268 8.114005581959058
