29
Energy = -210.73915549 eV
B 4.37868789449965 5.410827850151154 9.903099478749777
B 7.651119372363992 6.94351819947027 6.1206212004171645
B 11.281173581420118 8.24566341664701 9.790267829328629
B 7.751271688678351 10.200162114239545 5.8984390509081965
B 4.029742263007866 8.124264713176698 10.095210538822162
B 5.62033434007358 4.385957447786638 7.403720164528184
B 5.0589223982607825 8.780059999649907 5.363018141595629
B 8.161551894550797 5.987100174325547 3.3111714618782284
B 10.031822721975171 5.190293952518565 5.249858523374268
B 6.504237451107432 7.0516932035205135 8.722021292837846
B 9.23003534770147 6.307257533683941 10.303490916152057
B 9.889382509827193 8.094120422306181 4.665639871705289
B 6.980953221062984 4.470682366086609 10.172373745352532
B 9.394567249444787 12.029518757481371 7.800046366085203
B 4.968311602526971 9.7061606925922 7.906573290705924
B 8.390991731336463 11.750785420078685 10.613772688031482
B 8.697840201874207 4.4690585496368875 7.853035443191516
B 6.657889099643642 11.75459762477218 8.390907461930356
B 8.570634465297468 9.30898764670741 8.75045863650795
B 5.342609728433027 5.933899432910739 4.625908900216982
B 7.043560053043385 8.441186369801885 3.5903139932815824
B 6.479700837085027 7.028246772037597 11.606822478360948
B 3.891162396107131 6.822898249413294 7.281781454860703
B 10.980693613518383 9.728987164765396 7.122862635930006
B 9.02173454094121 9.023758814353757 11.652581859344993
B 10.59384242323685 6.797970726693001 7.491392614178115
B 7.475801242871274 3.9736519385694637 5.218218935226751
B 6.179584767495946 9.931913693388404 10.78765055853074
B 10.934341335329187 10.86762505356631 9.969232692767715
