29
Energy = -168.47627183 eV
B 9.568469012848789 5.613447374442488 7.53446318824182
B 7.265636670686132 7.608760233678937 8.970034609729474
B 7.879763487711168 8.168056038722376 6.835627665184524
B 8.16461417665588 6.084079187940638 8.299146633832848
B 7.6475566603662655 8.59963345685338 5.122707041449528
B 8.455601317903044 4.4787721381562795 7.37871579645374
B 9.0439342086488 7.042351930010266 7.082492888326022
B 9.167897392480809 5.757520898718138 5.920582105567061
B 7.297468249242006 9.706837884406886 6.347250717699534
B 8.387599984917495 5.405700154664599 4.547935872433133
B 6.144587651078877 7.40119359025574 7.595332545662473
B 6.558066437184911 6.178791137783064 8.862712895070842
B 6.8347957609534555 8.920394889189255 8.05749667734097
B 8.169545148256327 7.017829411908889 4.957496417805212
B 5.8779306468925405 9.998388230495175 6.962243513557096
B 7.624812031183084 4.385244998371962 5.5488966144308485
B 6.760626600839163 4.824364727161094 7.961559870665295
B 6.056185032344484 9.09017928810722 5.286735392423488
B 6.88877740307483 5.828332046798445 5.127994281915491
B 7.181280725456311 3.6117823057410656 6.925081767835645
B 6.466046345444747 7.326099886105982 5.8236444317471685
B 4.145231459214739 7.586943330570741 7.576630956588917
B 5.0609876570811645 8.897709692058415 7.788075687042226
B 5.34975353751057 5.833610490723179 7.628729080513028
B 5.984863792739305 4.677328940379019 6.238870723227891
B 3.679257767867076 6.067304363019305 7.398158311811982
B 4.061066205433563 6.813337819052678 5.932621540884765
B 4.857323584631785 8.054621031827956 5.372760254219161
B 4.394433226929652 5.159801740090153 6.307063043668172
