30
Energy = -214.80875456 eV
B 12.338771584256161 9.275932273903084 6.0734632028852475
B 9.386861912579024 8.912790971695198 6.133181390280499
B 11.014500146024735 9.659208105579753 8.390140982606036
B 11.259417388501783 6.586546333558737 7.158162422144316
B 13.236380591601318 10.183643224589993 10.544301245548393
B 13.4189461302785 7.878317395670677 8.880521726056816
B 10.544874882402832 11.636397983713373 6.1197092474552015
B 12.396023068398922 5.443780281030752 9.84382026554203
B 12.74994695298555 11.968302125878784 7.9652055096151395
B 12.532700432316965 7.685660065697625 11.987877564333019
B 9.907480690491392 10.154861210616886 11.173106051567231
B 9.324652665333359 11.92336473079181 8.892207419283936
B 11.810644843256792 10.398930442023916 13.191075640478878
B 10.380340859632987 5.509664789103965 11.939582786257136
B 10.830364165159564 14.206346799232042 8.072825626423151
B 9.590664977617948 4.867486470251469 9.22352678018428
B 11.855165140056176 12.735794088566564 10.662069634646102
B 9.906179802969271 15.120629234428442 10.572992039188296
B 7.804790909798474 14.301723331870628 8.758971267599023
B 10.385484043259074 7.568776614753178 9.895544165375313
B 9.669091748029121 7.9815609611240355 13.203027219887401
B 7.788892756605786 6.803740432962376 10.852670053211313
B 8.922968861308417 10.667850769676074 14.045315630247275
B 9.239851471719017 12.844005936363924 12.103346694836038
B 7.1323683682564285 14.787114568844345 11.53092419420644
B 8.289288629563691 6.91167065031465 7.835616075297708
B 7.608048982632207 9.343688410603566 9.009608460218304
B 7.116163535813046 9.711567284646328 12.030630569695218
B 6.613697207888453 12.11993634661462 10.36968412612747
B 6.587488482609825 12.452759397240097 13.182943240149822
