30
Energy = -175.22781295 eV
B 13.740000068996391 9.591227629139858 9.643930255100116
B 12.399874523529688 8.875006133515436 10.529722167696479
B 10.970375007467881 8.504982623891294 9.743576568436303
B 11.721112477692188 11.100765005147286 9.131372010018643
B 7.61690322183054 11.117089091574506 11.142655048922114
B 8.155921722729497 9.442053677398956 10.787817902577702
B 9.124269763321003 12.423251724539439 9.104962348863625
B 13.269549491359756 11.10549828859533 12.044712589795077
B 13.313418334696319 11.203775067824361 10.181021877537832
B 7.716626307325709 10.008683661939678 12.306870842265326
B 11.228355675411397 12.806683350072415 11.113735330123646
B 8.132116588782173 12.495004682119916 10.41233938024547
B 9.178478018331889 10.594525561481928 12.966387791268279
B 11.805565877030773 11.84245749800639 12.482265462483806
B 10.486007406417013 9.494651202866317 12.79765202697351
B 9.46813420613912 8.615604839329151 10.381525406971345
B 10.027964586397372 11.113211853942024 8.64584334306311
B 13.606787924494444 9.778264154255258 11.25860604040975
B 12.913477754733403 12.510172653046629 11.302867802238824
B 11.845140061353279 9.969020666022603 11.909603830189608
B 9.006313694022943 9.019082143753465 12.224868738407913
B 10.802406573155187 12.67052914460808 9.268346093090198
B 10.378602889638222 11.270933413579815 11.594420146912656
B 10.593770952785949 10.13005411883368 10.293705162101343
B 9.080329358877288 10.988035874681602 10.212167670801955
B 12.377565848626316 12.544431848628772 9.727649403737937
B 9.662279534266153 13.037864481514141 10.692081626790266
B 10.91747467616577 9.791451102306747 8.419327364410796
B 10.581439421947689 11.186567883893694 13.386458617323537
B 12.40598981904704 9.295372983208816 8.819758651242795
