30
Energy = -176.47707484 eV
B 14.514605600876934 13.426523478352808 11.726583469487139
B 15.149701524758008 12.02364653991285 11.398985187722502
B 13.524029303738812 12.195241233211869 11.267404845458563
B 12.93011580616528 13.77411663291534 11.79235650908618
B 14.346787952565634 10.693662663596594 11.03411196463691
B 11.865661216551041 12.33447937319756 11.585815559426269
B 12.549216684606938 10.832023515294022 11.215705454781485
B 11.328237859789036 13.881833201198226 11.95057450926199
B 13.311786133888997 9.474982418948095 10.617965066356575
B 10.818759618560309 10.926369583168118 11.39187712087548
B 10.234383127491137 12.533165046233435 11.53425866193029
B 11.59866968714306 9.569495368531765 10.719613988815988
B 11.768325984046497 7.263730079484547 8.906281366802393
B 12.43848251824486 8.32484906853968 9.897106117128235
B 9.732605258814237 14.152845064338843 12.172125208217164
B 10.761557048262716 8.469178326514923 9.682134924906965
B 11.092643468889861 6.269652401428846 7.863378941038619
B 9.13461693507226 11.299849642349086 11.049921911553884
B 8.174765383074204 14.344212953937085 12.328331851726526
B 8.622997058498484 12.890120472551466 11.607366136695784
B 9.0415797662346 8.548983619565067 9.352412489312986
B 10.089134040161582 7.422202062983808 8.53422869911632
B 9.600477330002546 6.236427619997979 7.4632329793306
B 7.531911566857526 10.43698242109728 10.892119436601234
B 7.053907664945936 13.293946460374459 12.063538247324772
B 8.864919262046893 10.064377117058998 9.98657796313617
B 7.141996591834098 11.823590739651323 11.52408086064694
B 8.39419497950655 7.060124128192828 8.043936099600439
B 7.500555181544802 9.067447406764195 10.002895151286022
B 7.440526550455327 7.923092465237706 8.95223038236438
