30
Energy = -177.07896667 eV
B 10.80310237314877 6.557596978798564 12.964796708573795
B 10.75555774808294 7.079711731386091 14.457346181925246
B 11.034803805215201 7.401853063142797 11.64427100574842
B 11.01675701454865 8.59159955126071 14.935727910856162
B 11.234941143535282 8.121669185155804 13.273679422783474
B 11.149601897710081 8.518920739060391 10.489855972286971
B 11.261480098716612 10.148864812494894 15.354671245136906
B 11.486836248111842 10.866252495407474 12.357924570141984
B 11.28640505827552 9.732049402906991 13.61004333809067
B 11.451644180241612 11.696134568259334 15.648376860997516
B 11.507908401210157 10.194430585134237 10.686270304124982
B 11.423682461970767 9.214873035290063 11.999416195113996
B 11.49680374898058 11.302621142634052 14.037158166074988
B 11.124814230793433 9.41800201129509 9.152515216238358
B 11.648864070363894 12.862874568813588 14.62574448995527
B 11.701412653353424 12.51919766356002 12.822290608903492
B 11.250825991488991 10.206538257079192 7.816699929066169
B 11.801730412010299 14.043163948635504 13.53896232837571
B 11.644476661720741 11.0594997358668 9.24550760149039
B 11.988039439534607 13.850818677304472 11.865911941507445
B 12.469112055262656 13.064829974923075 7.455533090072142
B 11.857548805751307 12.721781143218129 9.030430777087956
B 12.005876294085354 15.447615069152135 12.782289322264111
B 12.077986644568806 13.954791335677939 10.153409987757097
B 11.933577710249555 15.362254721149096 11.063676611819677
B 11.815401541827725 11.655194781863889 7.566917498969032
B 12.538449824802491 14.199213232158705 8.524622757890384
B 12.26258188995253 16.758611308448092 11.93775358977254
B 12.449241730823818 16.81805848399064 10.399129460644515
B 12.414852854412725 15.525294786682611 9.45338389708181
