32
Energy = -188.20570668 Dir = /p/work1/plile1/GA_structures/B/32/all_candidates/212/
B 6.717964650365904 7.861787428396275 6.532678332738955
B 7.279074353853904 6.357021486710317 6.090940437679261
B 6.974994660023639 8.01101571926805 8.218964893297995
B 7.512921920228339 5.168882399306143 7.296596132936805
B 6.574611952874991 5.251779393150212 8.65266838290797
B 8.656520347709735 5.325892120545407 6.093968945791627
B 6.19368446574547 6.703291955942075 9.265751044952696
B 6.238537068920365 8.224853338722326 9.929924834412876
B 7.03080313444055 9.557452404929183 6.259461694507643
B 6.27300517213426 10.233438445119738 7.612793149784446
B 9.012943678470107 8.146667969371508 4.610801745273295
B 8.77197515044389 6.657939722361188 5.194254851001069
B 9.24875555423311 5.13553947164076 7.646750772709062
B 8.274286021877488 4.922147813169248 8.923875563112071
B 10.062216861316978 7.684121968329784 5.792029996750327
B 10.116818235947854 8.398611580434425 7.30248605400662
B 9.811363322888974 9.046884790557135 8.734507164969415
B 9.574965812294156 9.23126219246687 5.774923333108644
B 7.520193951391482 8.533664382520987 11.197573732277666
B 7.901591646377932 10.832720277426462 7.534441370411849
B 7.3881452001935735 7.03208293321528 10.848878067804957
B 7.3175071041734805 9.794439722605176 10.232304631647686
B 8.554159427697732 10.53548862215709 6.093397688598394
B 9.638210541336921 6.6747189518851675 7.113244247001182
B 8.12872179208344 9.49767618231463 4.949737290658931
B 8.625774209150634 10.118851422232499 9.026756359117703
B 7.370498132305688 5.5926985134843585 10.070644320271732
B 6.310392706859624 6.568830193639039 7.521397109090823
B 8.760614361481254 7.840704333628399 8.188598141453944
B 8.49585748340688 8.46360044986704 9.739640909744573
B 7.137230777225749 10.861953099383298 8.967534086084198
B 5.963211797724899 9.468395002668316 8.957334998194913
