31
Energy = -182.05677892 Dir = /p/work1/plile1/GA_structures/B/31/all_candidates/269/
B 11.438695286525078 8.991032474607195 6.171414920555291
B 10.760822309808681 7.551820217193096 6.31974732515587
B 10.632259970657273 10.342026927369636 5.888396665500561
B 9.22018137646146 10.877634751310064 6.293957000455641
B 10.333236935477416 9.25111231092153 8.754299443152076
B 9.331322796332573 10.398906724542922 7.889602131207188
B 11.3538866716038 6.760087125253122 8.006323492644693
B 11.479009248696595 8.407679030445381 7.8627173751089465
B 9.08684623675065 10.028668796935118 9.535336518469926
B 7.7514424987809605 10.56470956748944 8.758348929808337
B 9.748886780671224 9.094752453824068 6.68504957879778
B 7.752682763807503 10.929048275828112 7.020063485948092
B 9.772753115306223 7.541158733568671 8.477550164244422
B 7.717775734915899 9.362841340529192 10.114686065683934
B 10.281534280799894 5.847208282370361 8.81125551863274
B 6.4002632980734795 11.008125862983485 7.897000045534265
B 9.182507139639094 6.831243039049747 9.957648349677717
B 9.924250468422464 6.265869082410284 7.033544481003663
B 9.231072766869467 8.4294589877904 9.960386956402598
B 8.863546241033397 7.646784568886654 6.898536728700307
B 8.821825085250005 5.289346211215157 9.359557301144914
B 6.168259274070482 8.808295806153987 10.235019423988943
B 6.014153811368098 9.924615363857932 9.033391809411155
B 8.971541042851955 5.114776555501236 7.656148540603173
B 6.612903564602764 9.399655170382418 7.409668312441211
B 6.3319984192159815 7.227968667801385 9.957322643359543
B 7.235162297645041 7.865555013686164 7.202586763875471
B 7.459245947877096 6.059122033622978 9.787722323957322
B 6.22594178162961 8.153955116044521 8.531636086338931
B 6.620593395157888 6.60086747332766 8.31341988936692
B 7.508459606373388 5.200278174225435 8.313615218071801
