31
Energy = -182.18257154 Dir = /p/work1/plile1/GA_structures/B/31/all_candidates/345/
B 12.463679630593935 8.836242215232813 8.886917914662837
B 12.417341733354181 7.4297671466793505 9.73942403463578
B 12.3465443570408 10.288718238773706 8.170285339566485
B 10.960284301678902 7.942875062194082 8.933026766980717
B 12.22144123219237 6.136581876544558 10.711511842101446
B 10.91923067124218 9.541501220804971 8.485982838813367
B 10.844712975363127 6.786723668099238 10.112853192622811
B 11.003543507216424 10.993411219242354 7.735507071607987
B 9.454143586115997 8.719504074016909 8.439426549034776
B 9.422176063228061 7.252262027052731 9.357070880050191
B 10.837207093742924 5.501737407725379 11.11790613963918
B 9.536175119115677 10.368459077881925 7.91747998985788
B 9.384848312731783 5.996592032513593 10.640106768318534
B 7.9949870114119586 6.6930752280608345 10.145608091954161
B 8.041326702787764 8.174639335746672 9.2193636594878
B 8.055846649585297 9.691756097017612 8.242134481250554
B 5.001655796808322 13.656008093485488 5.479823502496007
B 6.631631096116745 7.499132764293488 9.88043930743827
B 6.13115853453628 12.690762643325403 5.846609968459762
B 6.1857930871744085 11.542199697161449 6.873550728901484
B 6.629117599513414 8.94839023362865 8.9265261401245
B 6.478756607521028 10.33214557094445 7.923511479191712
B 3.5959814504791545 13.790586363007588 6.086590235177672
B 5.201545950883552 8.292115704127614 9.816399907245493
B 4.585189518492948 12.448803300513896 6.808228861069944
B 4.935942943439617 11.121870058889824 7.941819747655685
B 5.138155154589377 9.70235657533907 8.84234580630048
B 3.8748467028521265 9.118681430090536 9.727840614580462
B 2.9027450098856304 12.98888158207205 7.207555761727128
B 3.328380663604776 11.788301846583614 8.054302628181858
B 3.6310202968125638 10.44682707182498 8.89654332337167
