31
Energy = -183.82154151 Dir = /p/work1/plile1/GA_structures/B/31/all_candidates/346/
B 14.020232117495324 9.6181362251289 8.036355851536602
B 12.880819828837728 10.580848655353057 8.634163564453411
B 14.040229804730158 8.031059255419294 8.114130516701222
B 11.52175167985888 11.303824403136788 9.23661308797029
B 12.860145009906672 8.842359956632126 8.911155055055648
B 10.037064631111072 11.971713236304057 9.422781199739923
B 11.735014680736537 9.727920085231226 9.75708354465169
B 12.91120156248827 7.100626085750376 8.810202758214102
B 10.349130032235589 10.50236087515512 10.158193326875029
B 8.719927782704653 12.81502601738442 9.136315947206151
B 11.804134622971423 7.979516458047067 9.891885542175427
B 7.3554621359426315 13.552350664694098 8.840714874748286
B 10.593100708557046 8.907754756456704 10.710270039607662
B 8.599565000554694 10.974374037550156 9.831535316189152
B 11.509115909600665 6.384895380090417 9.281980553790214
B 10.328533820600681 7.2758890874649 10.097853034809665
B 7.1926969638794915 12.023130033292782 9.44381236079182
B 5.914849745826479 13.000960286898215 9.011978524495696
B 9.09023271722211 8.202749305627743 10.809278315952515
B 10.023032804376843 5.671701961750731 9.439211992584536
B 8.030842607423486 9.382495148325392 10.261471583324264
B 6.873180104054018 10.499070112403365 9.977745833128662
B 8.798745563954819 6.625424244995302 10.22433273736239
B 5.5253417927967226 11.512835731460925 9.440163185502277
B 7.5406661474459185 7.711949312529612 10.416781507099603
B 8.488835199328207 5.234087817832826 9.370700433698262
B 6.439284794812757 8.869696154058174 9.937802058933277
B 5.133747673744759 9.933066720757857 9.614109156811878
B 7.210811450952384 6.1187249735953175 9.708313786672413
B 5.971492716321076 7.2117326426373225 9.855631798296452
B 4.891384321914539 8.364907602888573 9.648362424645839
