31
Energy = -181.96299669 Dir = /p/work1/plile1/GA_structures/B/31/all_candidates/350/
B 11.206223181381135 8.68355534301374 8.424606987415675
B 11.178958900560605 7.547081895743943 9.541648187143586
B 10.420180811725096 6.724571512949597 10.654988262365432
B 10.414555720420763 9.91307596711543 7.641465551628885
B 10.776751922385502 8.52518659582042 6.8409904929450835
B 10.71542862278656 7.158447789644228 7.765498311287526
B 9.841055816038988 6.5498288383988195 9.085574001817154
B 9.54915165336897 9.422261445566408 6.266055215674406
B 9.072985277382553 10.743106475591222 7.302315710623801
B 9.02756269334414 5.977386179262977 10.504192656995368
B 9.339551166958696 6.265604999570579 7.498130517875495
B 8.496354639696136 5.56358953879502 8.921910569714338
B 8.048472686054868 10.04946757835895 6.111442290226007
B 8.180951622975375 8.366071489801053 5.677275627098632
B 7.4687100854261885 10.966505427495772 7.60636246334032
B 8.114679466682727 6.928245570810637 6.460127911540479
B 6.803717176083392 9.193042889343827 5.367616395252787
B 7.8044555283969315 5.58599270063302 7.3023534679321935
B 7.4324160034277265 6.2485735878899575 10.149153088602462
B 6.51774154751446 6.571002598941904 7.142781255993332
B 6.520073042807519 10.466618977508311 8.907973654425572
B 6.460044431846737 10.59385756604409 6.077256096355932
B 5.754850234969397 10.724234254514244 7.495378114997617
B 6.480513687083346 7.674853707850831 10.34423741630471
B 6.816134744611701 5.614962600243205 8.601228707474021
B 6.283998855062844 9.1622927786957 9.840751663310845
B 5.507844779650444 9.229600999426479 6.486442375964185
B 5.38798310033315 7.7939621109319885 7.304007578165565
B 5.493195528897887 9.200460427537514 8.212202178996234
B 5.821987725667618 6.389185576918085 9.589988249997473
B 5.295360502976071 7.860566673066747 9.123779965916023
