31
Energy = -182.89269556 Dir = /p/work1/plile1/GA_structures/B/31/all_candidates/295/
B 8.218915261241087 5.135622511926838 10.492834244756997
B 8.938567595290111 4.911987992999747 9.082949542394207
B 9.957379381041566 5.115723930877043 7.812550731197212
B 11.078042361635287 5.730479229557665 6.905304435977918
B 7.1467847938401 6.284553688881247 10.814024343251088
B 7.6357721844378 5.961339817928805 9.19914893519253
B 8.323204428376206 5.762725857255539 7.673926213265416
B 10.98438458113598 7.062185143285507 6.052191303288475
B 9.535431667499022 6.32907080741835 6.645767933036021
B 6.403386662276723 7.733819886010407 10.929601714079192
B 6.250851784041145 6.914050142871383 9.446686404004016
B 10.731713124914243 8.616606755237084 5.694153318375589
B 6.917488349824188 6.762501213308472 7.834674385097804
B 7.993402550933129 7.039531666140463 6.4999273715544135
B 9.334694094195376 7.598214773418035 5.579697094350829
B 8.696221759132717 11.34258480582184 10.22463350831589
B 5.646144857237973 7.7685292382237 8.10686477208059
B 7.37010660202381 10.591858006576917 10.665007874971987
B 6.735533527947216 8.180695512177838 6.900322046127588
B 9.251830578683292 9.192419645915823 5.292730657901238
B 6.299641595573363 9.353709507233866 10.86922066807742
B 8.58912684215947 10.388662231014898 6.137371546922235
B 9.202150855206703 11.521752480013495 8.750511460054577
B 10.261339809929478 10.147919107847239 6.1553452481280555
B 9.6573757827134 11.200902388510807 7.227937849979542
B 7.485361284464825 11.295071795535959 9.100606136603865
B 5.657074621442976 8.525279392714184 9.578786152613894
B 7.930555123927424 11.117077736263065 7.471868902548635
B 6.1432515860652845 10.196083843487914 9.450813378190034
B 6.38942333854839 10.750238681757514 7.940601848867223
B 6.9935825555652364 9.845453410586899 6.747567032867442
