31
Energy = -183.0588066 Dir = /p/work1/plile1/GA_structures/B/31/all_candidates/202/
B 12.202126741534238 9.932618889879508 13.173219204140954
B 11.87572715271589 8.619537042716745 12.230478312986145
B 11.255151960949313 7.251058967751919 11.56826164229606
B 11.845960532980165 11.520278251706763 12.420838050515592
B 12.259469841421836 11.305195649110278 13.99914882668218
B 10.421099783791307 6.041729765369258 10.945721548984277
B 11.721472950911348 12.716889712239341 13.54119899435398
B 11.284873990919968 8.75902955079649 10.647964927136055
B 11.486695854686902 10.129201345927468 11.556657481353843
B 11.055187560043368 13.078943180098214 12.10768929891113
B 9.435434046022504 6.033383821354642 9.712121919658474
B 10.898224109547035 11.69229799271264 11.082068361316772
B 10.455038603067695 7.429490191126163 10.024648034917256
B 9.13583590174001 7.647340413520907 8.999935651472859
B 10.565189638877667 10.33776307215654 10.16765536790006
B 10.22044610013497 8.923298993809102 9.267206616007414
B 9.47961855044034 10.495145579263252 8.903231638656154
B 8.267084737004911 6.247262929917225 8.59206834512172
B 10.097150473770292 11.889655377450207 9.632880082989885
B 10.176715364657984 13.27178988018183 10.731081848697887
B 9.054714542514766 9.146463589694244 7.994223975366942
B 8.755162284687719 12.044680564256089 8.551370075396742
B 9.163762261161402 13.262835573397163 9.505046620307377
B 8.046581581158394 7.76114428353606 7.790377935412053
B 7.1107326330264105 6.338486045569589 7.452433936581837
B 8.227544564867975 10.648231869306288 7.842293884929779
B 6.682660648358786 7.940276181882632 6.852538527384656
B 6.132903396122115 6.491535838015039 6.190193755116382
B 7.709054102699987 9.394559912491493 6.8868374482603825
B 5.821301789791137 7.81815506105513 5.418629870962401
B 6.743654127537958 9.070326820426793 5.60653645443704
