31
Energy = -182.13311552 Dir = /p/work1/plile1/GA_structures/B/31/all_candidates/335/
B 10.844177470516426 7.991605567556547 8.583121553476678
B 10.711385321175062 8.661654175256569 10.203814643734988
B 10.51361985422376 7.340174898244212 6.92276166785975
B 10.508987273003227 8.452699470682443 5.788485051311429
B 10.456576026004509 6.367372589312499 8.225034524138017
B 10.412102579740006 6.968086448428518 9.816045473565028
B 11.042878626787664 9.626542430800535 8.907839121962834
B 10.05396904787131 9.947710780653436 6.047092182972242
B 10.975019572257525 9.084796675734367 7.324536432756564
B 9.964910667035213 7.759191141889258 11.226395563323056
B 9.557973094146936 5.532417743849213 9.247049950096956
B 10.516866646861443 10.68793774131046 7.783922371252961
B 9.284773973855792 11.181938663003306 6.681377230108483
B 9.157484578536668 6.413712273503635 10.927469685623363
B 9.488289975387435 11.94923599159334 8.172247200551395
B 9.122862431887768 8.528246300016807 6.755540456007061
B 8.428389396447177 4.990909432462645 10.21898635259473
B 8.262656251783518 12.372327522846824 9.058225367525033
B 7.592552225508639 5.644879622704563 11.35418573664856
B 7.957228832468504 11.508261503852053 7.620554202886998
B 7.717345868588045 8.551144141971637 7.623994183769449
B 7.38425844300774 6.316831266801041 9.775666898227824
B 6.877188646133811 11.621154218985117 8.994929048694145
B 6.441236423793161 6.771043515196027 11.447425202478852
B 6.967399098854264 10.182715245553293 7.956077902161392
B 7.146373390425227 7.351949866792194 8.553071001667936
B 6.449889845581788 8.836670307644471 8.698134253422484
B 5.527508994135178 8.05287876768124 11.384283166823755
B 5.907603506415169 10.355658094305419 9.282171710939183
B 6.228065978029531 7.645046463397601 9.938375400109846
B 5.503464183476853 9.23484949617409 10.376093762376106
