31
Energy = -181.98625999 Dir = /p/work1/plile1/GA_structures/B/31/all_candidates/316/
B 8.717639734831796 10.487294605299825 9.195332541833112
B 7.728911330646685 10.066115881429143 10.363640721344726
B 10.026154624124354 9.690738206813045 8.645734661742189
B 10.524023558485695 8.740848445083033 7.427720828783934
B 7.545200460219066 9.061514002310942 6.7178239951783745
B 9.119923180203951 8.549845858686023 6.409428975627867
B 6.217360775318814 9.120699450126056 9.262710620783915
B 7.4680818254977375 9.727440756214742 8.2700779003126
B 7.85020006060479 8.043669764257205 5.493296585972165
B 9.436293456145982 7.093491332170219 5.370866565709321
B 10.16327952238764 8.060157522790082 9.139376248153281
B 10.649198513109695 7.547674207747711 6.374459789324779
B 8.74328909058251 6.024494578386336 7.855308045194059
B 7.10775794661198 7.496629257759601 9.701014700822201
B 8.63224880096706 5.461392164489659 6.158762029064655
B 6.632154654292116 9.051046559143398 10.958294281668195
B 7.198089407476701 5.623446838532976 7.30962014030817
B 10.08683763014881 5.904992765785194 6.780227391190833
B 7.470862074260145 6.074833660937011 8.86741674984501
B 10.316798898056803 6.872270251453282 8.057681467256131
B 7.061729926029149 5.429362168591437 5.63058195794721
B 5.181816211403578 7.796146436292853 8.875019855122183
B 5.558406264722971 8.05705563976527 10.416641972876064
B 8.125923987212976 6.4914775852375906 4.701920049990846
B 8.693920018901965 8.772895963093694 9.602415404193106
B 5.1317836485408055 7.3558062878732695 7.313441461459722
B 8.69698470040513 7.152664143121391 9.09313776919116
B 5.845218012864869 6.267456114526727 6.358719650145321
B 6.0042983233287535 8.823085007582165 7.646121002283226
B 6.233920379524644 8.034016637346312 6.167523430346382
B 6.577273262614894 6.935214767075963 4.9138747784373775
