32
Energy = -188.32004177 Dir = /p/work1/plile1/GA_structures/B/32/all_candidates/148/
B 7.542226680689245 6.690220802196793 6.532468011294186
B 8.767804075359189 5.738985363240988 7.009892117141595
B 6.541694018796536 7.752091878484782 7.364917472551667
B 7.938816736849112 8.318492338407113 6.326273744546895
B 9.16085005019737 7.249971034712932 6.3270276964360015
B 10.399778686629519 6.228540722263219 6.997324115837639
B 6.270155921765578 9.218742717023643 8.340890298881522
B 9.715456208017077 5.392178715929302 8.293567896048526
B 8.225274436122083 9.956254153108254 6.514871246428331
B 6.727328173957898 9.422053390078943 6.812318260167492
B 9.553814504502284 8.97588369138973 6.709760751368161
B 7.372337418123373 10.573000241735329 7.7967600717596675
B 9.427693704148883 6.021960662334329 9.746021235314958
B 6.611564526916221 7.699092984576133 9.005278730883482
B 10.318143664215173 6.921093410342062 8.549097652585651
B 6.427630040185942 9.011958036152137 9.977409762769819
B 7.626808643560102 7.813496724013743 10.275147410444683
B 8.842322203022187 6.831857474648471 11.008052529351032
B 10.893166555153092 7.788741543722373 6.918629220123072
B 10.302651829822292 8.648495354211862 8.550704618330837
B 11.209443816076968 9.333099143181217 7.2068421014228665
B 9.54250669575812 7.80603975525958 9.752450262899888
B 8.764577167688829 8.331688785223431 11.468222374825224
B 10.708819786426796 10.325561715170888 8.307247656805316
B 8.151473987040758 11.438872297336662 8.91414990388894
B 7.473784863163364 9.567625818353516 11.054707254019595
B 9.941837739389833 11.402603502247691 9.219165911361047
B 8.681309854384981 9.865129953022405 12.111547833841596
B 8.797236860452125 12.433882617010168 9.90849124670615
B 8.517128920439916 10.94586442609169 10.747697315751967
B 9.743130726828975 11.014822887763799 12.05455788691118
B 10.014634956853666 11.957374021567755 10.847362282975077