32
Energy = -187.96218924 Dir = /p/work1/plile1/GA_structures/B/32/all_candidates/224/
B 7.963117403815243 8.938124139102268 9.990056045469426
B 8.091922752494579 10.58161305511572 10.647581835020969
B 8.466082736937611 9.365494498887218 11.641695874549306
B 8.18688598615292 7.712725477672171 11.266956848660204
B 10.567575719310303 10.716186533657924 10.520050464216737
B 10.879994299373742 7.896583065210806 11.00962878773745
B 10.361161581388664 9.47234315669161 11.553073073061693
B 7.261303427935474 6.361357052770696 9.497817606178668
B 9.582398292114128 8.203198323741592 12.071090895249172
B 7.096535709943401 10.212614740092079 9.195902774415913
B 9.712936152162815 6.7439122079883465 11.021119367525612
B 8.344601432708544 6.075436688913858 10.589481580856322
B 7.800644341515444 11.709759175662349 9.51586796395473
B 6.681177416392509 8.718407010000533 8.75245511421384
B 8.801133291118198 7.3986921000085015 9.499881317371488
B 11.104885982839717 9.154648741766838 10.005386558120316
B 6.580412448618895 6.662096113819793 6.73013510353388
B 6.43420187825017 7.131892318953946 8.342146823459023
B 9.489263013281718 11.646417680556976 9.743602507419107
B 8.746331975854979 12.45449899798926 8.443856749177172
B 7.951818867308487 11.098640217077381 7.775119234743332
B 9.647829355663776 8.609718488319828 8.746191329123223
B 7.438712711090152 5.79106978893955 5.726254270123427
B 6.906882304408364 8.235621388119432 7.110785714126597
B 10.405578237213993 10.127215049119316 8.912548053600789
B 6.9193418537513205 9.877274319718495 7.506977861543199
B 9.696948969221783 11.340213124595534 7.830795704093451
B 8.128893926707274 7.284954387340803 6.251903109483936
B 9.534065406570553 9.80394768341552 7.4491727820532425
B 8.8924661674053 6.050299317601501 5.296583432208828
B 9.472578278934709 8.258877944809363 6.945973757252271
B 9.831214792880825 7.091789771363844 5.950434157209178
