32
Energy = -188.74589596 Dir = /p/work1/plile1/GA_structures/B/32/all_candidates/221/
B 4.848699645105452 8.351072394086826 9.403292426186356
B 5.724828520077626 9.808459929661245 9.205667184886847
B 5.914859154642435 7.336329070014176 10.002346851333483
B 4.908875382872936 8.988125541946172 7.939416423050799
B 7.09684997762291 10.467437177508732 8.579305721848122
B 7.215433038543804 6.519198897621628 10.5413541298341
B 5.563001918189124 7.424338790433728 8.154417440545688
B 5.83928766176575 10.208338065343481 7.466152141861584
B 7.435197377705192 8.263583536650989 10.511640458173208
B 6.715634778721512 6.305529962933876 8.888453695616665
B 8.776098398716382 7.345864442271309 10.369616012820105
B 7.112887249825483 9.868887500626869 10.16309849987573
B 8.280049905307933 5.644713297633804 9.64855667694318
B 8.549355351598622 10.145173959879786 9.466911057947408
B 6.492951008231189 6.434065703402206 7.233352074171482
B 9.913591217232876 6.516003898343973 9.59151501307652
B 7.852807860572389 5.674005694431964 7.898613060144625
B 7.241376447171755 10.708442327078501 6.849016463157796
B 9.77271210281914 8.117530046633538 9.172534527728713
B 9.884729063610017 9.671814213890196 8.644484087162272
B 9.443654987820365 5.259319998514858 8.512132295449195
B 7.77990721978062 6.201694775728421 6.291658716464397
B 8.646077539201395 10.34798316414285 7.7513497588135625
B 10.22628290113259 6.8073761356199585 8.060823172387842
B 9.748453727365675 7.946316625899217 5.127569628570404
B 8.641201641679661 10.539095549917892 6.066519935679713
B 9.339651342824723 5.663910905351444 6.9137815846271975
B 9.708408883291092 9.61309713887391 5.332426531646669
B 9.126521012816383 6.500893804088487 5.443566769070597
B 10.366712116965884 7.131520368200749 6.44740931561382
B 10.061262669319724 9.907700642883665 6.971534629909453
B 10.812038783818235 8.71147967278841 6.099040213724795