32
Energy = -188.37461268 Dir = /p/work1/plile1/GA_structures/B/32/all_candidates/205/
B 11.363624430348615 10.951303734233843 8.657770916074462
B 11.479200481744407 10.48940562648796 7.099563459736964
B 10.994237646750248 9.88080383092915 5.779377337211985
B 10.29254059987794 8.139153237570515 10.03468348639113
B 9.761040211551713 6.6619452885796475 9.642623347856368
B 10.587714691258006 9.746216381173854 9.7645166860373
B 10.596749935229422 11.522746531621712 9.891010009991632
B 8.965614856044638 5.817145908378458 8.536347000764751
B 9.639437020283207 9.169923861318177 5.391324485053603
B 9.570725523337293 10.907217095510147 8.64022072092291
B 9.743651988341233 10.317583732053448 6.725652387154895
B 8.180755949543359 5.67684067341756 7.087427941217814
B 9.391680291197238 9.226221772046745 10.904380663083241
B 9.276962503352456 10.76212221608539 10.477456075125943
B 8.875795615401328 7.634099217844772 10.801686829942467
B 8.093595769208534 6.81684667884988 5.9572819350329
B 8.351410316625179 8.25139938207828 5.240681997857546
B 8.10546036480158 9.450851667867552 6.411128884294816
B 8.131460912330702 6.3502517898966016 9.893476932214256
B 7.232735380310968 7.423173268550638 10.902572077889905
B 6.920534886365754 8.097828937781346 6.05940817260219
B 7.925039394265987 10.574675927245817 9.155948373830704
B 8.356817473503314 10.703480925248279 7.518569750027838
B 6.779073441994892 6.622445148187762 7.014715095564569
B 7.274137928165084 5.915563439545008 8.47269872948516
B 6.387019697676611 6.494379967296624 9.878898315406461
B 5.559905643490818 7.820523762028947 6.9889909695552115
B 6.505969087719956 9.758618254745757 9.409086260772735
B 7.108790991939675 9.765411633736814 7.853689566298301
B 5.8151029321373295 7.042012724680208 8.40976316110227
B 6.274435849013894 8.1941132111141 9.80691560497043
B 5.778610334156654 8.826394762739273 8.295742169930339
