33
Energy = -190.11566923 Dir = /p/work1/plile1/GA_structures/B/33/all_candidates/77/
B 13.431311466910627 10.67146241364696 5.596938134571017
B 13.788619049040832 11.93965714324498 6.343318491675208
B 12.13410841163347 9.800161642950627 5.836591178017235
B 12.418107338740464 11.296992301451034 6.828256881708952
B 10.744652939883077 9.013738379453603 6.130784599463161
B 11.015562360078256 10.54687107023886 7.272281923395622
B 9.534575380305153 10.174828065243503 6.166261670469637
B 10.243867213050269 7.925579755248629 7.261879845312178
B 10.858798056811036 9.218124136092499 8.325392200641135
B 9.441853488111773 11.166057767675024 7.582444244999412
B 8.079478576600957 10.821477592059974 6.20745501672898
B 10.193198481131812 7.713602813105632 8.811103623637585
B 8.141461695648026 11.28006910230757 8.497918069545625
B 7.968839812290145 9.686425577000966 9.318781823692305
B 11.08978584510376 8.835378893340152 9.937245329763748
B 8.02749871905712 9.683830891718847 7.491253169919978
B 11.877644170533298 8.707765505173624 11.31781668713393
B 8.847841839993814 8.531067588396349 8.297027884885855
B 9.094105308646549 8.46964175455702 10.059122260553554
B 6.804698301768643 10.908942664943115 7.107577650372375
B 10.216084494837707 8.626183707194961 11.418878989086332
B 11.265477840505635 8.34735837382023 12.677006442260968
B 6.555333442026053 10.675335057504418 8.650513238331412
B 6.3135780526067355 9.692998880816521 9.931963474034786
B 9.756814402721304 7.937386753455983 12.93796481298318
B 8.569546293520993 8.001291281659949 11.650103375278267
B 7.3586962859890575 8.693963190305759 10.725344195943828
B 8.319008837162373 7.261582917761799 13.15552296359617
B 6.7847267497649915 7.76266687742748 12.226733614843523
B 5.71519215367637 8.808855829065973 11.097910128160363
B 6.949785494386816 6.755039625915827 13.687490270254317
B 4.996951045750969 7.9586143951428365 12.188512854817153
B 5.505478462571298 7.022877346609821 13.279878985134678
