34
Energy = -198.94850928 eV
B 8.422821819672198 10.216074767365413 10.14154227970838
B 11.284262608315764 7.859424245722955 8.137162576714482
B 8.039440900508167 8.561558690921299 5.836310236893641
B 10.081421760937594 10.21032207219429 7.002138896536403
B 5.471731203805187 9.435432559134401 8.219428490843375
B 11.24144730030731 8.746510535200857 9.58650051009685
B 10.086811665892618 7.827398747253392 10.225801259535954
B 10.659055263446726 6.885894878188393 6.830536261463871
B 8.80365975068955 6.884218795452621 10.463163603126556
B 6.4370061691204254 6.102096888324271 9.40377266186739
B 10.846576598487099 9.587379883013634 8.268666274828485
B 5.679247436959827 9.25598891544131 9.891752763451006
B 7.7848717541929275 6.983634231763033 6.332343899322695
B 9.34716454893807 7.523300971382669 5.961628086657381
B 5.446752660623784 7.877162939805479 7.411320709145637
B 9.890641841947945 9.609162802062034 9.862323090436131
B 6.176463007628935 6.49849065555478 6.597297685820131
B 8.411224158251544 10.096775467062947 6.819132636412557
B 9.444081187165626 9.257076903205327 5.831868386407329
B 7.575394848685458 9.040320390231827 8.935690395861547
B 8.08950135480207 5.792880379830708 9.333639241834225
B 9.818309422719603 6.132409122215681 9.445310088619578
B 5.513610586697005 6.359101017843547 8.074738742037338
B 5.759236522629179 7.679599227267021 9.24291676189497
B 6.991631538691128 10.26183142588191 7.6212643278021295
B 8.444195829008073 8.510970158263126 10.464307561811276
B 7.020845914257807 9.65670312458812 10.70791694718184
B 6.729914387155072 10.499022568535 9.244630453422772
B 7.347433305958689 6.2073214113166015 7.867238253355058
B 10.8895013247014 6.219148630575072 8.218291812522471
B 6.425705753949495 8.042424652600372 5.965308739626881
B 5.640260401799033 9.332719663981452 6.644812759977958
B 10.629857513997662 8.606585739708926 6.789131568420615
B 7.50961578950489 7.4298833716140855 9.360609735028138
