34
Energy = -197.81495386 eV
B 9.394710224552426 6.8995339870019645 5.45480186369917
B 7.8501602990748145 9.445087460834127 5.937624174997389
B 8.665562567145074 8.303571487843277 5.200758753000151
B 7.763195179940042 7.260599199310444 6.491029366160517
B 8.80261706843746 9.630757108585463 7.483186156276007
B 10.276168013100362 5.787260229075645 6.136202284733123
B 10.501160998530812 7.1636229219092025 6.999965105504072
B 8.707195877911671 5.992950705937961 6.9468154146852585
B 8.517882695363886 10.861519807215315 8.53828087472698
B 6.527897721882734 9.928755153888838 6.734574782255461
B 10.17774803612936 8.51293467598191 7.90194037669678
B 6.4722161964148235 8.163978294298083 7.009894922181355
B 9.777435612826478 7.077232525445482 8.781953124346026
B 6.499024803863159 10.879870561586838 8.259256448242978
B 8.488120777197796 7.980435812657819 7.939136607676708
B 5.667557711037053 9.266460659130319 7.9680362636406965
B 9.88957619654422 7.299433795274498 10.6798938337799
B 7.345732581159871 9.11116872380671 8.693618996585569
B 10.160479592693672 5.433461856678591 7.690031925330176
B 7.261510689950185 12.074567099736676 8.970586053625112
B 9.017758131097315 5.3919673935471994 8.768556069586339
B 8.641339173249774 12.09600683828849 9.792407207262409
B 7.605095772647122 9.123246989407193 10.559966000687812
B 5.96223499045357 7.856733868336962 8.662219845279024
B 10.661398428276971 8.505303201735273 9.489234154524029
B 7.211066300402237 7.566627696461594 9.673336799739264
B 8.593899249901263 6.374253013361812 9.978119202949088
B 7.158595871831328 10.50930039993349 9.845088337276213
B 10.038372115553678 11.495393702632228 10.277418827438892
B 10.55523098028645 10.01037409632165 10.7041062406075
B 9.242748882093268 8.856396650061683 11.13696924033233
B 8.817279144604015 10.370626140920946 10.397413566388424
B 8.142835555848388 7.596305380207704 11.070829614907952
B 10.907290829652187 8.475360832237133 11.127845834529959
