34
Energy = -198.78717274 eV
B 7.167155298857203 7.517487594397656 5.523274488317976
B 8.544651472604832 8.414314944968789 6.04646982553064
B 10.159699093940777 8.826013895024433 5.879912821062625
B 7.271048888243475 6.24830998985764 6.510696972937944
B 9.270477781862844 10.098115664692491 6.192659381788034
B 7.450240275004245 9.851916312559078 6.7384961436753334
B 5.946240391795706 7.434557623192115 6.794422448892446
B 10.093951953668919 7.604680228276927 6.924590987472605
B 6.2380442235699585 8.847763170101281 5.933008836348827
B 8.406631872058298 11.282592425327092 6.838209489075878
B 10.255939954617242 9.159814023243698 7.560102398805904
B 7.459708412064854 8.111668094877727 7.354434926661495
B 9.710854785243471 6.143506217443578 7.578688305494883
B 7.698229874265496 11.14715518532866 8.237782950111411
B 9.473534052797099 10.658471697421662 8.01802568590876
B 5.887550742523088 9.11266522839195 7.502651477203792
B 6.641634641181101 6.659484040945139 8.144099585112802
B 7.2559850204068255 10.927934950669027 9.769282152632709
B 8.79924377931848 7.921569752585175 10.116851017164251
B 8.177237896474194 5.404419697800804 7.6097044492859185
B 7.442652136482759 5.3379703054495184 9.084650237152493
B 9.102339104063587 5.76755000879248 8.982753335882675
B 6.493459819884577 9.72267854934043 8.908862566909358
B 6.630036272627256 6.523174146811287 9.786900350884702
B 10.332958477991076 9.883871599615082 9.117880316445902
B 10.002623885056785 7.421439406512223 8.683244451556668
B 8.913198625916001 10.658359200623115 9.703583028498159
B 7.69583532348973 9.37991685261302 10.09712431031903
B 8.18932537144117 6.157405995968751 10.449076063073784
B 10.559869284702566 8.26116688608353 9.978981241238541
B 9.65699275211933 9.53176778187813 10.6892396039069
B 7.227986384417041 8.023052962179946 9.237611729725668
B 9.055451055088572 6.881891795026159 11.56478910392725
B 9.906353610107569 8.1944562858874 11.559081830881683
