34
Energy = -194.34304845 Dir = /p/work1/plile1/GA_structures/B/34/all_candidates/50/
B 12.428482579165 12.146748635593035 11.72917824067861
B 12.000031518901311 11.281977858593919 10.430473342567403
B 12.306792436065844 9.381393381225854 10.80312415636708
B 12.4824281706045 8.048303360845122 9.860839503742802
B 12.858728620428106 10.542707938938767 11.768050246811422
B 11.970932266927857 11.329462581110581 12.956315594363351
B 11.033472865098716 10.193652083750612 9.691524655496831
B 10.313097008575864 10.661608643222324 7.130014158324459
B 10.551969275231198 9.464256275749479 8.180076330464786
B 12.186435671107951 6.828924129765271 8.927894827238523
B 11.332411187369193 8.076491840034816 8.397977055617995
B 10.415741625295908 11.871294123032996 6.158852178538479
B 10.473366409226417 9.291169497396284 11.139403564107091
B 11.315211008668369 9.98054432701645 12.35263813343012
B 8.829968269432502 11.874273615062581 6.938761665124724
B 9.48679827575044 13.034160521593073 5.8048327113708575
B 10.902811360337841 6.871539147220077 9.81754231014756
B 8.065451235329826 13.350183834597939 6.306874770823924
B 9.646227215206828 7.857272064761804 10.636773742555297
B 9.83144811659498 6.234838776974077 11.017814749198502
B 9.886296013066904 4.816672033632141 11.718888722978697
B 9.536304563192093 9.354249651404416 9.677875928804479
B 7.093018229015328 12.488367948128438 7.198175022254463
B 7.700782913144704 11.113882603208678 8.050575401782686
B 8.827776984142409 3.7407905115336306 11.935408683523043
B 8.088399402586889 8.354839235422899 9.95768944507431
B 8.223615218401843 6.964391573576221 10.923641295740781
B 8.273733142887464 5.2199235614278745 11.269191806035044
B 7.9465701449869695 9.816046470003638 9.192562144161991
B 6.064852301751923 11.51434253127149 7.854866657146474
B 6.357862711530556 10.184715478796152 8.659344561658564
B 6.921895852943453 5.946735140149753 10.807443440899743
B 6.589163878389583 8.844206282753367 9.493656704750697
B 6.678907612730345 7.391353031843707 10.253095058303565
