34
Energy = -193.29508638 eV
B 12.96494354940165 7.285648440049364 9.855741609949527
B 11.16174236289704 8.437076164677286 13.376350010063465
B 13.697739299878414 15.136021486970128 13.009561943221113
B 13.523986134305 13.685972666228206 13.581876234465847
B 13.38720731968637 10.56387020385868 14.236177992442643
B 12.101641487316396 12.337581421505448 6.8060549139823046
B 11.654784587022856 16.78859254499824 11.261834333823895
B 9.66657911015422 10.40206632221217 11.891738746751148
B 11.67445198299487 10.881846626341249 7.181547883673943
B 12.138920713177871 14.515668219776892 12.902949074861413
B 11.919437897428717 11.261250938876719 13.778324620973182
B 13.132421923670037 11.387913734917865 8.033024682091224
B 9.327087814944479 12.995629922298084 12.995526803202477
B 10.733784923780275 13.725194654926339 12.46147301746758
B 12.083100380127897 12.80410278643626 13.107344093126544
B 12.43129546856624 9.90126821942644 8.212939645268968
B 9.857570533063726 7.549240574397149 12.619901502251777
B 10.921078124973702 10.091437018398146 13.00740941968926
B 12.274627482847976 9.489124280417162 13.91473210850799
B 11.20002890196198 15.196659629931165 11.598932813593034
B 10.695318222317491 8.941146332398233 11.555763518027314
B 9.122477841269069 13.539417933602433 11.456700125389766
B 12.736320080670303 16.066337615242972 12.190284337777246
B 10.540891289849055 11.861191643793209 12.964020706681655
B 9.181541244618224 11.913957941558131 11.673126719686028
B 12.45179689558894 6.702073865448037 11.182992608253556
B 13.376225662315816 12.831017895520919 7.512444125772543
B 10.361520233615487 16.257825682098975 10.619533753900141
B 9.572894947803077 14.923582918180125 10.797411260048236
B 12.636734435040468 8.569463954206899 9.055603795397154
B 9.470739140094267 9.055307323279955 12.831692887152386
B 13.38422875646905 12.127896294496509 14.017008261449186
B 11.278711176189184 7.032092964602147 12.21023431019343
B 11.813227890836016 8.217579593803817 10.574799955740037
