34
Energy = -197.7585865 eV
B 9.244047749513781 9.024265639517747 6.083594527801143
B 8.004809588473197 10.225204786976114 6.299313694636081
B 6.466603651614243 10.985991840153726 5.952626670578166
B 7.225337507472618 8.531505390341412 7.002796454046005
B 9.91816973421782 7.583027578974538 6.302251224218849
B 9.631429888511489 10.437873942574921 6.910412583014568
B 6.311976848778735 9.409587319540698 6.083074722779428
B 10.374286753955463 7.206116969251176 7.789079523545107
B 10.499096726395965 8.982371048369428 7.234535027554721
B 8.70739477660799 7.915298470212466 7.539109821998687
B 7.411350521239093 11.784480497795572 6.901054519848483
B 11.021617329971043 9.123563750997372 8.781438270645431
B 10.846885533845944 7.084670105956128 9.369962156158687
B 6.38812365327741 10.245670015647674 7.564194847588235
B 9.363043697485152 8.271084487737198 9.172245406694334
B 7.712749146488341 8.65414407957241 8.74497145823292
B 8.708808441195217 11.396187434115863 7.820339929320159
B 8.41968368932392 10.649339310513945 9.417137274453056
B 11.623638686644359 10.051650437778454 10.02728440007371
B 6.78211645680192 10.06207049060547 9.132809163531734
B 6.868173369577493 8.784408190311977 10.233068389130324
B 7.272684872224457 10.321559039319729 10.746194226763826
B 11.403327778964849 6.8827033399592015 10.880218578527273
B 9.895766329137583 9.870788407202134 9.853869706026996
B 9.79926376698511 7.563272080934648 10.710934563863681
B 11.858761363971539 8.355133392795304 10.282141152889823
B 10.459709754450571 10.014481205393947 11.584491071083036
B 8.858193996843962 10.2252244308311 11.219183809930941
B 12.26853151780136 9.747378446837331 11.421400628445737
B 10.88495881560395 7.846886825407731 12.049470772607252
B 7.652052782822798 8.968216575461543 11.614441762177695
B 11.659247045432526 9.414221527194377 12.849227805835534
B 9.119594029648697 8.403090299583239 12.122487524647863
B 10.266514307962257 8.906482755375606 13.232588444590847
