34
Energy = -193.43745996 eV
B 10.445543730625015 9.103729460569257 13.72521667877023
B 9.05190111762583 8.876228311185882 12.7476197436549
B 8.902957510909129 10.686152568114874 12.441288126053214
B 8.937911009492032 8.114427337750543 9.735121871425923
B 13.223305864091968 14.183674861278252 10.301641844918143
B 9.182478337672634 10.11421291899215 13.822984031911023
B 12.621165289388744 11.330985635982522 9.90192736034198
B 9.024537795496743 11.26965626881386 10.91166777049349
B 8.212682841868826 11.874238760957887 8.304715253281202
B 9.861477726961667 9.624714245780742 10.064751116093525
B 11.74677474908696 8.41660144964704 12.709362629230242
B 8.660159658416214 10.64982977259374 9.373161286914979
B 12.790589329216397 9.641074249499152 12.240811982760265
B 13.08826311032603 14.269245473826462 8.651131275342554
B 10.240769730372103 7.710592591969604 12.662706091193384
B 11.148792289235237 7.528111401865839 11.387007008062886
B 13.230550056448193 15.56297060132944 11.201076954844284
B 12.33201407579117 16.92243773108624 13.329097687720623
B 12.550105708447951 15.474298610476794 12.824180524316153
B 13.181886017525365 12.483696851110553 12.664125350357915
B 12.973985380011342 12.708784413150406 11.022214244370378
B 11.47589968917418 10.08187501881567 10.062590733477721
B 12.236261912039515 8.60048212830464 10.882081012014472
B 8.594405372980587 12.290795762786189 9.77441064938228
B 12.061728065784887 9.685768193081655 13.741109529069108
B 13.243400043026638 11.182029379948183 11.605096455149766
B 12.775477957230969 11.033816771031344 13.289177503541517
B 12.983355087061268 14.03053304123153 12.11133717895792
B 13.001934472988486 16.916277107212217 11.953909432768404
B 13.115643777167572 9.857160798495112 10.520160272136051
B 9.474786475685486 8.04978369678997 11.19990538943079
B 8.951376193538332 9.157752769234346 8.527169867156477
B 8.47136871681833 10.427302442636567 7.712609370299316
B 12.919766523798028 12.854014990755166 9.311889390864293
