34
Energy = -192.47166944 Dir = /p/work1/plile1/GA_structures/B/34/all_candidates/16/
B 10.223694147000943 9.144548693032611 14.320754147224966
B 12.224720622417207 6.879992022457479 13.295680863453214
B 11.981404447903646 6.030218541710725 11.774049646522531
B 12.447650010928824 14.580599973939984 8.147747455549135
B 7.119953337479574 9.363516490870577 13.056035753064759
B 10.97137906297657 14.113500933774278 7.680982524087626
B 9.779405634532528 8.362807300906688 12.805735517169188
B 10.594306662330846 11.490347604759254 15.78094189745155
B 10.014421062909587 8.567639183935823 8.16081111408333
B 10.58520380317027 7.708505750431784 9.399280291345102
B 8.381052564731208 12.414825518198372 6.919602692809672
B 7.902499048230962 11.622785408133907 14.939849598056234
B 8.40678717197974 15.206862154538989 7.160469011289068
B 7.188192630478276 10.597793601688911 13.991297190234338
B 9.420927460503973 13.834381586052759 7.247832569052459
B 9.17444524641173 12.09128166554104 15.649764625310453
B 8.189459576039098 8.399646721163496 12.499480719163685
B 9.324415044249065 10.097241139319776 8.51320528421392
B 11.247272820062056 6.9362616536175565 10.633161075102219
B 7.775338455299283 13.839114770774119 6.866843793729661
B 11.18703777334858 7.552015222054248 12.19062356140403
B 10.359708948187732 8.33231250485655 11.019810098655611
B 11.446038342829949 15.7115300696681 8.008575880757686
B 11.182480941979868 10.080540629830828 15.395816341917705
B 9.407613243510657 10.558816135330465 14.924544510047681
B 8.65648301606839 9.45198021343292 13.740417136029627
B 12.64165953547722 5.263508393221346 12.993384437236195
B 9.55527098879055 9.499338590552826 6.9680884246834225
B 12.25865192735084 7.151090304312729 15.025429175819013
B 12.763986997096765 5.79094545457247 14.4559616557065
B 9.91554095966384 15.516859329558246 7.572640407924531
B 8.940825346067719 10.92838035242212 7.083050520890113
B 9.848883490377347 9.243904373636681 9.739263605346336
B 11.532526868546602 8.540449945746202 15.202706305048308
