
36
Energy = -203.20741511 Dir = /p/work1/plile1/GA_structures/B/36/all_candidates/49/
B 11.747316880988595 9.558851802129205 5.176664012752859
B 12.171089464050777 8.234538667247044 5.8405124051363915
B 10.629799715780722 10.50661044809583 5.687432180048909
B 11.679937847866075 7.62815943153408 7.186982200793053
B 10.922537034477285 9.127567533602786 6.642743018473462
B 9.288269839311626 11.369411290756494 5.955772525934452
B 7.9339482314349254 5.050084155833233 6.477790894373666
B 9.847771894075853 10.348065576908999 7.262845775382439
B 11.512903486278079 6.5980280885508575 8.396959592186219
B 8.700910363256474 5.26542245409507 7.855545523929456
B 7.037054698804929 6.144354494152963 5.779284986241393
B 7.908400335052866 12.009527037416465 5.765241718349723
B 9.88589714300592 5.792690846707911 8.887209118641195
B 7.658548064564796 6.519699953753563 7.2882523668054375
B 8.06279567383367 10.863924193975851 7.133592094729154
B 10.732289997031337 6.829418204858601 10.111987212909192
B 6.602129331955932 7.499154831955097 6.44897292992994
B 8.1304050398236 6.553617038863924 8.918709439401361
B 6.6731539056155835 11.840519123341233 6.631521863974988
B 7.152505031970643 8.08141999576483 7.82609398303017
B 10.526485910376465 5.163214869226819 10.549692674685614
B 9.377255971664587 7.565513503213988 9.75094771653949
B 11.62769184032796 5.482166555468824 9.494133768871414
B 9.26710058155226 6.065612573549857 10.825989986859339
B 10.391412614033824 10.90091648563847 8.758980940411844
B 7.288116256300255 9.683865762239973 8.529319881650377
B 6.556760633445688 11.180262953242494 8.027690251454501
B 7.878408211409814 8.306410853857534 9.447886071367659
B 11.207403303077312 10.65640108835472 10.122357491946255
B 7.756928547731909 6.699913358409894 10.590131111050127
B 10.29901913192126 11.863818936696463 10.03553864954847
B 6.852035973633538 9.395784174364886 10.281292294875135
B 6.148151663697225 10.764514564192762 9.492302553418497
B 6.911984532752201 7.9066484824239005 11.243319491042012
B 5.647244756254798 10.34761290130517 10.930441288970933
B 6.079773925065591 9.120623904406024 11.756453640671308
