37
Energy = -217.15277588 eV
B 7.2275639953439414 10.279834121106262 8.333245424615493
B 8.552028912184053 9.480734992717256 8.908054770817891
B 6.958941418704953 7.39836119079128 9.636513019922104
B 8.603777176837651 10.111101336875992 7.281183347789585
B 8.731972495446847 7.925254952337005 9.416178042244939
B 8.93683676915086 8.311266191660003 7.653057892768964
B 6.8543136505222115 9.91497000473668 6.759679195908426
B 6.741248069412105 5.696618700215632 9.693213325355073
B 5.688235024695824 8.197736209248077 8.926290201926424
B 5.437075756730245 6.688943181016498 9.66444609135019
B 5.714745812956801 9.641192558409905 8.06441246345867
B 7.208940844319479 8.47381311821596 8.092932425700463
B 9.278023311928507 6.525736504798767 8.463452021778917
B 7.747116047307561 7.385643774963999 6.687487310620583
B 8.108131544996606 8.042984489912486 4.951545725579443
B 8.304768269609994 6.355658759874771 9.8087280919221
B 8.024358211368606 5.146044568902183 8.671575324792904
B 9.572445021089013 6.1501014053539835 6.789874861164812
B 4.80259976029457 8.428582461487313 7.367195735386568
B 9.414691655895604 9.267361291982956 6.183613303973563
B 4.677559868625804 6.916135093966798 8.213291092919343
B 4.400599065352551 7.012151961689181 6.6302751375641416
B 6.3955256178410504 4.786171301326439 8.166416254778136
B 7.791751362682764 6.651152200744211 4.041992774760815
B 8.730152853428898 4.792112913103837 6.201238890007388
B 7.247305108255574 5.730305713782099 6.869935699995293
B 6.725519889864981 8.943609638243684 5.435510351068104
B 5.4143662423756345 5.579383251411574 7.0043586308494055
B 5.262032111533598 8.028355887756613 5.66242548971973
B 9.444484810150557 7.660292331514953 6.077716380717537
B 6.44700810183797 7.511146845377424 4.629253380124014
B 7.784895686275459 4.060637141225186 7.489992318974417
B 5.117052855151991 6.388054863711292 5.230601228852803
B 6.297236818288721 5.955301178544021 4.063288052472204
B 7.273181822832241 4.023789923262196 5.928290203461557
B 7.697524361970797 5.213188715970603 4.798212256111452
B 6.01617213700805 4.939024971329955 5.412594759614899
