37
Energy = -202.14840122 eV
B 11.518414378176965 12.220007268339714 7.59440220547615
B 9.874952472439855 9.37506430356091 15.539642056677826
B 14.192787925829489 11.932386330373719 15.307025074992936
B 11.012346098460219 8.977053018354036 14.56202802006856
B 13.157192367173263 12.199256334522591 16.464086036489565
B 16.01728642658245 12.644095427728935 12.959010451611453
B 9.8308333862308 16.902209855029252 8.11962673025664
B 11.505917545112913 11.89436426694769 16.983851118709836
B 9.795706253750067 9.859546109632966 8.683570135924182
B 8.646252192629024 9.74457075634545 9.831092391224363
B 11.136018837014516 13.12036783888244 18.160202430101865
B 15.151260312212752 12.000532946846267 14.066006024680137
B 14.355264243357745 13.558942980824797 8.768881125563746
B 9.922937003198342 12.18142456190905 17.82417596245987
B 7.68641015515305 8.546348136633744 10.07735491752058
B 14.815238690133361 11.54915349898472 12.455154515196483
B 13.227811632423949 9.26940263598945 12.474527018020233
B 8.804502555293665 9.965817542057584 16.482247104026307
B 15.152003580919631 12.780220335879456 9.894154794944413
B 14.105192635919716 10.188635622775461 11.61521389709417
B 7.933533935178697 7.371631914219218 9.110587839301884
B 14.649872380165236 11.423615080383168 10.745246771940915
B 11.078169244007993 15.73341022434943 8.817975953776077
B 12.219630765076426 15.452163668109701 7.611502222739807
B 13.447093040118268 14.553819197502383 7.9486336304860705
B 12.391288178108214 11.4156106899145 8.688953631801116
B 8.983292592487675 8.439417694798289 8.692361449493644
B 13.772983271754597 12.007527299786133 9.350247928737978
B 8.780745395252055 11.14702393467726 17.451418684768335
B 11.002952098567345 16.418630915181456 7.217814543611191
B 10.855167229965106 10.933529580110779 8.163522755774855
B 12.872946181402991 12.901418124865724 8.105593550587368
B 15.720587603532731 12.614442995613842 11.409808075115416
B 12.572641434237463 13.074915042256858 17.601311746105765
B 10.248916317058205 10.84289370380612 16.59249948639417
B 9.837443387056608 16.316526795381268 9.539671958259342
B 12.155736086790089 8.875351200197064 13.521925592837501
