37
Energy = -217.5429804 eV
B 5.260076945568538 7.478653588113454 9.679135663717918
B 6.850600724510335 7.236741609679626 9.529229167677752
B 3.859588627755643 7.211178312552349 8.855030868132825
B 4.946542020243948 5.9242188975275605 8.827951052919206
B 5.768154653977288 4.537245807219789 8.305303938956035
B 4.4306443698827955 8.723897868965707 8.84409995027467
B 6.807238737382718 5.9107135975767875 8.31197508956266
B 4.19603505080979 4.686985418192773 7.536487116274473
B 7.3798050788122485 4.23869213581341 7.703111479475639
B 6.018281397563885 8.78900194193083 8.574512011850924
B 8.208787636399725 6.765916394871395 8.775762553944764
B 6.573528294342845 5.620998137859504 6.536587118111218
B 8.662524519756714 5.457672586396236 7.844726586598697
B 8.743809221779273 7.703173720146581 5.59916422693365
B 7.535797066046011 8.237945582579004 8.301780411917326
B 4.865979211481059 8.947014972263526 7.253727452342784
B 9.211414259049334 6.1805021759133645 6.312215515447527
B 6.8505497224412455 3.7911312964911597 5.993607430334027
B 4.629976043552317 8.556130750563934 5.65354897364496
B 6.658054818668674 8.817014726264683 6.975765593615502
B 7.634843734769058 7.285481117711593 6.8835526936535745
B 8.120674672858847 4.83563173949725 6.199358352946848
B 3.564358977320587 6.178265087208138 7.602578495599064
B 3.8754650337075973 7.236508754108376 6.311514324014171
B 9.071444492154553 5.304941926861048 4.7934032902558785
B 7.370602592150149 8.56359860882279 5.492129807893672
B 7.715892188886821 4.17019279987709 4.618582260745777
B 5.359639803062243 4.25020963046314 6.485877061312122
B 9.846396641373131 6.777141599529956 4.864657837525602
B 7.261394093132476 7.619497699967568 3.995542260513671
B 8.708606669364265 6.620641668371231 3.649424322661076
B 4.73325597706 5.788886847669734 6.219144037757418
B 8.285835944821182 4.92730955589318 3.3528861483260135
B 7.0752268998692065 5.957180311079349 3.3449039240518372
B 5.784157784467021 6.825460036408579 3.7197730811416587
B 5.862321472251221 8.28692089484586 4.5369786596770645
B 4.6802469718849045 6.965054549920271 4.923723589347611
