38
Energy = -202.03160048 eV
B 9.004605988590855 6.910807661569026 12.753613100943161
B 8.74822639243183 7.977849951379099 9.951479682600105
B 13.658102281878776 7.3388837895923 12.243322513411142
B 7.244912507753995 10.842364177176515 9.694529755127917
B 9.569059651927372 6.522736760555608 9.684922493573385
B 14.600889825779195 13.987950539543537 6.575895663919956
B 7.710204730778147 10.163575795488539 8.418169713326265
B 13.640732880583242 8.151841762992685 10.840502068882985
B 8.65318347325462 15.107594112973185 12.313540141784594
B 9.513679793370134 15.005920497100183 13.588491287802071
B 13.599823716370102 11.12709108548028 7.106017303076401
B 9.584204423302477 14.380265982610723 9.36263572816161
B 13.009422208833822 10.762725272460205 9.849283743727687
B 9.035157820793279 14.789482613312677 10.795846534589492
B 8.462503271379175 8.74882839338169 8.373717621614167
B 10.238194422830977 14.570994407765031 12.094960480906806
B 13.728394114511012 11.997706238554239 15.25754005536702
B 10.606150674578279 14.789400850453037 14.690114214400609
B 13.512034143378346 9.143570627125417 9.596706781608937
B 8.208551600350768 6.91401430969387 15.33456890848422
B 12.677037525819411 12.191437525922613 14.141962735575762
B 7.889634385878891 6.490807774952285 13.883180866756875
B 9.272737413270407 6.7940097455345105 11.183387004474069
B 13.01470432205185 11.799923230446147 8.593534154590348
B 12.431301760809207 13.429813983696436 8.381253984849227
B 13.579260670210232 12.713901585639464 7.142186228426648
B 11.655239911849655 13.375597714172654 14.309649796791565
B 13.414827255784223 10.15293583826479 8.325550826581722
B 13.50686382002511 14.340802559496993 7.593389716274765
B 12.87266378794113 13.256097124623626 15.633313101551218
B 13.136202413472708 9.800643728473862 11.1556609036626
B 7.975028852753143 9.418305528420879 9.924736232834526
B 11.789818986792799 14.430061405767624 15.635930700051862
B 9.219423228020501 7.346024351565559 8.43790607775153
B 13.36675191004526 8.851369520519636 12.395483952906849
B 11.012991415269372 13.893587363849901 8.988912499254328
B 9.28386800982595 7.3156511054788735 14.273911226604392
B 10.708720858903522 14.300535535365599 10.609302649153125
