38
Energy = -216.56212639 eV
B 7.60318728603859 12.99545687133073 9.798237673425255
B 12.187151537312019 14.657783806574923 12.568853063576606
B 10.791356618297707 8.313892477653546 10.942250979106417
B 11.7925680328229 13.800574407222763 11.103728145422222
B 9.94777550202115 10.898907537196184 13.332080387029766
B 12.644830714094871 9.08785091117705 13.826630992316483
B 11.920736672327052 13.908209069339396 6.7728539638233105
B 8.173820852709676 12.156605643117818 11.108811673006784
B 9.882240036986808 12.02994623359243 7.092782453227879
B 10.823823463645192 12.937292813102282 6.279493059636396
B 12.811105058437347 7.529503431299876 12.767815096565206
B 12.584181345925703 14.65998967806301 9.803285713516578
B 12.98914523532862 6.6998507394453135 10.069458259672704
B 8.726128470466104 11.485931449037876 12.495803373820614
B 13.169279446817704 6.378689659411232 8.498106096144523
B 11.407787014372168 10.208370842629387 13.131833659705569
B 12.84918747829182 15.167088077669568 11.258452321376804
B 8.56783530333207 13.24266299741358 12.398067678321043
B 8.03827872679915 11.499257874999731 9.499135037456945
B 13.669610918300556 7.646278691715845 14.039715571869753
B 10.467985574661563 9.7846593503045 11.70654952367003
B 11.254667260584206 11.939988634059858 13.711814927174505
B 9.845144376617727 12.57390276189539 13.199021415130472
B 12.494398442300625 11.175712821196344 14.312826763497926
B 9.732084020333076 9.257308375823289 10.294340950594938
B 9.101155980179886 11.152517504424285 8.137576732513484
B 11.118092218216157 12.952340666193397 7.970599099197237
B 13.958567406103203 8.794448814669886 15.013729253740323
B 11.230239048696154 13.463662143031785 12.752888049813869
B 11.737049147338672 8.735892195875174 12.25691085854894
B 12.284979778513408 14.22532952004655 8.267211864058988
B 14.298480777769713 6.012645479226274 9.434792669654225
B 12.123272494720418 7.399487876385851 11.295348756202408
B 11.52250502888457 13.365582030977565 9.530613217088687
B 8.95958606148731 10.596824107218518 10.901304735552042
B 8.767162353162616 10.095284186313547 9.286487207605102
B 7.836898207512893 13.803935205333108 11.102845678044577
B 13.581083126987119 10.259716133430384 14.931124117289304
