44
Energy = -229.61172797 Dir = /p/work1/plile1/GA_structures/B/44/all_candidates/13/
B 13.069268575438118 14.160334269075038 5.353106065176858
B 7.4541220913656865 10.63503996236247 15.097548906444693
B 10.911180244303416 10.30232301583308 8.776179958683887
B 10.892943449784097 5.779246535619584 9.738077928346609
B 10.411009818154154 12.574626366969833 6.567448474972415
B 11.787895004001026 14.656743926372293 4.669940739305882
B 10.093561223249946 16.11845071032212 13.079552283407706
B 12.089973175314501 11.36365490654272 8.511634398177536
B 9.932966219235155 10.969433003295366 16.433151179359804
B 11.952048906600039 12.394540145370037 7.240303842461772
B 14.882564912065924 10.219627120440244 13.056246338989213
B 9.618948347116477 14.81149247475452 13.739249284740017
B 5.715268535221115 13.415594117415177 10.768913134531568
B 5.774991798465988 13.62538555103708 9.228787186933777
B 10.540951202952977 11.469023441306579 7.675347047825216
B 10.749539681836781 7.307043430941441 9.552670712905494
B 14.716666731193849 12.57562503867846 8.777081044250357
B 7.244345474508917 9.35227620020433 15.892428809561297
B 11.316534508867534 11.751305746456634 16.644333912875556
B 12.709983367309585 12.564893653651259 16.828776764766204
B 15.941515816130005 13.1934806992399 9.512153555120221
B 12.240070980742583 14.713591353196614 15.07762733270058
B 11.177791356859531 15.397937895965327 14.083794429415223
B 13.279153628539747 13.187488769023037 6.563667131853206
B 13.09073577038253 13.875388550689188 16.100462161028926
B 14.71011942559452 7.615643535641441 14.852074027941184
B 8.761769504731516 11.482986897954358 15.321793711222686
B 16.389179944405267 11.509429675867313 11.487707065699945
B 6.351458918650628 14.709102550885 10.184173969636722
B 15.142980312235581 11.966700534513565 10.434944544102478
B 14.631119858859408 8.951360591351495 14.004209163687563
B 16.541774713211765 12.825815506699964 12.511526825619855
B 10.450952138185052 13.900875049704974 14.714311807931798
B 10.719306069649711 8.834351663097516 9.261083136970957
B 13.434616845010572 12.224081857920337 7.925861805640232
B 8.59353237271022 10.03422572786124 16.27273957152258
B 16.575559024198654 13.141276649659241 10.952196160456895
B 13.61183892040272 7.363031306756959 15.93450276266092
B 11.607028064299701 13.205655842672755 15.77018359639671
B 13.464164148005528 8.679714217008076 15.15113126342744
B 11.56419275653476 13.500801213454976 5.899765412205746
B 14.78964221868997 10.911822987840479 11.613436056868313
B 10.139715382386502 12.386749731979993 15.551889577419262
B 15.838609595215196 11.538324792537223 13.121580608968996
