44
Energy = -244.32812048 Dir = /p/work1/plile1/GA_structures/B/44/all_candidates/11/
B 16.12774384260628 7.658548756613132 7.731858895934809
B 9.837764267232247 13.978298418276985 14.994315542189726
B 10.052091716133173 10.821862167379162 5.809543929337741
B 8.86746925669576 9.907701767049216 5.444474065504607
B 14.687818583484702 14.398239541520242 11.941151904646745
B 9.509360742702851 10.66466282198168 8.703422930181736
B 10.733625496879926 12.103795382194226 8.624524777747542
B 10.387974475710855 10.638543716904639 13.637825095357387
B 14.64596241651392 7.5702222867267945 7.4390805465133605
B 10.565937231738005 15.247133766807035 12.264756287976438
B 10.760939456981925 14.312578794608246 10.915103463545286
B 9.539518427022337 14.379070974088178 13.500750819645127
B 14.092198190030357 8.061792173457587 13.174643965398499
B 10.435808377245674 11.278185435077383 7.267247903049984
B 15.011918677506014 15.86533256882661 11.104666467185949
B 11.95105853050779 15.443436994823513 11.58706818871669
B 14.804574915010908 12.994606593088793 12.731123604056762
B 10.26992527769166 12.65860960550039 15.664321694753793
B 13.504823617320143 15.597008839903124 11.3267122932462
B 9.813578990101929 10.135019888617602 12.193788955864612
B 8.534168972256927 9.241579605246704 8.39834742355282
B 16.107685934616377 12.28358591257657 13.165924196482022
B 12.03168257734586 8.58323537652871 11.33477544532433
B 15.118440599393631 7.482972995326086 8.978460932352535
B 14.889021933330158 7.43410845325889 10.583644649438643
B 10.54401832430651 11.272218888977005 15.073659424810932
B 9.365806812707914 12.736019649903913 11.099402705736196
B 12.679410193168737 8.683192782612466 12.885014625737448
B 9.35335837904298 14.303057396904252 11.861526556859632
B 16.337924045850528 13.707585846789588 12.363404666539337
B 7.284701200415814 8.081831891052774 8.471029511253576
B 9.776922639130218 12.479121553974961 14.023715795204092
B 13.518221689020065 7.9601718789430596 11.558879908616092
B 15.056400853993459 7.4604468053998625 12.128682794563977
B 8.750162714906045 13.048870920667824 12.707153930466525
B 10.545762158592906 9.184810398484265 11.030891878407614
B 9.256012220052742 11.570745840076263 12.592191617314915
B 9.533248028505318 9.155812221719925 9.756400680171103
B 8.385133033191376 8.041992801931656 9.529379524324044
B 9.13233109263484 10.173824790062127 7.078234004253674
B 10.739824415943998 13.033399135396586 9.87731394227491
B 9.381240359159683 12.070296100860835 9.633704988985198
B 16.26298742766092 15.063902110164022 11.56847536585647
B 11.239612490368415 9.451134407873228 12.549729642099399