5
Energy = -19.20242909 eV
B 8.75661555510841 8.763837214359757 8.696557131852934
B 7.619990337822837 8.083822020771493 7.863949697553438
B 6.470855836631484 7.399388692882922 7.091566246701513
B 9.879269448583079 9.412831883934153 9.573006513823156
B 10.96873610642017 10.03558747261753 10.470387694634939
