5
Energy = -19.1989391 eV
B 8.944689013609645 7.0062908388503535 8.535524232216536
B 6.5787862040338 7.228657935436466 6.453946337009011
B 7.130895356127303 7.031558858436176 5.00347655235216
B 5.97506075644536 7.4393997151397215 7.834507452190653
B 7.457727568686809 7.19874938203606 8.090998807075644
