5
Energy = -19.94545169 eV
B 6.823313506819648 7.945014006559016 6.789232107012945
B 6.912060668625967 6.737058314766199 7.694378337392794
B 7.90225189722289 7.974829218362269 7.98343115979214
B 9.057440272858939 8.72560262860966 8.814592619757995
B 10.166792232710439 9.479354409940738 9.58022435428224
