5
Energy = -23.08102781 eV
B 6.404929020197233 6.762502327820223 8.505420165997167
B 7.535813488201599 6.550574346134393 7.406724562332191
B 6.0795921410207265 7.647114807680683 7.244441989126318
B 8.340358146162144 6.7334860307003535 6.050097209041939
B 7.059590343391068 7.647756303384355 6.023969218448983
