5
Energy = -15.58706104 eV
B 9.376665107780232 9.065866599268755 13.446514440578875
B 10.585784705307 8.869327674578987 7.643054991002656
B 9.50438731036721 10.407741596936264 12.668954528419116
B 9.384904927145424 9.135704545041081 6.738714788096989
B 8.717378036117534 9.219680998206199 12.044794078891897
