5
Energy = -23.0809392 eV
B 7.370353441474751 5.718223966299992 6.628567641484578
B 6.224581915929251 5.416189676744529 7.665857648674218
B 6.035355294199175 6.882100595582838 7.081398153426994
B 6.3216182657456494 8.190321438847942 6.2253757841636626
B 7.41666332749321 7.10515583260487 5.9048083835641965
