6
Energy = -27.55629882 eV
B 9.117094778094343 7.206545720663404 7.345363161098801
B 8.710626588100077 8.571608947139616 7.965973200940356
B 8.142164816030235 11.143968399348935 8.732902011445333
B 8.925448873307023 6.916815601051176 8.83863493010037
B 8.283533524678408 9.663868657341444 9.140562242795554
B 8.497293477445737 8.173354732111125 9.652726511275532
