6
Energy = -27.55783394 eV
B 8.120417164377145 7.17215007962457 7.62455197902253
B 6.598865925289907 7.690270586022482 7.209346159749979
B 9.543472384018541 7.210883567920123 8.246831206546611
B 8.874355496624567 8.520189402194344 8.682622648343429
B 5.693114940005757 6.8025174717924 6.3299073475120995
B 7.433750006897299 8.69942851954856 8.116089497196946
