6
Energy = -27.48911328 eV
B 7.5676804857337245 6.467451854174423 6.481466820404387
B 6.6435636691646645 5.541975035564723 7.4586674725377184
B 6.648606604391518 6.817359339359962 5.175174555598057
B 6.075415789079166 5.485467358263909 5.925430680714689
B 5.760358123663189 7.612102405641555 6.210469244265757
B 5.7270149705627915 6.822532726155463 7.583094553507924
