6
Energy = -28.55234128 eV
B 3.498896356036268 4.429101380715186 4.1515515976251995
B 3.2492134935111983 3.3542611833377944 5.208527861733205
B 5.809065199126398 5.17806172219453 5.62020368230259
B 4.561279302418063 4.183779250638913 5.595680266477858
B 6.079500847868976 6.226058324682705 4.544012295811689
B 4.738602726425665 5.430705268006954 4.1847849838664155
