7
Energy = -34.48423495 eV
B 8.808765320288591 11.144400071927944 9.459465340863584
B 8.372935730560942 11.059781239318738 8.023837232280197
B 9.138950331283041 9.766946848461973 8.475329396439529
B 9.864971470429296 8.48689119933669 9.209339074832469
B 10.196980606070062 8.638260465209155 10.892987659481282
B 10.496391705917514 7.381722115874588 10.127503858832078
B 9.51699445705133 9.917988559871175 10.20752793727099
