7
Energy = -34.19238736 eV
B 5.851168286700413 8.18886841438626 8.973902123433987
B 7.1995547635886625 7.5050397918767455 6.109119345438356
B 7.572095997435378 5.798689173682455 5.92010094610318
B 7.9392202109404755 6.803629786819445 4.788307181226542
B 6.179830692211375 6.700834846432661 8.649358286627349
B 6.529537283337793 7.951198214680711 7.469304809219098
B 6.865424311183801 6.2109635371835665 7.292067173984637
