8
Energy = -41.87263499 eV
B 7.825909210508888 8.917894364929243 6.475643625733313
B 5.567423627079943 7.467098221640736 7.3332170649676325
B 6.289328105522996 8.65505328733649 6.626754973461847
B 8.96909142098092 6.689992583483647 7.767246263438871
B 9.014946137891867 8.02967653777764 6.964059798565791
B 7.3682481113846485 7.398001508796136 7.331125963872072
B 6.20283441043014 6.249030516509834 8.083047533842647
B 7.717365192812816 5.907834125268852 8.279076501714751
