8
Energy = -42.37432523 eV
B 7.700065758400939 6.500346865493957 8.255097789731385
B 6.528193303448773 7.524814466061016 8.38281463583024
B 6.728091433850987 6.761782669212248 6.763962188811448
B 8.148394753756108 5.681149452253517 7.0046573606388005
B 5.495816359421699 7.958732447564112 7.2946278153585284
B 7.526095834667319 5.674311018309552 5.570769300139209
B 6.291838502193003 6.470747686454499 5.0434211157478375
B 5.382160599555794 7.482300058847884 5.812918723636057
