8
Energy = -40.23271196 eV
B 10.83934161446781 8.428482995857976 7.066920525713273
B 9.73497431056421 8.368805726565881 8.26345322034744
B 7.065189545970003 8.64274490791026 10.24431744397098
B 8.253786666886993 9.137001803203471 7.72806665325291
B 7.07667709470673 9.187254290955533 8.805244974010499
B 8.215133916604737 7.962641862920976 11.015501393384982
B 8.514950926686286 8.421075251674841 9.348144249965403
B 9.490666741734586 9.042713978532168 6.7190723569759925
