8
Energy = -37.44469327 eV
B 7.8433943109561515 6.571031710735411 6.383960107624452
B 7.4055946004927415 7.930397951881146 5.532803423679404
B 6.99677816066408 5.944542701309438 7.591073271891203
B 7.405277321040666 6.514750244409948 4.7879423022273
B 5.967819173032125 7.118198624280642 5.349233309983236
B 5.55637977675259 5.151925878060928 7.422410998510933
B 5.564975752447167 6.5791153244315455 8.150456847016233
B 5.117669144162788 6.484566240297694 6.550253874406101
