8
Energy = -40.63300377 eV
B 5.915880113143794 8.771057283993766 8.102754367751889
B 5.9911500039912715 7.1313476544759125 7.675453207166676
B 4.624218823525577 7.949690534114909 8.075446256495246
B 8.780142357671346 7.63433541810124 7.229369149336426
B 7.419250437484453 6.521249889048476 7.251600664415155
B 7.357889734409615 8.231694368954894 7.681913484501373
B 10.123953852558648 6.857218281619792 6.69594655971743
B 8.861542981681742 5.994917569605399 6.8020141873813
