8
Energy = -38.89460985 eV
B 7.128253661158461 8.91553051751186 6.626257672498916
B 7.527528825984095 9.651195189784007 5.321842561565395
B 7.6573761663240285 7.501869263705853 7.47960531227297
B 8.689887023624571 6.251668981450151 7.462803766971119
B 8.824030128154938 5.138308387397516 8.508412675497425
B 7.680026103762558 6.237485984881423 8.859288981637826
B 6.398314464268843 8.586011424504948 7.931532919473005
B 6.636678714039561 7.412298402527013 8.932607935694469
