8
Energy = -40.23112188 eV
B 8.244244535399394 7.74982200201912 6.701886761578702
B 9.345176393132169 6.621880181287473 6.443656397255235
B 9.402907237370622 5.291317185501115 7.181117715906978
B 7.0451927491465955 7.390635425819696 7.986303979821728
B 8.196587543118305 6.278579617651959 7.654714280853226
B 7.106903725985426 8.81986550904017 7.034533376216505
B 5.984083241822158 8.742445312087344 8.080117819014577
B 5.698159705314756 7.613549255568584 9.093435631933962
