8
Energy = -40.63619774 eV
B 5.2751059948922405 9.388195447843277 8.165167608827954
B 7.672358211670357 8.25911167989204 7.329287445183699
B 6.84797146424587 6.697728892299655 7.259636830544696
B 5.988765249856621 7.97331131564821 7.722472779948547
B 9.257190015971824 5.564711978146829 6.464101730439076
B 6.752293741054564 9.484783869471357 7.779144239547925
B 8.538753710983055 6.9824431797363955 6.881648955973055
B 7.7663043135995435 5.475529736454157 6.7950463556237235
