8
Energy = -41.31725573 eV
B 8.503195229409258 8.978097741025659 6.536606453093747
B 7.215154104738276 8.963527113899477 7.395849068623582
B 9.6168025930499 8.908292169869098 7.612246460855529
B 8.368436846887274 7.62200226761871 7.702819607442334
B 7.253748957047432 8.554569116555971 8.93598772327963
B 9.291907361769443 8.495638611426408 9.116354580893525
B 8.221016154512036 6.971413632597216 9.134443908071118
B 8.1576244263905 8.134345020811342 10.193577871544651
