8
Energy = -42.37612062 eV
B 8.929518512877136 8.573732278932525 6.57330252503875
B 6.536374435206664 8.997911120054837 7.991802085324526
B 7.924214860864076 7.18161372015517 9.631717071180413
B 9.706824922550075 7.5788965093498595 7.491565739337766
B 9.260569738968572 6.962769491159885 8.856207661996834
B 6.709156317906718 8.083932027133512 9.245275206049037
B 8.082806360453004 8.081947866186551 8.083150929234991
B 7.523983645753413 9.212645781606977 6.800427576417114
