8
Energy = -37.99328984 eV
B 8.378835342361286 8.069992116669638 6.45547611618501
B 7.335841815992311 8.591085326199815 8.483179441009417
B 6.820465214613782 8.339139016546683 6.934781107852615
B 8.541033390313492 7.6790997926514795 8.911447861563824
B 6.250441054467427 6.791757940272377 6.981579014107071
B 9.270214596435782 7.348334599957232 7.5281919191938504
B 7.678014469771812 6.814844419082463 7.754102379094257
B 5.076832662597175 5.868513375006671 6.515592782196694
