8
Energy = -40.22893822 eV
B 8.117090123595544 10.132537356715162 8.32023224596524
B 8.922696927331604 7.471571942992278 7.775487738635825
B 7.164413789608694 5.355235271789428 7.566237182353887
B 7.24127998783584 6.957657128661916 7.831976759899778
B 6.577946085406149 10.0135739780982 8.334129123052556
B 7.515065031443823 8.540792909513504 8.086954203696449
B 9.151982477482617 9.031770252160277 8.037013203686605
B 8.573019692489154 5.934727033361522 7.530532862886228
