9
Energy = -44.99959957 eV
B 7.821640277639677 11.098699421749656 8.332429425397887
B 7.774210640283399 10.196076159426942 9.546785697644701
B 8.283029957558243 9.687257918218108 7.848858304553182
B 7.9483034335663305 8.665723705986425 9.513822857516608
B 8.775510452504808 8.28176084684709 7.1831063898910195
B 8.345000026550506 5.8772076369286355 8.182383297373685
B 8.18705299790657 7.107497389978033 9.123916867150513
B 9.456119653661807 6.997613681775569 7.855772582622918
B 8.034628923348215 6.80569488112696 6.911723812733552
