9
Energy = -44.06682301 eV
B 5.854605671459693 7.403005735226984 8.189609762858735
B 6.080028301537432 7.298303990729012 6.475250142478093
B 5.732081292308455 5.873064083723926 7.38909234405908
B 7.374357471596367 8.376940774866632 6.088957296163319
B 7.353867344822175 5.987017744990747 6.791969513094547
B 8.565755915495588 7.156367787373741 6.387042752148554
B 7.040825192644399 6.1764590559644565 8.481447091526203
B 7.480550585022638 7.628910538132198 7.64718728647007
B 7.26148767349852 6.8434897373769665 5.293003259586423
