9
Energy = -46.5937002 eV
B 7.548870030793771 7.2616209651120736 5.435697378922816
B 8.668120146803384 7.283770843429052 4.291243722177961
B 7.351810683695286 7.110058685241414 8.319954648289794
B 6.592518871482423 7.266220783378282 6.724666742080151
B 9.247960912694255 7.151664101528058 5.7261799605579915
B 5.6261077387382254 7.3187110452751005 8.006621639871584
B 8.338324375463138 7.101214050365377 7.008051281582001
B 6.381929590154532 7.174056536875123 9.553734690776885
B 4.847066364247668 7.367823901665323 9.404599169604223
