9
Energy = -48.0106592 eV
B 7.372145544594752 8.054337549275752 6.0342008306919475
B 7.123983930218582 6.631935548128315 7.351208793665713
B 5.435603057734913 5.709015908283004 7.643972887783618
B 5.28424237945388 7.23634121448907 7.642584350138659
B 8.014663907911569 6.7304374753768546 5.608501969632939
B 6.130442427477813 8.283673254172118 6.907098017054328
B 7.602250627373243 5.298796568314054 5.97939241115423
B 6.453268711534152 4.8463653392144845 6.888392703575892
B 6.096584493944846 6.554957962274337 5.9933839185990925
