9
Energy = -46.1588266 eV
B 10.055947520010692 6.215277502358888 6.200139971466327
B 10.004486104703167 7.507007863603609 7.046091615248191
B 8.624295000697277 6.478944231914056 6.801055575687152
B 8.700035880470445 7.935407760077828 7.809146484765665
B 7.242156200366015 7.0346556238206395 7.440842850150596
B 6.667725415720448 9.67027277840764 9.499033798380326
B 5.540980288521668 8.88961179394511 8.739135795754986
B 5.848872945498905 7.622559123888391 7.919245846395535
B 7.257449173330196 8.488244354785312 8.447142410485462
