9
Energy = -46.63149247 eV
B 8.248749020652458 7.821725937591692 7.537045883630901
B 7.9846488299087435 6.880091359822665 9.03583216363634
B 7.892470506232572 6.001592790783197 7.744620079857634
B 8.153039319023664 8.137466422779527 5.975362875499253
B 7.737254851534572 8.380306182600645 9.377974327973282
B 7.413082173560552 6.4001531023342615 6.311727045858381
B 6.6277935549243425 8.315052737381913 8.284351680438956
B 6.872150620302536 7.529852942004307 5.300233162645241
B 6.373845758980429 7.956034076840979 6.743481842904937
