9
Energy = -43.24237051 eV
B 8.922944838510793 8.725305715960616 7.6955744969813695
B 10.441202430344102 8.670683513142365 8.375470695571739
B 9.680119391192845 10.151852121012817 8.433272020171213
B 8.694018429471825 8.4944944348512 10.499275447513444
B 9.377977587598975 7.693398294538838 9.208053475298934
B 8.027250034598987 9.998083754386299 8.287407058131603
B 8.481760249476093 10.029462372173274 9.888789792417576
B 10.135592328582883 9.118277762638987 9.948390915896196
B 7.724324710223373 8.60363115289665 9.148956537217721
