9
Energy = -46.802863 eV
B 10.10407948901413 8.29317689115293 7.284883200649296
B 9.865168347555322 7.00854040417302 8.092354371748872
B 8.790701491719727 9.189276076475881 7.354919451315157
B 8.39575684652213 7.076930143294415 8.720318108672236
B 7.24961582801493 9.428700725124845 7.765149388329689
B 6.902966388759442 7.686364807993054 8.80979034959347
B 6.380997115756146 9.123660217542747 9.003776560365596
B 9.509417856401397 8.501242491385765 8.894469790923102
B 8.056692168144389 8.947503774745428 9.329734310290668
