26
Energy = -53.83908030 eV
Ag 7.302539913115158 13.605421181769724 12.028804639692526
Ag 8.630480945073145 11.27265864232797 12.75537151594427
Ag 6.841250120100231 11.259228822193307 10.464854502107592
Ag 10.20914817702472 9.00165001769063 13.511637668179613
Ag 12.746260864210347 9.577965268434443 14.98619270777677
Ag 8.270539031288015 8.881206407912906 11.178391242992278
Ag 9.987885537677299 13.877882300883247 12.851405087336758
Ag 6.6914166845211165 8.885731109258222 8.869786145412336
Ag 12.777501355301878 14.018094501371438 13.548522155744426
Ag 9.278356638583865 12.765898298300254 10.313066607170414
Ag 14.043354179107565 11.338155246395797 13.292581618584343
Ag 11.325129544309277 11.575183349656164 13.651642275147244
Ag 8.778925805852056 10.649809238225028 8.546900060988957
Ag 8.208943485500884 8.907197667525626 6.490434921623917
Ag 9.370468220831931 7.799540112982421 8.828249493298797
Ag 10.633867046242015 7.346885685534313 11.282706162718352
Ag 10.698352778420807 10.351312367071415 11.032051717884139
Ag 12.765831294777524 8.87102207485009 12.299898951030723
Ag 11.318693157314168 11.81509528943752 8.643546636757012
Ag 12.002281085062872 13.026158718645247 11.10180088187606
Ag 14.712976795263764 13.356414549989356 11.546546318613407
Ag 10.870792564625383 9.509684212515314 7.0504085868151165
Ag 13.729164089735557 10.795213547451533 10.488654319670802
Ag 12.224323105968702 8.666465909521031 9.404778819733272
Ag 13.491222126258362 10.469331084001936 7.639948533616731
Ag 13.814903794704897 13.05558856145163 8.867142356768614
