27
Energy = -55.38855438 eV
Ag 14.240341995692843 9.690807183156494 8.306579765265807
Ag 11.858452054136333 10.391358786679904 6.752457521136104
Ag 13.255694977985106 8.52297532639815 10.655212818766994
Ag 10.425352140861685 12.570865530662964 8.081257930914866
Ag 11.932542149789315 8.063596198137832 8.18304546297167
Ag 13.354089473880743 12.35790031608584 8.025581240446767
Ag 11.938593690732283 8.115444105322387 13.07069641487605
Ag 9.533824627913681 9.551262603023725 8.200321562884431
Ag 15.851885463864434 9.305164036116583 10.77720791820849
Ag 8.522257740942646 11.56292104389875 9.848912494046502
Ag 11.593822310915234 10.672297996923307 9.70953788130308
Ag 10.483087954789491 8.240355496997454 10.64554951455747
Ag 9.440349474474136 14.084974285534658 10.395057830880406
Ag 14.164081786823683 11.485303035272723 10.591511915685748
Ag 11.080344343194067 14.739594852260195 12.549941609779866
Ag 6.8111647277271015 13.432656646810745 11.087302956838656
Ag 10.395204843483915 11.839262086699474 12.13481006482114
Ag 14.086594180401457 9.971167340227808 12.940411112640666
Ag 7.854981689208378 9.018115832461383 10.637240700649274
Ag 9.392586254279898 9.231980855130386 13.067742718949944
Ag 12.131676371744184 13.404817681938667 10.329101674885637
Ag 8.52843907560655 13.711339302913675 13.355252075215782
Ag 7.522175708118744 11.181685546507433 12.496254385784269
Ag 12.996194609768336 12.587195085595665 12.941184691874081
Ag 10.907914017270883 13.250675128737129 14.867761236745338
Ag 11.661201065314591 10.569956265314318 14.405584578645662
Ag 8.937621460446122 11.34680162055878 14.84495611059174
