42
Energy = -90.36790832 eV
Ag 15.458318187667558 7.91898414371635 13.432663722105232
Ag 8.644929292044218 11.508117707890754 16.610859689892415
Ag 10.979133812331085 10.117893818830309 15.853390811681306
Ag 12.942937375164322 14.671682339073058 15.167842476926728
Ag 15.206418910399256 10.98090418810219 13.55504315730741
Ag 13.43627831233999 11.835967069638025 15.654749977418902
Ag 13.246962108000588 9.069563654509453 14.646353964840324
Ag 15.457630964000092 13.52061097224661 14.573546359258616
Ag 15.070553446075285 16.085561804637784 13.692095234507835
Ag 10.819023613801097 12.949753170950824 15.607856961181062
Ag 15.338498641066861 6.9978979294144885 10.84373189792751
Ag 8.26626271910523 13.5113750267558 14.613869462681512
Ag 10.33136587152261 15.455129884859957 14.37550359413086
Ag 13.61273962023402 9.526196509089512 11.84864972267141
Ag 10.766660889005202 8.698657080261565 13.075986520672927
Ag 12.856950847807065 6.943108538536608 12.193308243753759
Ag 8.975286721030578 10.812565366971452 13.959502369975661
Ag 16.435137938346507 9.524544771769378 11.342312202179906
Ag 12.503155566491833 17.121330953287153 13.818455153140299
Ag 13.342373964003334 13.41063124621717 12.621893304034648
Ag 11.883558005934798 11.196482831343912 13.413898127414248
Ag 9.517468072342588 10.497701686590098 11.248325625121101
Ag 7.605184224325513 12.422253467753425 12.080363672682365
Ag 8.281706329699706 15.273414208540306 12.38306245302877
Ag 11.471297457735519 8.72208397315092 10.250768823268732
Ag 13.123370510617086 6.718811995842271 9.246375208724903
Ag 10.371014047700523 13.349449899243115 12.508872418233132
Ag 10.820902891533448 16.364070995122585 11.769908748590757
Ag 12.002370123138759 11.773887161515951 10.699393708118567
Ag 15.75765462308805 14.29178190252082 11.660408741796134
Ag 13.638301428155776 16.21568594835039 11.335611678328036
Ag 14.543468666520802 9.18945289690134 9.20785753066049
Ag 13.654654209215781 13.987240067091381 9.673476738051937
Ag 6.712769217941372 14.343681221120425 10.26082360216194
Ag 14.91783804924112 11.752709643944154 10.695751797611681
Ag 12.342867433091547 8.81844598125215 7.512440175660516
Ag 8.65821957437003 12.517781478673275 9.44723445286956
Ag 10.510266482541525 10.687088194454667 8.535181244852867
Ag 9.296486356588117 15.198516018465714 9.729391103262945
Ag 11.112965200305434 13.475593665464979 8.497432305448841
Ag 11.877174367496 16.09694638089513 9.16842670055892
Ag 13.257573472548165 11.494173749573847 8.235109861834994
