12
Energy = -92.83624274 eV
Nb 13.015522417745142 12.188349032979806 13.112497006268189
Nb 11.07371038057878 9.91470312091371 11.242759320283845
Nb 10.94947156954038 13.773437816658982 12.57954889785581
Nb 13.76967711767673 9.61776633909743 11.84488458211415
Nb 10.142340242716761 11.424810628482659 13.498454841202614
Nb 14.534998139106005 11.952835486441266 11.01871143792812
Nb 12.097379739384651 9.841923194365819 13.704944682230487
Nb 10.894093370537078 11.39201402022978 9.033249043007677
Nb 12.307490025841192 13.096096365347968 10.378463345001823
Nb 13.157293729114146 10.427001992515498 9.434235719254382
Nb 8.322932579217444 13.409064468068467 13.128135797520494
Nb 9.48415068282053 12.246691729937014 10.972675421493795
