13
Energy = -104.03783761 eV
Nb 10.783402865124009 10.869346958322451 12.336647264150054
Nb 10.554227328350565 12.527625367093478 10.011299168712899
Nb 12.529628460733857 10.918539602958013 10.455788313160763
Nb 8.403581437102542 11.714821596092932 11.486909448025031
Nb 11.322706112242134 8.459125082061464 11.150073024273249
Nb 8.921235014929943 9.146905015288976 12.322210513552443
Nb 7.2441908102409975 9.79212778211748 10.24196441239135
Nb 8.392503034159219 11.738620408614443 8.814118898840716
Nb 8.852737969670017 7.668180186151007 10.263990291581553
Nb 10.866866962682243 10.768838518476748 8.006963465491836
Nb 12.717469324060827 9.136053407599567 8.804525414439368
Nb 8.613034676252182 9.312232962004952 7.927883902296829
Nb 10.676817005263382 7.847611861192784 8.467522200077221
