12
Energy = -94.78808748 eV
Nb 8.046714417669243 11.858557725696537 9.504644932389361
Nb 8.209267096006517 6.123679440501369 9.523400605943419
Nb 8.187379362503581 8.978611691768792 9.51573055579299
Nb 10.56836346865972 7.622311664480533 8.332677767247873
Nb 10.104188450748097 10.52695175683263 8.23664200433225
Nb 6.5199926292173425 7.945721014536028 7.7219418600947725
Nb 7.111220606471563 10.547429536563437 7.584265142852507
Nb 9.659645583826476 7.255769911102811 11.018751867881996
Nb 9.335404605178471 10.70808791785185 11.154494495671328
Nb 8.938853883152124 9.028538976435192 6.488902792411534
Nb 8.48773799803091 6.576824872984915 7.042956112942566
Nb 11.189500132264335 9.18578325751718 10.233859862439271
