13
Energy = -103.86067657 eV
Nb 13.845994316098126 10.735651397016555 11.611280113309181
Nb 13.885286290643467 9.888089653506887 9.26506179998196
Nb 12.518837045539374 11.960713044447651 9.48681305895285
Nb 11.66227868014821 12.129665978094373 11.860562820060139
Nb 11.818907366697518 9.292256974945595 11.160544143873482
Nb 11.389857831719059 9.427477039652613 8.518135286966986
Nb 9.879326357607368 11.119027918373295 9.816566470799696
Nb 9.549555820315637 8.192416794119067 10.332304782757054
Nb 9.724302101417218 10.322752215006792 12.52306470713185
Nb 8.24478894941273 12.190725688915133 11.631076877220789
Nb 8.335161623655168 9.408596688903142 8.490463188502662
Nb 6.967279909730332 11.316575438995715 9.55840425775522
Nb 7.492974975683776 9.56737002669628 11.210673075313476
