11
Energy = -86.38886961 eV
Nb 8.599743524531519 13.128941921696384 11.885766818599777
Nb 10.707252119381911 14.691741299395728 12.49030687291261
Nb 12.578916423224806 13.804586055169777 14.02267614193291
Nb 10.724042078068393 12.733761939255121 10.519162992277156
Nb 11.199505833826402 10.462912244934454 11.706696776452516
Nb 13.128400123093382 11.965222180722003 10.219509958911589
Nb 12.568782201934386 11.181059903030594 14.118548566423879
Nb 12.969508873656029 14.347572676782544 11.295355128656471
Nb 14.442157388532326 12.750261551497067 12.637684659345863
Nb 13.77036300477949 10.318514068846913 12.048854857282304
Nb 10.302076723546465 12.133572384641234 13.503870527317945
