12
Energy = -94.57489177 eV
Nb 10.057381120718233 11.369335685978177 12.163489231537953
Nb 12.337322683787228 10.3754645428871 10.95815307873257
Nb 11.117225911533964 8.99410402362296 12.966797692288758
Nb 10.373088183023361 11.552402037170648 9.427872885689602
Nb 8.549411458212735 9.425986974810211 12.739614219405174
Nb 7.97428266987875 10.794036733415021 10.358733441843544
Nb 9.729196247884781 8.845377512236865 10.448947388273803
Nb 8.224016236822635 11.967120294563477 7.800655017084706
Nb 12.147799743765807 7.85788017901925 10.854189452619607
Nb 11.456001871705759 9.26998066236823 8.527235593979949
Nb 8.607140375370276 9.433473453608384 7.868485548166151
Nb 10.225534741027237 11.060868137078884 6.737079056527843
