14
Energy = -110.54996081 eV
Nb 16.962560686288032 13.648021702654857 12.071013281902607
Nb 12.438528945099529 13.061724466612102 15.474542325093488
Nb 16.52732715667914 11.463809544112078 11.979879122331877
Nb 13.62147899932059 10.940424527935514 14.385693646293383
Nb 14.738185863121087 13.122338225963828 13.589626657640618
Nb 13.48648327728759 15.245092122901939 14.6023182400212
Nb 11.318507500866154 11.366657478695538 13.229952903980413
Nb 11.001877239230138 15.293948351663706 14.353424921886457
Nb 14.419066032372506 13.249824552968267 10.922213404186074
Nb 9.9785902986263 12.983435862217691 14.716495813873603
Nb 13.78955264319146 10.921940747066559 11.862551952533408
Nb 11.832808010555311 12.456629882944538 10.888085893750675
Nb 12.812702869233247 14.926043218101862 12.13722779771114
Nb 10.292992898768444 13.93887157999519 12.256540871707838
