15
Energy = -121.3535292 eV
Nb 12.380850902861736 9.526863882815961 11.674520432048663
Nb 12.870849004199156 10.239962167852843 9.086917712002228
Nb 9.959753743320896 8.566938467189479 6.785435025638553
Nb 10.016367128436828 8.784431646536756 12.40173430651529
Nb 10.844133285501778 11.294651347458604 13.353561208891131
Nb 12.404033592456988 12.096013907940351 11.46748783039158
Nb 12.159926842036434 8.270518145798274 7.476771444134877
Nb 10.937911045229518 10.857919160740407 7.616896592957999
Nb 10.579610173156459 8.508179775865942 9.660993392024228
Nb 9.646876067773889 13.1249851939621 11.876877179051302
Nb 8.280704610977343 10.954216614782746 12.759726548168649
Nb 10.288782797211503 11.068999054454281 10.337095338260383
Nb 8.004031495665366 9.03221849361256 10.807100844353887
Nb 8.46559985842242 10.167213684695968 8.537356350659008
Nb 7.557421018821757 11.824638855729726 10.565699253661613
