11
Energy = -87.12513562 eV
Nb 10.503413861744626 8.795188939500873 7.123025490652082
Nb 8.18151851856471 9.391675206592975 6.119102405749182
Nb 8.252801230826043 7.1837876278587 7.456718058800307
Nb 8.948890370087486 11.099133586373908 7.897771972583795
Nb 6.703952823476426 9.483184052164736 8.255012494066534
Nb 10.054602524092632 7.49063734325086 9.344012683717562
Nb 10.991873260227406 10.251037603233938 9.126225723668385
Nb 8.282873747768456 10.11673950107397 10.235978331959661
Nb 7.1549844657584964 7.4630914127543955 9.711095236151712
Nb 10.584551984523987 9.238306713994431 11.39237064456393
Nb 8.680054303648662 7.8267351039203 11.678204048806364
