12
Energy = -94.5775357 eV
Nb 9.04351639766507 9.994084063692375 13.60458146646737
Nb 10.047045742581824 12.302996516410834 12.921875300705679
Nb 15.051572847005227 11.749048894759666 11.69316334139565
Nb 12.070553826607645 14.479242273399485 12.388642590863872
Nb 13.75238129439948 13.662423841480434 10.22726889269013
Nb 14.622721664975298 14.124621669069107 12.526643567935626
Nb 11.26493886025432 13.210297269345318 10.28796872793384
Nb 10.449989294006114 10.751576674523749 10.922181008269122
Nb 11.477169345775783 9.511958971879908 12.886496310704889
Nb 12.658623412710474 11.93942179582767 12.771558172926834
Nb 13.060411756035553 11.042390367757854 10.19999330246996
Nb 10.953238480545284 10.825424658999719 15.015668458685745
