15
Energy = -119.55042523 eV
Nb 14.74392729137885 11.453903929688595 12.468595254757972
Nb 13.514717974588534 9.959691438994586 10.853135505810972
Nb 13.578371624536702 12.917986754188783 10.546835687409263
Nb 13.712122137027173 13.75985477698302 13.100651481081487
Nb 12.394070124240121 9.916436429129881 13.326818962856198
Nb 13.486003395003081 11.722278434165144 14.754896327908929
Nb 12.278836987738734 11.203405643011296 9.011165394699177
Nb 11.231045839649841 13.655109656379901 9.652500790174166
Nb 11.51311750884803 14.425841538731012 12.07912275824852
Nb 10.881703322353273 9.656866221873011 10.89080744284852
Nb 11.20578150923805 12.554308832583635 14.047477196292583
Nb 9.70564550749902 11.601262443744838 9.137867883163493
Nb 9.563154006147535 12.71996071213288 11.742478461855109
Nb 9.865261164150047 10.414346182050854 13.327290643597376
Nb 8.485436800633309 10.53096855709731 11.082309660552093
