13
Energy = -103.39465464 eV
Nb 10.855495314557905 9.571871658627083 7.213548936240529
Nb 11.421729957394739 8.006978308887634 9.241452999570347
Nb 9.010527297100985 9.179512256335144 9.457340442787753
Nb 9.232616157681004 11.451099250587504 8.035764187996447
Nb 13.082782688671813 10.001874752659361 8.602078906927302
Nb 11.823607801045455 11.966878443658292 7.955050983424366
Nb 6.8630656812893776 8.44779209692844 11.263939716864641
Nb 6.829051729262857 10.60994756641806 10.066592616835102
Nb 8.987199047165545 7.1858749030459395 11.238430722905072
Nb 11.087427981437374 10.806859168446792 10.38621031594611
Nb 8.808956771258615 12.097572069770724 10.533718668255863
Nb 11.031625899928851 8.572257814371124 11.75636534130757
Nb 8.864103840718052 10.018473056017505 12.15414408913393
