10
Energy = -77.39751583 eV
Nb 11.039110401357673 9.164419868011022 9.24403279417594
Nb 9.250794276488582 9.79724905214009 6.7621150637479115
Nb 12.48575083750565 8.76137487140723 12.001018905701114
Nb 10.818540613770185 10.220568145267588 13.331339531831848
Nb 9.97352497539046 8.555520289430518 11.589099003497786
Nb 11.688903021425922 11.00166559784995 11.052467568776013
Nb 7.603187836499128 11.325649014970928 8.043403202293304
Nb 8.36652434344315 9.109355492626122 9.052960245461621
Nb 10.120383810157573 11.513230808487318 8.449941914993525
Nb 9.055491614917754 10.949484568729337 10.823806169337159
