15
Energy = -123.70219696 eV
Nb 9.03351957735069 7.843088688667355 5.921342376631436
Nb 8.138364328237765 10.11263567924138 6.310572435791281
Nb 10.782925961310081 9.678100920493836 6.9189977883601586
Nb 6.547225396121724 8.156640968440465 7.565134733217034
Nb 11.065760472990684 7.366886300259074 7.850757394933272
Nb 8.371716685954896 6.100966251690239 7.838211486051014
Nb 9.564288076447204 11.467039351925576 8.661617734335616
Nb 6.866148837144389 10.945873635962137 8.6367946832713
Nb 8.73755370239779 8.754190976998757 8.727056073460158
Nb 10.928148591205417 9.337206709501183 9.900506651538832
Nb 7.25698169275442 6.5862093230138905 10.05942216679878
Nb 9.970503378592396 6.469014966485239 10.110679967251125
Nb 6.352852069249242 9.085202404118352 10.242284473043757
Nb 8.511172683478325 10.850922325651162 10.809869272176865
Nb 8.933501527183397 8.306684477969922 11.507415743558195
