10
Energy = -77.70518787 eV
Nb 7.438961904503571 11.496506622291152 8.439833894561739
Nb 8.098962554110715 10.856753339425362 10.872374998030393
Nb 12.415341180801263 9.246290154284656 9.182481222021668
Nb 10.08649657083423 10.413578229672057 9.261695341027055
Nb 11.029683175981924 7.590625094267576 10.35925629336058
Nb 9.650511136882946 8.050469355872988 8.07357909799906
Nb 7.294351044197492 9.019408777665324 8.80290316398021
Nb 8.58683846352967 8.374202230738414 10.921098378692182
Nb 8.937799997093178 10.25910774465475 6.900937656204313
Nb 11.028108237303899 9.765396459378982 11.570496416890498
