11
Energy = -87.05325969 eV
Nb 12.131542170300031 11.181777784385455 10.182522473415808
Nb 11.847092744326478 9.567969512100508 8.331308692177405
Nb 11.484054763006311 8.526983721758223 10.731019264235622
Nb 10.269204113416832 10.929883986032488 11.79005124211801
Nb 9.76760170886348 9.690320962999408 7.060916592230131
Nb 9.867917114940408 11.618849520447 8.98750415959044
Nb 9.17600448776685 8.610490781375129 11.820235616466835
Nb 9.6263034564233 7.83883443723495 9.053411344979077
Nb 7.975852258492608 10.977722956213562 10.662172960064904
Nb 7.662880875985196 9.883176134174379 8.289265942126306
Nb 7.3361496550625205 8.321650267247293 10.19164419830722
