14
Energy = -111.04916943 eV
Nb 8.973835741090852 9.230285898021284 8.61753817601666
Nb 12.032571770584864 8.880481667730301 8.330798691601718
Nb 5.9986038036563025 8.827740593788034 8.597441259995215
Nb 10.20028979333058 11.42332428702246 8.001716735428218
Nb 7.8651983832686545 12.021011137528053 8.603233661855556
Nb 10.789359363649197 6.749521352055984 8.353268815497136
Nb 7.660700167151306 7.0830889379391575 8.022417420270973
Nb 9.095126812274959 10.81180188531604 10.928137194744508
Nb 11.427336824196553 10.695793059510184 10.103798018583314
Nb 6.457208449871258 10.696522520249987 10.058604365780308
Nb 10.711189567733264 8.231093660911599 10.765017427172001
Nb 7.668596356008518 8.377731604411453 10.947673118017878
Nb 10.171791396628576 8.529342472780648 6.496680555978878
Nb 8.903067570555354 6.397136802818632 10.12855067897339
