11
Energy = -85.28057781 eV
Nb 9.33562475097745 8.085107997791454 6.805270974305047
Nb 7.760817597496656 6.382357594652111 8.165285293649607
Nb 11.131793033691775 10.68471328820267 6.965133372045778
Nb 11.441330441863549 8.701104924663912 8.364612072701696
Nb 8.90194727979119 10.488726989799732 7.8692809225769285
Nb 6.855152837244751 8.706395892269477 8.098072554670322
Nb 10.431418766567594 10.536798921803348 10.048880902084369
Nb 7.576559162291928 10.32959742144159 10.241189422033868
Nb 6.9682417257479745 7.756009093402634 10.588046865783964
Nb 9.03824045871968 9.247814258943688 11.950188224534372
Nb 9.349873825691281 7.872373617029258 9.695039275697884
