15
Energy = -123.06551546 eV
Nb 11.679193219519263 8.095970982747858 10.493609948171645
Nb 9.424568730256095 9.40702081377923 9.376337258559513
Nb 9.990724095454729 6.534476539852177 8.934841826273336
Nb 8.236670705362332 11.821434657282502 10.682625393166022
Nb 7.796853435598031 10.796791426478158 7.892835323959115
Nb 10.441510832145227 10.356939816139318 6.755865697239168
Nb 8.773469626881155 8.252153256089347 7.077910268576868
Nb 7.42073971642498 7.7623145943004825 9.51954145600842
Nb 6.405151563326363 10.140411013014582 10.022346807741908
Nb 11.610693469124426 8.235090846067491 7.83059771494191
Nb 7.898686215746885 9.405780973533204 11.981544333808783
Nb 11.978803790506293 10.5636147082136 9.052597953031018
Nb 9.387854898268168 7.339483791435809 11.416559756152704
Nb 10.30089948294273 10.454619677745267 11.57234539653689
Nb 9.98108271844361 12.160799403320672 8.71734336583255
