11
Energy = -85.74703553 eV
Nb 8.624722759024596 9.061534012220894 6.022586893781027
Nb 6.407103701099459 9.749853869288918 6.549426256818987
Nb 8.619473342191492 10.599996347827165 8.25492970327776
Nb 10.384026760379557 8.415002712303263 7.793020769011484
Nb 7.670780376379357 7.630586507292463 8.120318950908809
Nb 11.676494411710555 7.911068545723682 9.813583015701628
Nb 9.336252086399492 6.641719127768443 9.785768474976669
Nb 6.139228895902847 9.719667779958472 8.91526553143789
Nb 10.514306390602243 10.306634898876945 9.939081326915796
Nb 8.008968047636992 9.055687530130431 10.561579388637895
Nb 10.067519359466402 8.357124799402335 11.69331581932548
