12
Energy = -94.77623929 eV
Nb 8.033424612565415 8.402650544254847 6.73475903607688
Nb 8.424582416251951 7.149815816043057 9.218569130774743
Nb 7.877235632554718 8.435979454775987 11.84333918422002
Nb 10.205534222200935 7.315368106006176 6.730613618184914
Nb 10.595802123368468 8.652587991261402 8.984469000945191
Nb 10.081332324802865 7.406808686529009 11.34737095864211
Nb 8.235257583763985 10.898231667753183 6.941047419720166
Nb 7.692337042653189 9.639468246073017 9.309786729940553
Nb 8.071691770864483 10.966496078821223 11.563211506954342
Nb 10.433561594472197 9.84749003678727 6.459873589935433
Nb 9.86037161682133 11.145193848191628 9.079170238560735
Nb 10.258275059680736 9.909315480015842 11.557195629532035
