11
Energy = -87.0565375 eV
Nb 9.600609350363369 9.301907144974075 8.334628152220445
Nb 11.35008600619288 9.273741353279831 10.662439971187823
Nb 6.796915578486398 8.171439530211478 7.617004243003425
Nb 7.585159894901584 10.96969216066346 7.896537823889443
Nb 8.384888885845678 6.789595292760833 9.286682123187399
Nb 9.145952991623407 7.296828560951191 6.707021993418994
Nb 10.90571962039772 7.221411557627246 9.29932811939921
Nb 9.109302795086593 8.359757600013683 11.274035660505485
Nb 9.315918920422703 10.916161594897686 10.394182697801938
Nb 7.085158772864465 9.44207261352213 9.910917840790395
Nb 8.009583791841472 9.546689091098393 5.906518090648348
