13
Energy = -102.7506746 eV
Nb 7.9393857796108716 11.797234006019265 9.832209785249889
Nb 8.52485112693294 9.038059490371525 9.57328173702837
Nb 11.053240421100199 7.8367755743608205 8.707859735507002
Nb 6.844685007229471 7.667803166054373 8.043876331344396
Nb 10.029752803719719 7.552126433980632 11.51412138109239
Nb 9.438577442494951 10.683613676959894 11.444697136750296
Nb 9.314071030958935 9.08290150468792 6.826389067842324
Nb 8.485972286433215 11.499434567429505 7.433605944390651
Nb 8.875734508699955 6.2101255298595435 9.995996061232121
Nb 10.67711800836752 10.665539191487046 8.61990762902215
Nb 6.493602755118765 10.120269847555825 7.940718717130434
Nb 9.047662960335376 6.616491337320913 7.53505136179668
Nb 11.481310368997935 9.435590173912505 10.738249731529109
