14
Energy = -112.22740134 eV
Nb 8.930933945230107 7.9444603556177436 5.800798316133548
Nb 9.31850877066912 10.423529193147816 6.325201556323273
Nb 7.0056313496165386 9.67414265847125 7.0392970527139935
Nb 11.02874005044672 8.304345984274146 7.2016450513789785
Nb 7.02347693360252 7.131579908494844 7.286200963159608
Nb 9.299522439294407 6.70648130698427 8.341424756709655
Nb 10.919447689996677 10.643076151656848 8.366275509813505
Nb 8.431794594582637 10.867699680868501 9.008191290089538
Nb 7.383597617685217 8.480766743211962 9.603893617508051
Nb 10.071411246791815 8.583382680459223 9.93496830761046
Nb 10.378139526061386 11.040339479779277 11.211878307072839
Nb 8.416698915450041 7.666111130406533 12.05113694828153
Nb 8.094598343518847 10.231682597403703 11.753757746371763
Nb 10.343819967828528 8.948723519998577 12.721651967608112
