10
Energy = -77.71670601 eV
Nb 11.938343819196145 10.125855851649957 8.852310317127529
Nb 11.43988719656897 10.983241017652558 11.038802128284654
Nb 10.2600714672416 8.626966538305366 10.622553960972892
Nb 9.994023201866645 8.62146021248139 7.948759575365509
Nb 9.474912247323713 11.21052160575567 8.938218981522349
Nb 7.646661640447478 9.963140724529275 7.462127168606868
Nb 8.987339167400286 10.943029497687052 11.46650101196111
Nb 7.591041814383195 7.461508610745612 7.698273737655448
Nb 8.682408218649854 6.750494852895482 9.693153014381018
Nb 7.613975649298628 9.25244202997296 9.953216371529638
