10
Energy = -72.46180315 eV
Nb 9.237680894878459 13.217428337543733 9.457649042665919
Nb 9.537370460025503 10.891730731844802 10.3545830240046
Nb 8.58796861542391 12.736457163054196 11.819290317798984
Nb 15.15713714252407 11.334635818682157 14.681267880873289
Nb 10.622330537607239 11.366375348081592 12.68164013508137
Nb 15.900625197780126 12.668641751543186 12.566615764696072
Nb 11.344024314870461 13.000799191138034 10.924902585358911
Nb 14.360424115424808 13.362502301931915 11.0454709162528
Nb 13.00567236716001 10.715097582235815 14.899014720036803
Nb 13.278412903585743 11.984621869470361 12.787985973018046
