15
Energy = -120.66855285 eV
Nb 11.123844605895334 10.10925864870211 8.695689380906984
Nb 13.313062652095807 13.247302746146056 9.2534984845546
Nb 13.383456915871443 10.592365645929014 9.74055326096257
Nb 8.996314924914914 10.016498183887897 10.075363545937558
Nb 10.887144796886979 12.38112524789925 10.122877551533144
Nb 11.10143059917921 8.173493148710573 10.419507805552367
Nb 12.3712672149834 14.697913334790984 11.113213718693649
Nb 11.64296965355739 10.37815251787636 11.828305077161383
Nb 8.798717207955594 11.565983005506718 12.027962064240752
Nb 13.782189046211048 12.27648014142137 11.648656015842825
Nb 9.48177652686986 8.740992727241643 12.321492701368287
Nb 10.873845571014039 13.12092554054816 12.787560194238212
Nb 13.349674978607807 14.070631026314329 13.37544510484853
Nb 12.516868919136252 11.654684557882465 14.197683433139089
Nb 10.050572672998081 10.647329813319994 14.06532794719644
