11
Energy = -86.07575643 eV
Nb 12.32297340064081 13.40420273890977 13.482103521543715
Nb 11.152242102288872 11.821723837426497 9.661398820685184
Nb 12.754819105353658 13.655922384830724 10.811956278401727
Nb 10.264804670842095 13.165932099679413 11.79307349266408
Nb 14.455264947784531 12.427295628054024 12.441877626501299
Nb 13.995514015697289 11.485986654610956 10.076868409080566
Nb 12.49112363589273 10.730766415306407 12.385390105988439
Nb 12.407128518875666 9.56809364013848 10.017085376915338
Nb 10.51749627525911 11.532191432686751 14.10073205688405
Nb 8.489166280937761 11.718628405269234 12.877271864555459
Nb 10.038051231404085 10.25492258319978 11.419043253006242
