13
Energy = -102.85167516 eV
Nb 12.498573749372056 9.831283801527434 9.4513762816186
Nb 11.016882061459105 7.58014629061289 9.074621070926097
Nb 11.802517395728641 8.533661951217285 11.498360833125092
Nb 11.356356576976756 11.27263315719544 11.615846534745069
Nb 9.734588532265375 9.714573185903133 8.161051458771949
Nb 10.942535771786517 11.81619470025326 9.188309760757795
Nb 8.69293762573809 10.879976168407635 10.414062524972568
Nb 9.012836370657526 8.080500869818168 10.519490817942865
Nb 7.638829925165956 11.409857627219335 7.995077227275111
Nb 7.176422347050275 9.404483342614274 6.700154952688335
Nb 9.776672144961408 9.54777193418261 12.57480986308714
Nb 6.834510136954243 9.12135438658696 9.269657303219317
Nb 8.298816374622634 7.429272051635982 7.882985197252832
