12
Energy = -92.64148196 eV
Nb 11.560638574649206 16.005913239563434 11.077027717376563
Nb 10.124890188842206 11.185964548077894 10.929639883650529
Nb 11.38562244812441 14.422161767538189 13.354499549312992
Nb 11.687827374804218 13.221551196365363 10.847767569429251
Nb 13.628426751211805 15.174965074705003 11.694190598979318
Nb 13.742723034946428 13.040575724608619 13.229214332290477
Nb 10.74445694976909 11.791115041609803 13.248963049228173
Nb 14.916078186015048 10.831600783071995 12.436881300997042
Nb 12.237468139279887 12.623895120582166 15.251344507754316
Nb 12.511150405517835 10.476352126492577 11.393327705465332
Nb 14.206230985686576 12.407710716268365 10.566883323828325
Nb 13.011842488832771 10.450534122382276 14.11854965014201
