15
Energy = -119.75168857 eV
Nb 11.46986751447677 9.621919161592196 7.348011313102113
Nb 9.15717840554589 9.018405181483043 5.754702122795172
Nb 11.445611552334478 7.580145394104168 5.971308710775563
Nb 8.976877796968227 10.374857955372546 8.000400659219265
Nb 9.16680659972347 6.682915723738717 6.745130249974667
Nb 11.514092265886946 7.080424907334285 8.474759031636893
Nb 7.042551748677957 8.597680301677574 7.861445740098631
Nb 6.536196214743307 10.801807207057166 9.37352324303964
Nb 6.491241724442688 8.207182782482784 10.469258701478031
Nb 8.972013300196343 7.468766320165264 9.283150925691832
Nb 10.66320209155219 9.375044021115231 9.955191900213833
Nb 8.836532278817105 11.65997215734128 10.22351180392136
Nb 8.744629106467757 8.126642649524337 11.755458156138852
Nb 6.907795314231183 10.307879732321409 11.824758901982763
Nb 9.442391966720717 10.463344385475295 12.326376420716093
