15
Energy = -121.0226729 eV
Nb 10.547966777344797 11.351503305084071 13.025107286257724
Nb 9.610496051731545 8.695481889174276 12.933195366709313
Nb 12.083890650620043 9.480378270498301 12.00996643313666
Nb 10.00715598922187 10.149538446513997 10.546247434194333
Nb 9.526975311441522 12.69168055620491 10.965148254210078
Nb 12.095440758656334 11.897688300627568 10.425294206238622
Nb 7.946375851367554 10.728468531826033 12.402140691209977
Nb 10.118158590645912 11.726778717624496 8.239937877259926
Nb 12.683750334535615 11.660457848321903 7.856779469297973
Nb 10.315724507065633 7.54639166177559 10.36959737771162
Nb 7.591071444166937 10.729064258892308 9.683456245478586
Nb 12.184957194279676 9.32442518746663 8.984880931958783
Nb 7.834343960212385 8.390953838757518 10.851284995866958
Nb 11.226978482347928 9.918250565521522 6.6553120310638665
Nb 9.344624930656876 8.90553748726275 8.21223844754134
