12
Energy = -94.15828098 eV
Nb 9.841661423472795 9.839369787921779 6.947115812190021
Nb 7.689104244648882 8.717770259540472 8.023107884857968
Nb 10.46250821720782 12.13962210878439 8.175978237847785
Nb 7.980101772936525 11.579992466489582 7.873809158518685
Nb 10.317621256763392 7.535417213901798 8.253151236814286
Nb 8.117529452689988 6.189115656450255 8.72119503034649
Nb 10.026167030818188 5.674568554905844 10.325996738839
Nb 8.806409554023679 12.366508303051718 10.185670366076264
Nb 9.962464861354514 9.97736386345313 9.715212045567219
Nb 7.202105213148382 10.243495335299995 10.111333042223814
Nb 11.099142601778867 7.729149410201645 10.82711981964094
Nb 8.355996137897364 7.868438806739352 10.70112239381821
