11
Energy = -84.84558069 eV
Nb 13.35178095125358 14.719811105831656 11.89429005457616
Nb 11.291550097572419 11.027207718245908 8.969497264026778
Nb 12.795885515444114 10.392936028132954 10.990768297984564
Nb 11.105533348073692 13.787689598405647 12.455109625867955
Nb 13.677334589581122 12.341965617295072 12.52048902795342
Nb 11.494924917710998 8.881692307501233 12.6033889112158
Nb 12.443123758329305 13.095824128194156 10.099331227245893
Nb 9.23265201885116 10.119841264306661 12.54652875033981
Nb 10.2251359640452 9.162728087068817 10.383719242278294
Nb 9.904568980466019 12.001558865771147 10.937168616166035
Nb 11.395654070377615 11.386889490951482 13.51785319405042
