11
Energy = -83.77298024 eV
Nb 13.231310924078526 9.071015191936535 11.633610481942798
Nb 11.799387344136347 9.117399462796334 13.725841949576166
Nb 11.792804660745482 15.676648306405989 10.914323205838127
Nb 13.124424178354674 15.947085120266731 12.939736901800632
Nb 14.107425930391868 10.170961361539561 13.766592605682103
Nb 11.359395249122693 14.121285983483354 13.327689997382166
Nb 10.84126066270772 13.30027742119017 10.934411140317586
Nb 10.825759681580598 9.869247485854872 11.484217107158198
Nb 12.395609576922462 11.687987795649201 12.50776828431819
Nb 13.50292633358128 13.745805524909647 11.066292100333175
Nb 14.003478671349143 13.62330559602276 13.589281165748975
