13
Energy = -101.89239568 eV
Nb 14.03152523759961 10.096021273550349 9.171929488098018
Nb 11.703481623506937 11.908511461880257 12.490382583691563
Nb 14.320515322526532 13.45048555593309 12.045642166079876
Nb 12.148047520369976 14.426211284154064 13.227004617007015
Nb 13.745334658481761 12.018147958166773 14.307907625699363
Nb 11.564309091963006 12.997709304502054 15.403143631488666
Nb 11.834134502910839 11.043789965732694 9.598553747063177
Nb 12.09871372465704 15.380019493804024 16.135695353988503
Nb 14.302360451490037 12.505830855638454 9.192442772572566
Nb 12.253963105699663 13.4039959977288 10.344448261311369
Nb 14.18796955552531 14.529063761183991 14.95109205815838
Nb 13.460780184287357 13.321715452036784 17.07291141066693
Nb 13.945012963980117 10.89339629518743 11.571698853332666
