10
Energy = -77.76041384 eV
Nb 7.235323495374285 7.740785111857167 8.871600880927424
Nb 10.25040158964535 10.490902027865824 10.596518216602844
Nb 9.456640466672757 12.346893059351796 9.121205407332678
Nb 7.821093886975657 10.395877495495855 8.949203720782391
Nb 8.250110002104103 8.883503744356428 11.116445432972538
Nb 9.144750719633887 6.476990762397477 7.696294632085282
Nb 10.344150833046292 8.347351224735865 9.174550889554592
Nb 10.52016074354972 10.512839276694407 7.796563796623305
Nb 8.655991062262125 8.918365671063102 6.879120473645724
Nb 8.8909997601417 6.45611418558824 10.368119108878945
