12
Energy = -96.44494675 eV
Nb 7.839650015520258 8.247998800563012 10.334884944834624
Nb 9.855035492363202 7.421316335492296 8.752391712174513
Nb 8.050005779973509 9.183784791558276 7.914390493457485
Nb 10.619444772385634 9.605862707797703 7.3799990860916
Nb 11.647397607773428 11.268063732422355 9.197656485585007
Nb 9.633118233229737 12.094812468258182 10.779476598990804
Nb 8.865792519340363 9.910553984744851 12.153264457744553
Nb 11.435777985141344 10.331353493367079 11.619586582483025
Nb 8.976591727915585 11.57859066517292 8.23079582321513
Nb 7.401031702978662 10.801236450862204 10.11748242251359
Nb 12.086448552754058 8.715443044513782 9.414786345220287
Nb 10.510411594666222 7.938425566785815 11.301445308728496
