15
Energy = -122.20341536 eV
Nb 12.018860648579384 13.644784826178254 9.732024595044356
Nb 14.296973552162974 13.518900274419675 10.76264673485506
Nb 12.760899068803116 11.122242958009371 10.17197814145154
Nb 9.958245843099377 12.042874853785952 10.623056334842182
Nb 10.264991148448061 14.692058220441112 11.254361764196323
Nb 12.63545988090755 14.877446451413354 12.394974090598712
Nb 10.93946399265109 9.617375187215877 11.449333958041464
Nb 13.276199902729468 9.39664864210085 12.416513100799508
Nb 14.478405783407982 13.493823620717599 13.464768291690172
Nb 9.445071858988774 13.400093609986513 13.077609060552007
Nb 14.923712386731104 11.28338978346461 11.907047130784889
Nb 11.9999727534634 12.291437446333195 12.582963897660278
Nb 9.373088076948985 10.912900972458434 13.082532692192801
Nb 11.511520016571428 10.09158360817786 14.246115267371922
Nb 13.747317859444825 11.244622318234725 14.464257712856739
