15
Energy = -119.93404275 eV
Nb 7.721828580419684 8.056058793457817 5.731729951073763
Nb 8.780189789311367 10.344139203624643 6.249871250852852
Nb 6.527462117880672 10.046661148735629 7.444922283739573
Nb 10.17319408397288 8.36158253878075 7.06461269947456
Nb 8.73898370602264 6.3330868081969 7.453977922401822
Nb 6.077419785490227 7.446051332127164 7.509883984333987
Nb 8.970786159658214 10.421147084064044 8.871438281328517
Nb 11.69792299347006 9.533159719117853 9.790988750782684
Nb 7.3065805698393165 6.525634843966913 9.575864980196094
Nb 9.543068586866841 7.903484030132624 9.699192472281513
Nb 6.767850716493332 9.019886595080498 9.7282184026702
Nb 10.951413652256962 11.918975994773096 10.292735919349765
Nb 10.953409789389868 8.445709295892811 12.127807178261868
Nb 11.886249134782604 10.738660347983558 12.262536938323851
Nb 9.262048915406254 10.264170845326907 11.554627566189305
