12
Energy = -94.37657917 eV
Nb 10.515741528737255 10.1053844735794 7.034674634695783
Nb 12.917495190253959 9.054859721028569 8.066463257797205
Nb 10.714210640550181 8.027347427456364 8.593434852442416
Nb 8.85782294097645 12.473121046644376 10.14245248903797
Nb 11.592752016809492 11.175187625096884 8.983266963154552
Nb 8.78135288786237 10.089957358948665 9.070069396137976
Nb 9.897528794991324 8.439053461965017 10.988373581127892
Nb 7.6048503948574115 10.19377886773339 11.424222259957572
Nb 12.57281079700655 8.991502690240699 10.529787768442405
Nb 8.320210780259986 12.339012606259526 12.532224063892468
Nb 10.625509519304691 10.888440800124222 11.357994490370231
Nb 9.23592002269996 9.982051831752907 13.331823806959834
