15
Energy = -120.01654322 eV
Nb 7.661619564438623 9.145176553549426 7.1131107467966785
Nb 6.079117885840017 10.501486836031454 8.52676531467545
Nb 12.005261487189498 8.571340176216463 10.143994384252508
Nb 8.190912517915617 6.933453228143845 9.33933298306457
Nb 9.806563719702922 8.303121681219109 11.398733217345217
Nb 7.715487179581836 9.507330916871918 10.153423347441692
Nb 9.945362130892175 10.962819916875217 10.52289527093817
Nb 9.453088456316163 10.617155581592238 6.146036176834277
Nb 11.751497461384496 6.153754497931614 11.224984996912841
Nb 10.009827275178262 9.044548984762168 8.480470428541821
Nb 10.2246947946928 11.91131023934912 8.179851259633052
Nb 10.6071235581768 6.383430769925288 8.989094803691335
Nb 7.92188162285257 12.410378072033733 9.55227115414532
Nb 7.58733399405394 12.059231098777113 7.116039471051617
Nb 9.328947289489998 5.784180384426849 11.401715382380722
