12
Energy = -95.100852 eV
Nb 11.201329118266775 10.970145160050356 8.287097204768786
Nb 6.375393653294626 9.91359586366751 9.074391600760082
Nb 7.225301080434891 7.632580208841797 9.986151051000538
Nb 10.269439484383666 9.040888861344843 6.817707873833435
Nb 11.67527298963083 8.609517459356725 9.26127971534238
Nb 9.50465266580697 7.101303246756914 8.580335108414321
Nb 7.518805165089402 8.438197417452855 7.266622803542429
Nb 9.794252151752392 7.73727761503083 11.219322952010728
Nb 9.01173631604757 9.93436692575607 9.366863342795522
Nb 7.899570533702386 9.441895595436845 11.723579298905634
Nb 8.415134510902702 10.856891152321497 6.950731841277631
Nb 10.881092330687657 10.09532074070004 11.237897577423213
