13
Energy = -102.14641163 eV
Nb 10.927707505712732 10.613267931909833 7.564994343845859
Nb 13.064998925201394 9.568170929240827 8.803726415498327
Nb 10.799141720888404 8.096731704661435 8.961359252187927
Nb 11.136415324637266 7.2379964025799755 11.27510066070918
Nb 10.106268088184475 12.414764749366771 9.48412306977824
Nb 12.672746544403225 11.978091433767002 8.90104466211294
Nb 11.281092151116887 10.238760877279057 10.686098966449485
Nb 8.746107280026319 10.032473470070613 9.237212771508363
Nb 8.665296488417857 7.036699737977359 9.929677752382085
Nb 7.523457015767561 12.443913294167498 10.150532558659478
Nb 9.09076736208118 8.74271938032428 11.693748460766948
Nb 9.17169416888102 11.597221317186602 11.952392922603423
Nb 6.944328894468431 10.309047575755637 11.193977617136381
