5
Energy = -35.46416743 eV
Nb 10.833387220775062 9.659390164928494 10.974830992167213
Nb 10.3410110836314 9.238128960669734 8.460959489748547
Nb 10.415340206717145 11.621773283080225 9.46480501809537
Nb 9.007720927407917 8.053985665475619 10.34346652968832
Nb 8.316879381223016 10.376265662616465 9.859189716286956
