55
Energy = -481.08497605 eV
Nb 14.562272547222053 8.52761597942914 8.553859968187572
Nb 15.516727781950722 13.36183291275401 14.289767488709073
Nb 10.2743471312413 11.01981091402056 14.303894793408308
Nb 7.925539254836124 13.15059264390282 14.49014692324687
Nb 9.997880764393571 9.895110170772455 17.030744947806188
Nb 14.902263848416565 11.336177010382475 7.663571133789585
Nb 16.05936058656394 10.73647919593013 12.9166435957365
Nb 12.090610541713016 11.67929038623632 16.79710036712057
Nb 11.753585960832572 14.682285696251071 15.90142979364849
Nb 10.254313967460028 9.625741885000766 9.140569674021538
Nb 14.254307427499164 15.689865208304344 9.712805888977071
Nb 11.005708747222947 16.726653420808812 13.334299641929146
Nb 12.188393216684624 15.281646219467984 8.280485993997624
Nb 10.517230758775385 6.426149038671261 12.680485167482649
Nb 8.045725056688884 9.670190471904718 10.646391311989202
Nb 14.599492791729515 10.940575228748529 15.313362209528705
Nb 8.079961638155641 13.809872900976092 11.438946839408153
Nb 10.717890498147332 9.303181418274109 12.24516020551061
Nb 13.024361111740998 12.918227640627029 9.26531071035191
Nb 12.17688844462286 7.913484559178461 8.01637596903759
Nb 15.962790421513558 13.490284303044701 9.599647851603962
Nb 8.36826993658568 8.578465997877743 13.249304101664574
Nb 14.05910720239719 13.542869862689404 16.41316216174964
Nb 13.480491451047612 15.214668167601634 13.995805694933521
Nb 9.531011008627774 16.348388692629555 11.287082919061415
Nb 8.037073566423897 10.164656697863748 15.5496470877851
Nb 12.828277517301265 10.300586402369085 9.864173272947443
Nb 12.39565821176557 7.6341016888954565 10.58012720965468
Nb 10.113577672521625 14.292596076233089 9.733454980085012
Nb 8.269497733568182 11.86459397317142 9.388091717680403
Nb 10.538186208921134 12.235709310357736 8.114318848963984
Nb 13.310345585393932 10.212281480408164 12.532829655102375
Nb 9.755474128639378 12.756402557719108 16.250202237823125
Nb 9.595394429946083 7.30185889054985 10.59676746189848
Nb 8.049464911265394 15.804119882835844 13.405485218278063
Nb 10.183559068808194 8.070362514282275 15.00735574040555
Nb 12.57797278127443 12.452422456020855 14.116206983995014
Nb 15.026058394367242 8.366209238064492 11.213826094187175
Nb 16.92527826582121 13.132322162080595 12.016644588149648
Nb 12.451323593989185 9.415547675255374 15.202659276532495
Nb 14.097911024832882 12.865476678863724 11.805758421073346
Nb 15.16764802070253 8.455886670256895 13.871072366904018
Nb 12.188127638807627 14.812900583123753 11.490733436960882
Nb 11.98380336350202 17.371526012945026 10.339506095727703
Nb 13.610869783688212 17.398995979140214 12.133818033324955
Nb 9.375428103409817 15.660033379113768 15.454823748376123
Nb 10.241940634554002 13.892534262728013 13.276833729544549
Nb 12.840272495659601 7.436383487680183 13.323499052033704
Nb 15.582865939477053 10.895295293568584 10.27533281645913
Nb 12.659786487811468 13.039801267089706 6.488985765457074
Nb 8.17409667095874 11.390623127804853 12.55148465135122
Nb 14.799208466710356 13.997418281158588 7.21372483816656
Nb 12.522754709374887 10.345800705739515 7.161273147002725
Nb 10.699781665462206 11.917001369706105 11.176895018348677
Nb 15.388714931253133 15.385976071771855 12.036997255161959
