5
Energy = -35.46472082 eV
Nb 7.865745706367339 10.603379977714376 8.885491513427937
Nb 10.754407489347308 7.988773975264224 9.456666309935526
Nb 8.965484278364109 8.619624874626467 7.820351804793792
Nb 8.380425626841422 8.539426875138542 10.363389938428394
Nb 10.20755528000913 10.392888178881513 9.661469903986074
