55
Energy = -484.7883102 eV
Nb 8.295858638750136 11.24162218738876 14.389731646183261
Nb 14.972615515347936 13.252214198528753 10.977789507984085
Nb 12.829679843898631 8.911603215541195 16.034223567438026
Nb 10.395353496857759 10.781714759885315 9.528197036438781
Nb 15.009166051987059 13.455833141408291 14.209811006756105
Nb 12.623607602011155 12.784838079004189 6.44261815303677
Nb 10.523154263387683 11.12837948308356 12.787877649167976
Nb 8.258768981529213 11.042325526139978 11.23652292816976
Nb 12.703983213878848 13.103840386987399 9.439171091037771
Nb 12.774176617474042 11.275878456380427 17.564355738285826
Nb 10.471514554794657 11.195060033615949 16.068123065991443
Nb 12.773311009760318 13.495973753342275 12.610720678559904
Nb 10.450468679922773 15.371081115673887 9.266794963768616
Nb 8.36151570299501 15.47942027221865 10.898030110070644
Nb 12.776934022094132 13.507003401243878 15.808143393129923
Nb 10.500051410176805 15.75938509170915 12.494417351008634
Nb 12.663206280465618 10.668619220473822 7.980552238163887
Nb 17.208974872766365 13.061715679739438 9.576299312662986
Nb 14.981258635669322 10.727275749040759 9.488110069198761
Nb 12.70971338256373 10.944316950674068 11.126357009548906
Nb 17.363779678116966 13.30685010464638 12.569207641724342
Nb 14.99785221945596 11.043459260577967 12.739661935712704
Nb 12.747315827075427 11.152574018092787 14.40778994423046
Nb 8.241272536512332 13.231234274497202 9.60067589155876
Nb 15.055654874423377 11.139363619984731 16.006266195917227
Nb 12.6903643617363 15.12823695664094 7.683756755961394
Nb 8.313473109357975 13.616311295657386 15.739019762487926
Nb 14.945316988265667 15.321392475352518 9.188419188275255
Nb 12.788054895724995 15.6816090864649 10.794625216166933
Nb 10.579823620335976 13.59316652682579 17.417469628561854
Nb 15.07505383124314 15.695611971482167 12.445277412179362
Nb 12.82816576663842 15.892013168158433 14.134855792410567
Nb 12.765805015032337 13.569778850572394 18.82168678005713
Nb 10.455036484288023 8.735117676739765 11.355179359604742
Nb 17.206115286873292 11.009469126635954 11.091303248544992
Nb 17.27668684755607 13.438964218363749 15.57152350624915
Nb 10.491437344016422 8.934543355500486 14.511152283900191
Nb 17.241685354889558 11.211805515108926 14.325122351010064
Nb 14.954879001497316 13.588961920327469 17.409953145620044
Nb 10.469854459483694 12.9905193066227 7.883839056963409
Nb 17.16472854937833 15.386150928548911 10.873929544210382
Nb 8.398551026440423 15.684899173865835 14.1635620301191
Nb 10.501624881460934 13.300407468013258 11.033210266652766
Nb 8.39756270658112 9.052942980646 12.943655332450057
Nb 10.523577167490409 15.780814992460519 15.744054167550326
Nb 10.539211230844984 13.503823835908666 14.2542394191178
Nb 8.165111865296602 13.494354146285891 12.665964802583007
Nb 12.798539610071785 15.736799382352253 17.29187030866065
Nb 14.848573463082309 8.722749102372855 11.196607355239042
Nb 12.757285038627398 8.516242794359087 9.792291765579794
Nb 15.019742203895037 15.734959063861943 15.724364506522209
Nb 14.885909405389677 8.93599587444091 14.566957580838135
Nb 12.756780834810685 8.694360975669673 12.914561069075733
Nb 17.20203345183699 15.580616040531591 13.995845843495612
Nb 14.84449828593795 12.980469810351819 7.788924394167349
