5
Energy = -29.31591095 eV
Nb 15.905465964673372 12.872222535495245 12.074019232909498
Nb 15.198077813385387 13.56142347876018 13.945423608467406
Nb 14.037344923146168 0.777582823249279 1.1837182777000257
Nb 11.650788783747503 0.5608031089876695 0.9234216158013102
Nb 12.947269140275345 17.52398380747871 2.531757182361967
