55
Energy = -482.72055934 eV
Nb 8.261520319645017 10.988654441105014 14.875744359968248
Nb 14.899357816199974 13.1369466075984 10.8682426550804
Nb 12.732893514814414 8.771339372176206 15.971817246601205
Nb 10.370265205553457 10.799291001655302 9.342936351666124
Nb 14.918045269600771 13.34987821141137 14.097016973053526
Nb 13.043387360528287 13.678890734588018 6.609924653561942
Nb 10.390632257500764 10.99772775900744 12.766673346442817
Nb 8.124240641519119 11.00956947240245 10.67504689156039
Nb 12.571606458885283 13.09329496892711 9.358856865936087
Nb 12.762815719388485 11.208724289539134 17.53151647471534
Nb 10.498887848755905 11.083416209933533 16.138918893618342
Nb 12.639976777794676 13.381095618977115 12.496383963466661
Nb 9.96976005308692 15.20419160535245 9.26692278215453
Nb 7.704076320924491 14.268338370621736 10.690337928682553
Nb 12.697952334133568 13.415667153723556 15.709312918583644
Nb 10.435419659615986 15.822142584709958 12.154897896039799
Nb 12.643637508496367 10.829532289952937 7.893326333318688
Nb 17.268245670332142 13.020323306541961 9.54724370084212
Nb 14.841609437457294 10.635530412088071 9.50124485863021
Nb 12.577245790022552 10.892135715998915 11.08664545983432
Nb 17.278867862986896 13.183953772583695 12.496147639694861
Nb 14.916456102068532 10.91971308876034 12.67418302413567
Nb 12.69831304394574 11.063347034980909 14.341071614014457
Nb 8.212879158734017 12.78965087276036 8.699328439812264
Nb 14.957879186547624 11.050093545144504 15.92238298755952
Nb 12.189141108170064 15.693355373983218 7.896775102796693
Nb 8.232201785599601 13.51211198269471 15.67027774777507
Nb 14.726094169024561 15.006998628204846 8.799115699050631
Nb 12.631474023233526 15.522746653524056 10.688322942387499
Nb 10.520536916269304 13.590802496096288 17.30564579376419
Nb 15.016398533678625 15.552653037483191 12.297189158401324
Nb 12.712026924719495 15.759999087881745 13.983887031259362
Nb 12.727002622689149 13.584060424651568 18.724764865755226
Nb 10.261518557949088 8.704619650861153 11.276457552029429
Nb 17.083652514758594 10.876363270409824 11.07942413212681
Nb 17.205250502084894 13.353945551440422 15.471700820275679
Nb 10.42147111634871 8.83757144957253 14.467642681127801
Nb 17.160392429255985 11.116424069754697 14.286203544744637
Nb 14.887718711499788 13.517381962116275 17.318691432215108
Nb 10.526101298813535 13.189531068094745 7.649177303966068
Nb 17.066776178847245 15.270202810575876 10.708135522532015
Nb 8.32711928426232 15.03509327654472 13.322445446027883
Nb 10.152824979269454 13.197376884525626 11.052703258238838
Nb 8.227267471468554 9.182344369898807 12.777222277016167
Nb 10.419358950386531 15.642697672017626 15.493979980948266
Nb 10.42224949499117 13.375284708275167 14.134455853479436
Nb 7.72865919853167 12.432801970031267 12.889760112502254
Nb 12.719777480590103 15.674228636789536 17.106834567442068
Nb 14.660553401153924 8.57662578386981 11.127735838024202
Nb 12.542434274024984 8.526546409795664 9.687698095835927
Nb 14.93942496068548 15.643492457749021 15.567156637917849
Nb 14.758694903332826 8.781639215533378 14.509893427047293
Nb 12.62158642678891 8.63851491842791 12.8702728508495
Nb 17.10952430210405 15.469332954383388 13.873861584798352
Nb 15.054912294431187 12.609920917775824 7.714560614193025
