5
Energy = -31.09934118 eV
Nb 11.331488313598634 8.130957848887645 9.600593077027687
Nb 9.594462180061303 7.633632131651422 10.978080313594312
Nb 9.276759004463724 9.64713277391228 9.445106857365133
Nb 6.430538350644895 10.42506047699356 7.05855157108023
Nb 7.829402277845378 8.686928073225257 7.4129029114644975
