6
Energy = -42.07744395 eV
Nb 11.434283222168679 14.303319369673575 10.793623431894792
Nb 11.651779812959894 12.72823201927704 12.730394086393863
Nb 10.502009646315964 10.3830698152846 12.648500615147782
Nb 12.965720253502026 10.570768343616942 12.088665139457229
Nb 11.166890268265085 11.901548230872754 10.270209946412077
Nb 11.405646501927876 9.351283041288202 10.5627367366338
