6
Energy = -43.85529518 eV
Nb 12.648844855281327 13.992052146206682 10.967253939078454
Nb 11.847330046214623 13.613593727996223 13.293615482986464
Nb 13.627711132407253 11.86462047244354 11.811791423005571
Nb 11.990493352718785 9.954621297482008 11.718465769328665
Nb 11.597915416604321 11.327691746041372 13.751183301039028
Nb 10.979103258321565 12.11102660614761 11.016507828692093
