6
Energy = -38.39532578 eV
Nb 9.986910155739396 11.638136337342752 12.112293678014424
Nb 11.59278409183973 9.71737694249544 11.232094325119007
Nb 13.47974638852873 10.412384774737598 9.681000966561202
Nb 10.636456736508102 14.103201650061102 11.769571845661615
Nb 9.330256593444696 9.185180533738958 12.269157428807649
Nb 12.128741562553227 12.277470591351811 10.748482137507409
