6
Energy = -43.85712444 eV
Nb 10.678758916049567 8.085295912640841 10.060857067049922
Nb 8.206177681159572 9.605339532137071 10.1270253963145
Nb 8.8333620505583 11.099601777296499 8.209341102114776
Nb 10.623072706616425 10.952756852659677 9.928689742582927
Nb 9.974406978219731 8.903784744149673 7.981039772476571
Nb 9.943814269134672 9.56955627573853 11.912216775595937
