6
Energy = -43.74657968 eV
Nb 4.965940320192876 7.328534133662323 7.481338229196124
Nb 5.638375833311809 5.180087077742356 5.962369934859023
Nb 7.128099690516657 8.543209064963849 7.478228141001423
Nb 6.878091070191713 5.780500072030447 8.080206847136393
Nb 8.772084791031803 6.543293692420238 6.654764313372258
Nb 6.78050342083958 7.290631982061401 5.3016796955128935
