6
Energy = -36.29774239 eV
Nb 7.15061081850397 8.24309963620824 8.266434675837317
Nb 9.150443179463606 6.787307636710649 6.889591789852221
Nb 1.1059956238549757 4.42634708169369 4.680259863798379
Nb 6.4612518839223725 7.685313760283199 5.867979234933711
Nb 7.333984259195533 5.566980709060902 5.592623236835703
Nb 9.201551339190164 7.703134099746799 9.115354343687722
