6
Energy = -41.00366852 eV
Nb 11.709359502003096 7.733738802526065 10.498885024783142
Nb 11.639097289069234 9.542903275120127 9.180746268483853
Nb 9.388031068734637 8.236271061737439 10.108946190540276
Nb 9.390179043257389 10.442992239504017 8.547877110635687
Nb 7.165364019060007 9.322908899034417 9.74064888871441
Nb 7.10322599951295 11.18376815332732 8.499641194395831
