6
Energy = -43.85301668 eV
Nb 10.78371934077347 11.191989576058091 10.10577881721636
Nb 10.738993856291026 8.717054788826148 8.638864370828104
Nb 10.508418238651206 8.420464131919866 10.951261903253434
Nb 9.667475817230812 10.826915240887669 7.882443340946899
Nb 8.350734183304166 9.901629785345248 9.78051899961927
Nb 9.411851210594195 10.381568047483885 12.012179004108768
