7
Energy = -51.73649948 eV
Nb 11.820481059408408 9.581839018156732 9.353224038167715
Nb 8.22416268574969 9.107458492411803 7.365227534270548
Nb 10.247337792823595 9.351898102134019 11.063736056863352
Nb 9.296700157222935 10.687073739246426 9.047478666238492
Nb 6.761647880445884 9.964215237098914 9.128112571186165
Nb 10.123600505123266 7.837528124909398 8.615628206898561
Nb 8.138132477334347 8.101684952826712 10.06246926030591
