7
Energy = -53.17609506 eV
Nb 10.013367374056394 10.02655003829681 8.25752724894569
Nb 11.955090221583763 10.332551687288078 9.832249749223363
Nb 10.82152201138004 7.918394124958072 9.651611003299044
Nb 7.957031519675903 10.781677040253012 9.469553157960963
Nb 10.047420826238834 11.884332604808929 10.402639482935191
Nb 9.716714308579016 9.587921319470386 11.42488928714261
Nb 8.313423089363022 8.276377462055816 9.769523405763506
