7
Energy = -53.13994691 eV
Nb 12.84827427457556 12.088406297453236 12.795493428757183
Nb 13.36749792585791 11.823150973951 10.397014079573534
Nb 11.818934028585952 9.910506079714137 11.932616305615285
Nb 10.852129192714505 12.531185626149544 10.620300196029316
Nb 11.565610358413117 10.343375419727602 9.430364457028784
Nb 10.40191722455843 12.117405072283889 13.174501608871477
Nb 9.392392820680419 10.548891381824161 11.478199435379796
