7
Energy = -51.73634491 eV
Nb 10.252101328051351 11.227036482560274 9.27314648918701
Nb 12.061931219761709 10.886696906207902 11.290535228826597
Nb 9.768381177077014 10.968464319591888 11.84657326185296
Nb 8.421362976988974 9.323039425735303 10.499695254982319
Nb 11.132342039465696 8.760270140018187 10.547279669277435
Nb 8.095019444758327 9.975691953879435 8.177009504385524
Nb 10.16050137072432 8.818232569080834 8.229781645459193
