7
Energy = -53.14660253 eV
Nb 9.248062688545732 10.382916708009901 10.356110529655677
Nb 10.233360939903939 7.995287447252037 10.792894314695861
Nb 7.571828481028054 10.355086652980336 8.369219425832277
Nb 8.89306180279291 8.170709421480677 8.226874573118998
Nb 9.99049059926457 10.829075051805486 7.872528256096755
Nb 7.740640104911324 8.270916789140182 10.49674367517719
Nb 11.284387706846706 8.904934970337369 8.744736390686986
