7
Energy = -47.17411568 eV
Nb 7.292962494621765 10.692964437968174 11.104101914986627
Nb 9.704498886703357 9.999488205018674 10.644886932950296
Nb 11.927367013995473 10.125079691827315 9.243201043181736
Nb 11.457581209711172 8.055615642734079 10.516082493189481
Nb 7.4268161757421165 9.683103392831317 8.955606194484256
Nb 10.004367668638741 8.589724172215304 8.371958431004238
Nb 7.908107955632448 8.595516917153162 6.922657558098102
