7
Energy = -53.14488674 eV
Nb 11.464637598082573 10.744529602641148 9.386883735351931
Nb 10.42560100326447 9.974971485901355 11.550081810318575
Nb 10.520011783837885 8.393043503393011 9.117600587118206
Nb 8.74248978738612 8.268877333336482 10.949132506218934
Nb 8.883673322584587 10.95801801986103 9.658978079401255
Nb 9.439918171608797 9.900064014213008 7.360209811419019
Nb 7.66610470319763 8.806672891786796 8.785233978054023
