7
Energy = -53.14253678 eV
Nb 11.762361974306824 9.21044259891063 9.559007911488568
Nb 10.519148914616897 11.429078550139089 9.37741121216747
Nb 9.465299644479511 9.008986159933974 10.575008365928452
Nb 10.75595719126064 12.593057485528917 12.027199329100728
Nb 8.794722333063705 11.295001329955344 11.256498374831654
Nb 12.710592776307818 11.833466993803151 10.627620589238363
Nb 11.410645242931725 10.048694958696382 11.995982294211785
