7
Energy = -53.17346341 eV
Nb 7.083852337712865 6.428509280297236 7.997929054531902
Nb 8.778205159053954 6.969186362211675 9.909693876983445
Nb 8.803691733542722 9.937826624847762 7.037812084132373
Nb 9.162664435631045 7.489375558760084 7.172548252323574
Nb 9.881134905883178 9.15077975369641 9.29946834975123
Nb 7.2986817520379565 8.996762005084948 9.323022153909795
Nb 6.625468176138282 8.661258915102005 6.893224728367449
