7
Energy = -46.93403404 eV
Nb 10.256241794954649 7.6246558873217385 7.412346477982026
Nb 11.277358797847313 9.397807478104658 8.385556201399448
Nb 12.219346345859567 11.386789645617176 9.695863488504994
Nb 8.683986557882598 8.391825649298019 9.01282976116955
Nb 9.721472159849002 10.467024798263152 10.244997747940332
Nb 8.111487715955597 11.08701900494482 12.049968619950203
Nb 7.300394847443864 9.340595894938602 10.96726489286528
