7
Energy = -53.17470554 eV
Nb 10.654032837838809 13.67313600806615 12.705976280884181
Nb 11.496401995779232 12.166324064536134 10.856461038616768
Nb 10.852573296158386 11.2694237404196 13.520884833100002
Nb 13.067364406954121 12.438501380942341 13.640629929544327
Nb 14.244556787126527 11.96696991871702 11.445734269037883
Nb 12.553388114762342 10.170881355941251 11.988834267363174
Nb 12.928735514289698 14.276611834910018 11.774597323064416
