8
Energy = -60.83604475 eV
Nb 8.910733028272551 10.331581165246458 12.082478154310472
Nb 11.6602010304449 9.851340828955054 10.63685115541763
Nb 10.04760783581285 11.904542548702462 10.375395879876674
Nb 12.294024347505253 12.734975042824844 11.426608216057993
Nb 13.958450052839105 10.755580492923343 11.395598733403762
Nb 9.427405986724013 12.71597690941416 12.750249267317557
Nb 11.258251481824345 10.90968904136385 12.999808314932785
Nb 12.968521606792065 11.565964364077189 9.217849579076
