8
Energy = -62.23602242 eV
Nb 10.961179269625578 9.095920728496742 8.060914629278493
Nb 10.093398656615356 9.7758759327956 10.724067068718389
Nb 8.479720871086535 7.786604605737833 8.728514687612956
Nb 7.5352590180129955 10.38617763938901 9.540311712620548
Nb 7.9757659135099015 8.455833854575241 11.101904869157632
Nb 9.858581307186112 11.363174135855775 8.78813975883198
Nb 10.66435367477629 7.449659473300585 9.947490880844812
Nb 8.572018346682116 9.785152600665079 7.205287367194876
