8
Energy = -60.28602574 eV
Nb 10.190915403412815 8.61102136720074 7.464407714679756
Nb 10.592682498306168 7.6744558517373145 9.882387239159042
Nb 10.085719275731629 11.073206080474254 7.524980843858084
Nb 8.296201903293342 7.310643242509532 8.68642028813608
Nb 6.5435994469233085 8.64499175533559 9.793082617425362
Nb 8.641845272341083 8.997339649712417 11.035054674959408
Nb 7.943411453247798 10.216233797274406 8.460103489102758
Nb 10.546398815612124 10.289953595946505 9.817963896610364
