8
Energy = -60.28945986 eV
Nb 10.611398533431377 9.753420990273602 7.908017167988566
Nb 8.065536478179135 11.338834116445259 11.021811583573381
Nb 7.909374502225796 9.812489782618982 9.06339966800306
Nb 9.34817958999692 9.308836126814388 11.576155002805056
Nb 8.80523542195008 8.143361835078208 7.447847303679567
Nb 10.217990136741804 11.46222151820431 9.82435472760665
Nb 9.746222204191215 7.597081712144588 9.659823240868798
Nb 11.628880253191324 9.306043436206844 10.283087022593548
