8
Energy = -60.74833953 eV
Nb 6.284261495572222 7.3956092450220465 7.0446732459476555
Nb 7.219866929276289 6.824591576137987 9.357180999309437
Nb 9.53972063691142 6.008114127834281 9.141407800391017
Nb 8.69578878861404 6.491711486131622 6.870293766743599
Nb 6.306844955651092 9.84107050752674 6.716365739632314
Nb 7.178486629289896 9.376834148861187 8.980428393168259
Nb 9.564215602962397 8.461547719429996 8.821622764020256
Nb 8.631493181255996 9.021199408589506 6.488705510321062
