8
Energy = -61.20018924 eV
Nb 6.955294286021072 9.012043868926549 6.188359780025433
Nb 9.29125096182238 9.47081004653465 6.599720840831806
Nb 8.699493935024563 7.036923757254125 7.483807335147375
Nb 6.165670780772918 7.24270401052166 8.020094287599488
Nb 7.160282393416753 9.576119683913165 8.588278191200102
Nb 9.918126832784644 9.16183240924577 8.94800395956078
Nb 7.669707916802486 7.381830860067261 10.106501889813057
Nb 9.947629552598649 6.925192022780023 9.872690375065293
