9
Energy = -69.31019098 eV
Nb 10.319968250704337 7.313795813842642 8.925320691317484
Nb 9.872774670527491 8.837612539818139 6.927464500862043
Nb 7.960055813158972 7.051066928613262 7.969200353520851
Nb 7.476235020227518 8.775461393605513 6.226828241344638
Nb 10.283433935871882 8.615803664811773 11.098449490255907
Nb 8.192136268110216 10.60490898727446 10.712867354525624
Nb 7.912766088226894 8.141867167046335 10.327087193317587
Nb 7.416446161177809 9.992548127663772 8.216513459188057
Nb 10.102755959139985 10.203507544469081 9.132840882812342
