9
Energy = -68.49138221 eV
Nb 10.762819163420069 9.011296451955053 11.843024945397293
Nb 10.897293165598066 10.952719546193876 10.210022584905126
Nb 12.016238287864754 8.871105473351369 9.327387832565744
Nb 8.302032094274974 10.442199899572547 10.679224756099828
Nb 8.298629183471567 12.349857474009395 8.999357255691422
Nb 11.227245510577575 6.9240469337503665 10.767364548630926
Nb 7.066324807868293 10.171087150184428 8.422890466082793
Nb 9.368788196207017 8.370551404172755 9.380265337029776
Nb 9.613017181684757 10.459154756220475 7.923335222557059
