9
Energy = -68.67683866 eV
Nb 9.310888712460693 10.273843167265403 12.150736006126959
Nb 10.384766934590877 12.600834723841679 12.493366582014206
Nb 13.076756023717643 11.563456706522281 12.27053728200197
Nb 11.636854258213994 9.207155467212894 12.249808182088241
Nb 11.266975243309073 13.151979869777255 10.074684120997773
Nb 11.239385563848128 10.61011164752064 10.190221325164378
Nb 13.61270498132059 12.144200645573493 9.892893020988312
Nb 11.028649705168466 10.880618141007483 14.119976343146044
Nb 12.952957398444767 13.992802540308194 11.7687936226689
