9
Energy = -69.8048588 eV
Nb 9.311931908854993 8.364148352765085 5.782849189208707
Nb 7.156384330617179 9.377046049836688 6.787306494528256
Nb 8.744567809221607 6.875724580165947 7.861146411223613
Nb 7.006463447235961 6.951618909476014 5.903169748626211
Nb 5.9271564739542235 7.438944067161218 8.210361022254403
Nb 7.456050609935888 6.5738878782089465 10.119000755568967
Nb 7.4568879041053036 9.120786112834633 9.662631559188824
Nb 9.533916853375771 9.656208118626921 8.021970870076448
Nb 9.756667810305482 7.991663078530695 10.001591096930978
