9
Energy = -68.41420373 eV
Nb 12.251365740868371 10.316550104355287 9.07536033268158
Nb 11.763237358436662 8.05158684984181 9.238495260101278
Nb 10.779064456099704 12.1202813839235 9.358853043955554
Nb 9.946944294670269 9.715602482606126 10.855673366957262
Nb 9.403882532397905 9.670265299040391 8.502384593001157
Nb 9.68559184910771 6.981388195752334 9.722259032398787
Nb 8.476039260519014 12.11822258399612 9.907264941004293
Nb 7.655947859348161 7.959007055802421 10.177735279285486
Nb 7.113835487189613 10.291179881172502 10.277492644899615
