9
Energy = -70.12820934 eV
Nb 10.788360212496652 11.365042683915222 11.880651975159942
Nb 14.823487270561753 12.100161916264334 12.72061858095007
Nb 12.493867833863776 11.096042553380945 14.038648989651515
Nb 13.239892315719791 13.330130197299663 14.698560656208695
Nb 13.15666673451799 10.53244730701851 11.648962030758973
Nb 12.551842668469844 13.212024892211637 11.343544280058381
Nb 14.495155047819178 14.499360487108303 12.51548982253951
Nb 10.65479856343367 13.168365011474846 13.504779903892285
Nb 12.186706593108779 15.162547632567774 13.274091409712213
