9
Energy = -63.17860432 eV
Nb 9.852522224877346 13.448235642594646 11.439755252662216
Nb 10.189949221004257 12.575823503517604 9.057547486469423
Nb 10.245475073712786 11.429469030322856 7.073347519666403
Nb 10.939988628499256 12.758094694838416 13.282832509979455
Nb 10.881786548761744 10.89044821776885 11.208999424590942
Nb 10.461149657197284 9.800138124712705 8.705094982097686
Nb 12.198894605988563 10.733270272104296 13.583030251088237
Nb 11.801535462426155 8.633567098363601 12.56698505998995
Nb 10.697509126186738 8.182959605940512 10.629306249435471
