24
Energy = -48.45044917 eV
Ag 7.961926613488001 10.007308276090567 11.254174457578767
Ag 8.054458169734096 12.731330661107233 11.597112836518892
Ag 8.64828930774839 11.581782771263905 9.065619852935983
Ag 7.125109840228759 8.844654087309314 13.65456517585206
Ag 9.858376902097678 8.294839220797305 10.170580690066716
Ag 8.60153336784354 11.105979900298747 13.913783826848585
Ag 10.874573234069151 12.566685417595377 7.66738205006625
Ag 11.136342031190894 10.794596320282078 10.101909409544065
Ag 10.403507529563571 13.527639976292562 10.300923094785423
Ag 10.29949653278009 13.178555411229105 13.114464791118413
Ag 10.339663033451002 9.710224622895888 7.656970269088671
Ag 9.755817212211046 8.674285190651032 12.954915721541294
Ag 12.926242733365093 10.643471063400765 7.42968763252074
Ag 12.449884183774119 14.481770195117415 11.913073534318139
Ag 13.457063848487069 13.218155596545563 6.75523518942347
Ag 12.677377815482988 13.141389639947532 14.513859456824525
Ag 12.400273640382261 8.344582650733265 9.004859025282675
Ag 10.171435092369737 12.424685270489615 15.829304375614571
Ag 12.29169675408883 8.937799430478266 11.910844593793408
Ag 11.430338824421874 10.590967332109756 14.11067697058879
Ag 13.081443119334116 12.858227576652467 9.470547464582697
Ag 12.87421727074816 11.779871168052765 12.06685226962532
Ag 14.103376284380513 10.288901241179449 10.105415927335546
Ag 14.388280022132548 7.583020342853568 10.74796474751901
