47
Energy = -101.18306363 eV
Ag 16.522297138654746 13.953881799869169 10.170138927312356
Ag 15.748940905523204 11.482052314105214 8.882102126328686
Ag 16.312709007527264 13.794467158273603 12.998180641761042
Ag 14.41705708976162 13.955132992259598 8.086219575461866
Ag 16.438681550854493 11.425482176402456 11.58416351297196
Ag 16.550048830403558 9.060678891887566 10.127196937638004
Ag 14.420274162818794 15.570358866765785 11.912969441442806
Ag 15.119790577822744 16.30201106876312 9.385426139248166
Ag 13.698771072361634 11.493568614381994 6.962720252539739
Ag 16.1509436467019 13.798054103403643 15.808389308443102
Ag 14.528860324407997 9.038694825465509 8.058804731802399
Ag 16.323449007086936 11.3630878062975 14.43399442043666
Ag 13.8825585182756 14.224239356749429 14.293690080554116
Ag 15.337363067573984 9.14015838549658 12.977490647172667
Ag 13.85982445203945 11.51936589744641 13.061739545686544
Ag 13.959757164470027 12.980052252243658 10.702882409024784
Ag 14.836418829935594 7.133291687004404 11.134774253322597
Ag 13.882594172651771 9.976694741547762 10.61121159497758
Ag 11.831105274843656 14.306789875153449 12.382501138592643
Ag 11.84067245727147 12.817379297503988 8.573025881994008
Ag 13.961363276765752 12.019292574996445 16.011602311763404
Ag 12.458337315166233 15.354943460664416 9.80108669917187
Ag 11.846183686270018 10.009747535859276 8.443833750199602
Ag 10.29357820551455 16.49749404076052 11.314700825154063
Ag 11.499573897940834 14.880599060912433 15.54187393576543
Ag 12.595802578911801 7.5233283376170785 9.580945429744485
Ag 11.583908717768253 11.586389978029787 11.278646961880185
Ag 11.57157328276024 12.3393258077922 14.38593459866702
Ag 11.482082021245308 12.741588711943916 17.329721969432697
Ag 12.612364960376908 8.252610645734151 12.4821880965679
Ag 9.889656524258937 14.038839405765266 10.154961532169192
Ag 12.900973126280286 9.598850534283152 14.913847872607763
Ag 12.642567149843652 10.217785543257685 17.678795958820793
Ag 9.509071819968542 11.365351218864749 9.347196191271285
Ag 9.437140102688975 15.300177616381195 13.72355396009348
Ag 10.503236769399319 8.987687703718642 10.673656346537856
Ag 9.35078657138702 12.639178556949522 12.644616962149497
Ag 10.469032467712783 9.854166113075665 13.369881197790622
Ag 9.185767591599157 13.259119657242305 15.696890392362919
Ag 7.71599648071942 15.407250622749979 11.545924395248925
Ag 10.321092177878942 10.504833329849612 16.11914894671724
Ag 7.356111006659389 12.792997872227982 10.537512607708118
Ag 8.208835568292491 10.25272678403633 11.65752054414911
Ag 7.046494486718433 13.814109612804323 13.928003482928426
Ag 8.001148476983408 10.97649135120944 14.497559899800999
Ag 5.235760254617702 14.156504818071468 11.832000270622457
Ag 5.956265166828058 11.585789186795196 12.684301995636709
