11
Energy = -19.80294864 eV
Ag 8.404917835995041 8.727459351166972 5.392241710257029
Ag 5.87284141743117 9.493747496243222 6.029802286612643
Ag 8.116570496268814 10.192533121864484 7.795084058994052
Ag 10.03263734174493 8.066681704603832 7.520147082118461
Ag 7.2548053937009325 7.483334007247212 7.683390423635309
Ag 11.70100433291568 7.4659826163898515 9.67905900177064
Ag 9.05474982887376 6.364919777432239 9.503472099919085
Ag 5.531872437719402 9.485693121647204 8.723050078402764
Ag 10.200232816038387 9.889396699897175 9.61611556037049
Ag 7.730618990424954 8.72633185123937 10.210519848306127
Ag 9.954882099185852 7.959053242567811 11.702250839912482
