22
Energy = -44.48628205 eV
Ag 14.231769918679646 10.259201071372443 10.523132733431611
Ag 14.242758481364943 12.245016912156276 12.659264097064865
Ag 12.619428168932115 11.495844400635347 14.925581264582135
Ag 12.536886802943597 7.798501138821406 11.285629516078227
Ag 12.67075566072389 12.696342677398759 10.364811553893091
Ag 12.314166784809677 10.267950502839769 12.515309164490105
Ag 11.663675791585225 9.904461232066382 9.696513859842046
Ag 12.922506020472284 11.575223462031968 7.85419437445237
Ag 10.344566613693969 9.29669682927562 7.438181391683446
Ag 11.58279725191506 13.228261452289328 12.95061211804866
Ag 11.952188417784992 14.461483403903312 8.31170298457152
Ag 10.285904335268356 12.191148545895091 8.52132290358528
Ag 10.306939266485298 14.305778448634964 10.522182499967807
Ag 10.500816067309827 5.981854021808486 11.828015586013345
Ag 10.159620336812496 7.46523993622503 9.537717412751373
Ag 9.969801461513851 10.991413834689544 13.991233883304366
Ag 9.905109698159219 8.754106204465037 12.04383341324786
Ag 8.668290500411056 13.356754163379627 12.776657194098435
Ag 10.099149323502004 11.575532511804845 11.282393592175424
Ag 7.703359773518163 10.63045648145654 12.229731872473979
Ag 7.885326321413348 12.648996427500407 10.049453545933469
Ag 8.68669874620626 9.905943670975992 9.585007636043407
