29
Energy = -57.81821386 eV
Ag 13.381761591523373 11.102165863531557 11.336912685776158
Ag 10.621699295291767 7.058067463170018 8.612030957171505
Ag 12.233144318127884 14.651112055890213 14.871259410832854
Ag 13.255068606928246 6.813130076973892 9.14958914943997
Ag 13.079461308555462 11.989396720820178 14.094282569468357
Ag 12.606572045300558 14.275154299122454 7.787203822859634
Ag 11.58810996385825 12.473684297385113 16.438676734145915
Ag 9.079396101244779 9.062204092652873 9.847281357761489
Ag 8.77016600215467 13.545337857703968 11.814943638038592
Ag 12.22309288508599 11.713713583088099 8.865989625454915
Ag 12.03180645435632 9.383586394761165 13.004544740927235
Ag 11.491042117578013 13.764459938668994 12.352658257783705
Ag 7.644823594915782 11.140930723823786 10.941890349399522
Ag 16.15857412995661 14.636807578235336 10.921916327044297
Ag 14.840055519110981 9.90331431484143 13.411470234469462
Ag 7.8030328337773565 11.664620047120396 13.73487735184728
Ag 10.493380639568766 11.28719137077527 11.091269002688296
Ag 10.39665303852894 10.951681074621838 14.521446860592345
Ag 15.680360810433832 12.278941845157611 12.322549397102112
Ag 11.955764655264062 9.120522690738273 9.925940072886153
Ag 9.660146034220372 13.61977463042227 14.562752231074496
Ag 14.135951500292794 14.466013475239771 12.921981109379603
Ag 15.16281792680826 15.119805787487056 8.416338669348972
Ag 10.615080936041112 13.812786179059175 9.733588797006476
Ag 13.611599521649962 13.750629148895438 10.282167387244428
Ag 14.079588208950112 8.193166550708948 11.41318627764226
Ag 6.033838457467992 13.047184970100933 12.085515495361504
Ag 7.954891283091888 7.022165166568428 8.459297577193132
Ag 9.122257212755267 9.390201467889364 12.645911775734227
