47
Energy = -102.05013823 eV
Ag 16.068179423357186 12.704228612957866 12.487527162092062
Ag 12.28134760245561 10.968261159634153 18.636378362425866
Ag 16.29876021637823 9.885707604473547 12.561678417380401
Ag 15.247643411494078 11.182361197245399 14.840873224571066
Ag 13.411085885417869 9.800090965537025 16.37242596956042
Ag 13.909595922633825 8.70481692404848 13.838753128788937
Ag 15.8832323504779 15.514310252563563 12.441920885452678
Ag 14.876091390352416 14.045899329572169 14.787095330746789
Ag 13.933459173243351 12.610203669753062 17.07398960515573
Ag 10.671655558900772 10.238126658422349 16.484413028454995
Ag 15.697238047740594 11.189654288086885 10.108406906076151
Ag 12.037229633723966 7.522383472916458 12.033565913651973
Ag 14.388819159431312 8.695283193979405 10.92581058748742
Ag 13.695619181079717 11.0595026858055 12.34913318998521
Ag 12.582522301694963 12.23303175252024 14.698323694202994
Ag 11.012332162004657 12.959392714168786 17.150221130507074
Ag 10.013165426854448 7.59721212752078 9.737774560866873
Ag 13.498845991260133 13.993503989019619 12.321991526623979
Ag 15.332347005738532 14.081131150935112 10.052988242415624
Ag 11.284868279585803 9.814007998958122 13.712418785484521
Ag 12.45804631285502 14.923328464735631 15.846012770471182
Ag 13.624862618998312 16.46182573097322 13.780078947833553
Ag 13.623133906942536 10.032355682661654 8.509771460686427
Ag 9.271614230556294 8.356214854371155 12.248000989765158
Ag 12.666710706847018 7.500145119660873 9.193975510876479
Ag 11.429076870874132 9.948390305732431 10.70870797057905
Ag 12.896096209968084 12.383533375036103 9.957722395487961
Ag 8.691144499743011 9.483651560053303 14.716491020555525
Ag 11.209563218493663 12.394658372109376 12.220737578482318
Ag 14.748986144655941 12.52245272223515 7.778761726786132
Ag 9.712945890369328 12.21152163740538 14.646890739904558
Ag 8.742424392177526 11.039717219603201 12.266068418823984
Ag 9.584379366480873 14.830058505596567 15.55297300930989
Ag 10.896932843185365 9.619559621201102 7.947589800967545
Ag 11.155960658987144 15.25593249308716 13.337220176669147
Ag 13.62161666391953 16.300122220144875 10.772536940546125
Ag 9.953297750460877 12.300190646576407 9.603447718661192
Ag 12.010119349848296 12.156583957729461 7.26991408232926
Ag 8.49753156184804 9.939329679109614 9.689542863694363
Ag 13.013317527345526 14.708951756252889 8.40578892269929
Ag 11.191338915615187 14.778324001387935 10.550831356967036
Ag 8.88112296596986 13.95026544524951 12.451686379522782
Ag 9.298502514189856 11.59170194064215 6.915808984936083
Ag 7.262914747161377 12.52865974814341 10.440799777871513
Ag 10.27503771701858 14.35608901266505 7.730951218826392
Ag 8.506476822880657 15.061016379585748 9.940793618845952
Ag 7.60616743045388 13.51966976160342 7.85456592764229
