6
Energy = -8.51026900 eV
Ag 8.765825962111224 7.094026307245302 10.048063860594258
Ag 10.609393375833225 8.838594181983552 8.958782707537651
Ag 7.412892710628601 7.085663655684688 7.698133605732308
Ag 9.242692522625655 8.85270999741265 6.616706855632491
Ag 6.779032870420628 8.896014422036263 9.611959530902666
Ag 8.623821808106133 10.651983310404903 8.549435318998524
