24
Energy = -48.53012293 eV
Ag 13.445740310989597 10.242822778177548 10.504915065058315
Ag 14.884141781997698 12.155357257715842 9.183136367327586
Ag 13.861005744870663 12.740902141696772 11.761795647303616
Ag 11.426190671843637 8.493726398919142 9.124180171744516
Ag 12.247267916052126 8.161152720936222 11.831691844604746
Ag 12.110376528050782 13.014434141068973 14.534672814655353
Ag 12.469552371900743 10.637098810746258 13.151979879775283
Ag 10.598743782129795 10.48298605093446 11.016669716352139
Ag 10.526357292249685 11.653754737667429 7.433931806200394
Ag 12.990470231137802 10.489001580843953 7.730205217953345
Ag 12.181685440765023 12.641836422820756 9.45840145715835
Ag 11.159011996989241 6.0102578923479655 10.610674887237158
Ag 11.044158691211278 13.168696714931881 11.977404790067839
Ag 9.885043070760116 11.516398007550942 13.972182332364254
Ag 10.19619616321288 8.772065998035183 13.556679477786753
Ag 7.767144440422589 11.974441107774636 7.5683439633307374
Ag 10.704245891946906 9.099415410211487 6.512151575654259
Ag 9.262954879565816 7.95498495594036 10.961088923920226
Ag 8.03384782855579 10.10321190958108 12.385309838057406
Ag 9.394778137838975 12.728078733697627 9.713982830222243
Ag 8.881990004815078 9.691229571170128 8.749101030943725
Ag 8.144045018063904 12.901320331757589 12.228930566952268
Ag 6.551791770241484 8.691972320663343 10.58559848022466
Ag 6.939015962919911 11.380609933340347 10.152727243636061
