13
Energy = -24.20790185 eV
Ag 7.364813269807808 9.11010157820864 7.931394768484196
Ag 9.693532627357115 9.95918497263847 6.6640982897810375
Ag 7.84538641161555 6.914474954093868 9.532470670349504
Ag 10.063600759987823 5.4286572855233794 8.739366622406191
Ag 10.165898142653749 8.285546002332705 8.794503553426562
Ag 8.943585404632408 7.013197305420708 6.683451942509407
Ag 7.65984699027292 8.935845552210749 5.114835431524686
Ag 7.488056172468159 4.822547195330375 7.744947366096023
Ag 5.48143615917167 6.990093009195492 8.134116341416354
Ag 5.118423606422277 9.028670413913751 6.179316081440126
Ag 6.434918180622874 6.455752688241105 5.566791068691809
Ag 4.879608528214055 4.504405971925361 6.99046674100442
Ag 3.655451357762135 6.732892014306359 5.901005557665079
