48
Energy = -105.22166617 eV
Ag 16.348047410364348 9.318992658707272 8.31776737942907
Ag 17.583258580746865 11.1159418740359 10.053983400680142
Ag 16.156482181856223 12.64627088363058 7.892717531488868
Ag 16.51174883156736 13.59094546130289 10.646916447627111
Ag 15.968349713131714 8.992121645357466 11.048950740151309
Ag 14.167061779216125 10.239978539198038 7.002185765928118
Ag 15.458260877719084 9.003843379936477 13.772117715586475
Ag 16.23225233031602 11.4618715059498 12.553016503634476
Ag 13.7716100538481 8.533019031081245 9.289908973900166
Ag 14.753503393376938 11.281948774157222 9.738694263209968
Ag 15.24010632319819 15.766917417346258 11.883054132300618
Ag 15.237342126885496 13.761196500835975 13.881027048848106
Ag 14.490688953552718 14.75498191107545 9.081913519653964
Ag 13.250096880351567 12.71415206431348 7.5702270950430455
Ag 14.433949648706836 11.319188990434773 14.942621150912638
Ag 13.590603998590785 7.683525865075229 11.968647318414773
Ag 11.350655611157489 8.94303672744283 10.823450005433333
Ag 12.729718466384956 9.029580481357028 14.40211366864252
Ag 11.630946289503045 9.823839975603631 8.065393681518845
Ag 13.550786542073295 10.56130862262364 12.177687305250728
Ag 13.74384472946884 13.41875205331483 11.395293600506108
Ag 13.198748492162213 15.70813098133007 13.897008820299483
Ag 12.577250785767788 16.04421897817522 11.147384778937877
Ag 11.957285786715357 11.699341810192024 10.126649785327263
Ag 10.992004951614105 7.322069913974694 13.091467870379788
Ag 11.643087086681009 14.486387231078156 9.043946141007764
Ag 10.470307933764813 12.339292175152957 7.731940336545571
Ag 11.756964153519295 11.152983435700577 15.918739013531962
Ag 13.291568737641622 13.69765199486503 16.253456367431276
Ag 12.423822380356594 12.947770958525956 13.806143915610761
Ag 10.478002674158217 16.221915052347867 13.163323248512516
Ag 9.36082221407643 10.6733059956823 9.866730319261913
Ag 11.061017301243282 15.417789035624514 15.754462848876946
Ag 10.798117988694706 10.940891918845795 12.966795624706702
Ag 9.84220186155055 16.201161501535456 10.363676804035826
Ag 8.85376382855091 9.182280854527603 12.366559791487829
Ag 10.80336639417945 13.785371354258501 11.721300090539737
Ag 8.900922936957672 13.568715946748776 9.682517499955539
Ag 9.301280768682185 10.777259661115098 17.199044253109502
Ag 10.00890577974386 9.023022136100948 15.111697608088265
Ag 10.686287665950056 13.233840886148556 17.374302199448618
Ag 8.333046629812253 15.66971451620665 14.954499172521645
Ag 8.111153230058276 14.921656963039402 12.185105684388576
Ag 9.693256879512118 13.34352250073995 14.300535450286434
Ag 8.279139971179939 12.052610619347375 12.06422435303895
Ag 8.077077228851701 10.953883773742804 14.658388333975946
Ag 8.031787191442062 13.185804159305874 16.5546363885981
Ag 6.763644406015779 13.382141263805575 14.081926032832358
