12
Energy = -20.39558798 eV
Ag 12.675677959173909 8.960839536726274 8.723096468346112
Ag 11.416876721151496 11.355008269141 8.62332674262924
Ag 11.612603172303597 8.570891401519145 11.148812624176585
Ag 9.65258499817285 13.093542747441795 7.743461891405232
Ag 9.479877820954762 10.394458726067644 10.52115144818526
Ag 9.824183967977618 7.677629917593408 12.794624303062651
Ag 7.612114610055753 9.01958638646972 12.026419491269648
Ag 10.570084223547838 7.603802854406615 7.700031875902956
Ag 9.202291263787957 9.979319334552946 7.743039593992717
Ag 9.221424884192775 7.679790882858489 10.060464859702055
Ag 7.597289152832819 11.9511354341282 9.027155832911232
Ag 6.823542933832084 9.415208030929314 9.569239734140426
