31
Energy = -95.41937157 eV
Al 7.11124484885072 10.69790637539407 12.910882237879413
Al 8.891429937147175 10.967462073907093 14.863383922263592
Al 7.987735381671608 9.199747313830237 10.753187347483355
Al 7.54034517151177 10.310885599461528 8.270906642798154
Al 8.87555079761502 8.628187933603023 13.218154708025722
Al 8.301206875856732 13.326973359736476 8.432136841606441
Al 9.585398842950974 8.14856824592721 8.924623684814684
Al 8.761171753613285 13.342859139205023 13.082655237616253
Al 7.773207150748828 11.985270158708289 10.663183149549193
Al 9.97665169060125 11.149648034064827 12.320660669634963
Al 9.376198117512091 11.923525770976019 6.457079009201257
Al 11.30030075092097 12.056944802025384 14.714781905119901
Al 11.19566516593605 9.332207878205185 14.419562506293031
Al 9.427204498793106 6.793404903063187 11.319973663232279
Al 11.020918530887737 9.080549985906986 11.189273757605514
Al 9.935192547002181 11.01416428268275 9.001251815193518
Al 9.96037179722745 13.710626895718814 10.59883947179558
Al 10.2049217992188 9.384498062123933 6.6630242673452535
Al 11.618491985760391 7.026583124296244 13.007525264930024
Al 11.804702066199926 13.386635927377514 12.470936792040568
Al 12.870622817653599 10.570765859944068 12.753869240283322
Al 12.067282586018313 11.319967830914209 6.974460943741018
Al 12.049282782254801 11.591535180404865 10.326663191114838
Al 10.995285321763758 13.566004606941055 8.07900172979512
Al 11.81982914117512 6.850658550221328 9.992279255991297
Al 13.616472928952636 8.075044782148163 11.602054678893584
Al 12.702327075264305 14.280113494083766 10.009879598397568
Al 12.313173636917217 9.276870532727227 8.721341864862524
Al 14.268067004888847 12.575989575162223 11.410462835212714
Al 14.526066013148874 10.173266335235738 10.217814472458672
Al 14.072122701957998 12.185434066377029 8.5566944806397
