31
Energy = -94.0175351 eV
Al 8.627985404476437 11.13616574434747 12.774742422817798
Al 12.430107085833926 10.909403711971988 15.266608594541108
Al 9.615219292133416 8.542846988114391 9.451609578532931
Al 8.456844138774947 13.1369745742171 10.936935138813471
Al 14.327228678835969 13.42653798134131 10.864636941181889
Al 12.57626972341443 9.480686916175719 12.891286312050168
Al 10.199541244311767 9.853408791719147 14.472231984407081
Al 12.798382998549537 15.421420876893636 9.915662147187746
Al 11.00596103278286 13.562267526866778 10.674984968128946
Al 10.001323833967504 8.442266998236562 12.156185934441648
Al 13.057068698219974 11.07251326045466 10.784214268775525
Al 13.983473267723719 11.828056354354775 13.145941443350733
Al 11.163642143980303 12.06325453909631 12.975342044871569
Al 13.83814222312202 9.872733843636098 8.478125984416456
Al 11.34335727046531 10.17334904770153 8.082163735096062
Al 14.772126962116678 11.940945353778924 15.930508091944132
Al 12.187528826107862 8.455143581966482 10.30565019204906
Al 15.169834042610772 12.05390057781112 8.774038143564377
Al 8.838348221507037 10.022904070618049 7.282169695995395
Al 14.794344584390826 14.633473357395019 8.277768469350056
Al 12.528395176971378 12.750073920466724 8.59583623135426
Al 7.83598424072968 8.625401966981117 13.949642973090704
Al 7.751822069507365 11.075472855691627 9.444707101052865
Al 12.56523410946675 14.473634364797167 12.571095001450304
Al 7.059471932756561 8.529099467372038 8.647295929397442
Al 6.240760832837989 11.69933101559684 11.611272019965162
Al 10.36184400603775 10.826153512239289 10.659187595884193
Al 7.559684298415165 9.10487439369054 11.265685772904344
Al 13.0340896393317 13.654027100062123 14.962758862611407
Al 12.153131459255635 6.879829014463935 12.51249725060814
Al 9.820256102421226 12.451251832998192 8.43661871122059
