31
Energy = -94.04763145 eV
Al 7.730235224880522 7.376300336560973 8.82144051501782
Al 8.233922269065069 9.792644345408451 7.756452999408275
Al 13.062429966922954 10.250595543046435 12.506586495759175
Al 12.594922721856141 12.3852277477824 9.106978002159979
Al 14.837753557773176 14.407374991774995 13.91989788768692
Al 13.053565869893523 10.861325737885709 15.088406582456365
Al 10.198623722976553 13.556429785862829 9.928075948564326
Al 12.328927892368421 13.591582418954419 14.76695991314471
Al 11.018125127417505 9.34166516538458 14.329007379855264
Al 10.793058891571732 11.86822883609031 13.52897072627942
Al 12.913357061949805 12.883873211796457 12.025768565482904
Al 8.273226931114605 11.638255405668978 9.852712292888427
Al 10.664918537266146 11.561979948165728 16.252822710840313
Al 10.38230444418167 11.199384943012827 8.21344744933591
Al 10.636629117367807 14.502443265673644 12.777205749489083
Al 10.895354434943357 11.16583764644061 10.960579115588612
Al 12.443173258905375 14.879712508868709 10.217132615223115
Al 9.803170995637362 8.957674331561545 9.72814119329153
Al 12.942076251206675 15.662360271784335 12.67358528987112
Al 14.646145498568824 12.814020679540178 16.038403026701783
Al 14.816106877322994 13.54097061846873 10.03734400168737
Al 17.171788849533513 12.160310242266542 9.64485612670043
Al 6.560555457674959 11.294783836363814 12.059829763105602
Al 12.975611601948549 9.720779739979518 9.810297587067327
Al 15.209252406182515 10.896800957575127 11.083785861617585
Al 15.058237422978229 11.758560107669576 13.490518248938153
Al 8.922103680860115 9.99913252797534 12.46737516321363
Al 11.22250921098982 8.515338183721349 11.79444077047039
Al 14.90241628904145 11.118704693312084 8.471713557964126
Al 8.645714414850353 12.849018094847352 12.213242063551053
Al 6.953898450239032 9.330845029642141 10.421254381420324
