31
Energy = -95.40562744 eV
Al 11.39952651448803 12.941191628273227 8.837923628933048
Al 14.011330198047858 11.785129509299388 8.21165353146129
Al 14.127035535580909 10.361049908753866 12.607580818143107
Al 9.355510905414997 12.053073781955439 14.56083971559671
Al 12.608035722404704 11.443558206031678 10.643247064065708
Al 7.527336512378824 12.99511981545975 11.482422401215095
Al 10.08702632384419 11.977839974857853 11.15720923897596
Al 11.761254098710905 11.760136505581922 13.294971885670293
Al 7.182393210456226 13.686229209059768 14.090506251560782
Al 13.720701975834963 9.004286171544026 10.23382422128685
Al 11.884000919116618 10.043215003796927 8.085155067565964
Al 12.08748558426865 8.7697392013376 12.739965300382554
Al 10.7340343219215 9.41708279902038 10.494837830463817
Al 9.876779115355644 7.322189405440539 12.228782009533148
Al 8.29571967625638 7.833190539663733 9.960663941468939
Al 7.4163108278365435 8.394822784029436 12.510202818939796
Al 7.970701515328655 10.37991433978201 10.721689834663843
Al 11.747681128182927 14.145080816037261 11.383165963787455
Al 14.046315713374067 13.038519983363981 12.384241630939583
Al 9.09771376305952 9.945099770253664 8.383792706425586
Al 9.69948850775552 9.829708799967301 13.131968934458573
Al 10.61581076531409 7.688925655671069 8.252787095163384
Al 9.886703396693562 5.67270356354794 10.003816159517406
Al 8.557356236244873 12.603564755970424 9.013980830135823
Al 9.984249371912027 11.893688870339679 6.827060505907397
Al 12.53780370707979 11.926547356395147 6.077937771425767
Al 15.37719860259423 11.50368478138478 10.492011035343566
Al 7.189009237934554 10.967643223794111 13.272555434982106
Al 12.142873676026387 6.921844712802304 10.730867839484532
Al 9.5657501305615 14.163206582380678 12.826412525699995
Al 13.935054644720843 13.960204182903144 9.786117845501252
