31
Energy = -96.51926801 eV
Al 13.844129108263097 9.785294948168259 15.515571317448336
Al 11.292701177407022 10.704305619662067 15.399815064177655
Al 13.519559063625218 12.33294862880404 14.441227839041883
Al 12.057010187788448 8.71905578773371 13.59906550102518
Al 14.30704273729512 10.207184856378154 12.829016661856079
Al 14.043568179507758 12.815122371371231 11.88508102982506
Al 9.455580387824902 9.73885865986701 13.751552385477845
Al 9.797055215234616 12.57030706810606 14.22417676673171
Al 11.647365036074431 11.239076406995244 12.572347167728505
Al 10.25072275412745 8.010221856786115 11.719676474435172
Al 11.825082393756825 13.929059013888136 13.127754655422766
Al 12.614716327957286 9.191328067660873 10.970405723783855
Al 7.606148127290351 8.892908319206889 11.990681875315499
Al 7.842424074502479 11.686615646849909 12.63326075891897
Al 14.795822852365644 10.653750322669534 10.21303634594995
Al 14.367336383130112 13.262023329101044 9.30169141628724
Al 12.068502407781553 14.147571951290264 10.423314579231882
Al 12.04478287351506 11.560635064420776 9.739352326114018
Al 13.371739524993451 9.569728085502154 8.30269233386819
Al 9.543968645065187 10.413934287974374 10.697308818041714
Al 6.849568331673279 9.676360319028356 9.343126382836529
Al 10.962042375608583 8.815950624684602 8.871883103664368
Al 9.848507927501135 12.999670192939345 11.434258649379059
Al 5.715918251235867 10.93575626622309 11.321504900389913
Al 14.039195122721745 11.813055115746316 6.918852808493668
Al 8.651791739237394 7.826757883954677 9.599236314221312
Al 12.160066917876929 13.646731740550814 7.769059517276641
Al 11.366185714098629 11.096167064980728 7.070946226982782
Al 9.832885224310887 13.13879343406141 8.72373862248468
Al 7.627005493113925 12.31448448450856 9.889167383870989
Al 8.910417636908482 10.565184772680052 7.980039241511418
