31
Energy = -96.1545081 eV
Al 10.08945049144985 14.353391277973543 11.10283857817665
Al 11.610356530827284 13.22705843894275 7.103609034835768
Al 11.173264100178475 12.886030664726608 13.891951671442955
Al 15.0691614739222 11.203700340064662 10.772290820182063
Al 11.320327763176534 10.4958299589942 7.359022176512512
Al 9.506808030317721 14.345179806382173 8.526683760771675
Al 10.232586786552067 11.460286293778342 11.765141265040848
Al 13.54832281769709 12.166572319379192 8.822319745639454
Al 14.633010967215995 13.854655663200475 11.032286646759948
Al 8.171840410710185 12.36181087986906 10.2338124654364
Al 8.890474566936556 11.960647144882673 7.446045855880377
Al 12.347488145435404 14.453896997169746 9.541804592896726
Al 12.457664542680968 9.950731411323586 9.792872095765254
Al 9.40994185274595 9.948894189833753 9.2948363488467
Al 10.161436729443443 15.374677900497172 13.583834477998858
Al 11.247824208839354 7.9936422602079915 8.173341322777732
Al 10.888089539447154 12.206467031031313 9.461751183667339
Al 12.52335147533405 14.781527530038977 12.372636422685085
Al 12.546211549130385 7.318527155511897 10.47917860092168
Al 9.416372038018611 7.36238370074549 10.056565417018687
Al 8.50171054718237 13.202100002960954 12.980689407276044
Al 13.763452187750765 9.336378154670033 12.059720379668423
Al 9.037327746559525 10.751004047964768 14.009248774288343
Al 10.774662586162682 8.914246022036854 11.834927317618918
Al 12.772674508125112 12.070988724173723 11.792624491379168
Al 11.927360643540155 10.41860910052797 13.90039952410854
Al 8.027944029175487 9.825430111874102 11.573660110424674
Al 10.840860085449792 6.318043541801816 12.269875360616616
Al 10.087480385619923 8.288607710249497 14.416647708083579
Al 12.61969153347917 7.748605140072751 13.779655361414916
Al 8.374548700189738 7.391773452407906 12.541426055158063
