10
Energy = -16.51254700 eV
Ag 10.916742715508027 6.9245746564541655 7.441695880027394
Ag 10.669123812593602 12.122978954678201 8.126686014056295
Ag 9.882821716014979 10.582103048140903 10.270092292044826
Ag 9.975439182381374 9.5014826231237 7.617549681155494
Ag 10.674716717212513 8.864560420338524 12.232886819246534
Ag 9.819877352991533 7.696702357826442 9.86049808960134
Ag 7.9544443852101825 11.228784977160077 8.40860882172937
Ag 7.9441980906873555 8.951966473872265 11.444307475271847
Ag 8.129405509509903 7.44334581515774 7.674905032705734
Ag 6.554299290247708 9.05416810308836 9.150101946013544
