19
Energy = -37.32347300 eV
Ag 14.759061666189131 11.882295833487781 11.391235074439187
Ag 14.106213289113107 9.412454122751473 10.302294784126179
Ag 12.346348204353601 11.670641927705226 9.863464919581304
Ag 12.486535223116267 13.115865416370129 12.339208232070892
Ag 11.901106238442871 11.096243306883288 7.170895467806757
Ag 11.928210946433952 8.825016412155554 8.756994412225769
Ag 9.920178136975018 12.361872572676674 8.632254200663226
Ag 12.554837842793532 10.335492407014646 12.454129915347055
Ag 11.954987805514742 7.891533602881947 11.35639414577271
Ag 10.63736619987746 11.674429311019427 13.952732290410832
Ag 9.555631619718831 9.654972403152524 7.722485440499191
Ag 9.96351961173156 9.203249022182325 12.752943901722968
Ag 7.492141565207388 11.425371058584055 7.526778727558378
Ag 9.526091011859661 8.136198786607624 10.102586378205391
Ag 9.98282837791847 12.60987680173094 11.379505585795165
Ag 8.075205263012716 11.306487216978644 12.990885430953314
Ag 7.94824897655137 11.15800811218138 10.219143187591664
Ag 7.093134021990813 8.884590651765388 8.886351327382116
Ag 7.386949708508905 8.865454628553353 11.724284303128961
