31
Energy = -64.21464821 eV
Ag 9.556635571742628 15.474214372562574 11.692496290278365
Ag 9.730543469195425 8.654593203862541 9.978330239378185
Ag 12.253376313542063 15.705577735070165 11.319955909874382
Ag 11.417928216822736 9.417871630134943 7.8186064402945465
Ag 14.477085101196446 14.091491307074476 12.17938121170561
Ag 9.08794043623141 13.222242896535098 13.475067447778383
Ag 13.681872298398218 14.25530672711826 9.494189649305477
Ag 14.087003772862317 11.525638969300966 13.36043687924607
Ag 7.025137863009401 14.766346221180585 12.466794433354075
Ag 11.303766446437125 14.193882877893845 16.43179570023452
Ag 11.480369249106346 12.26759092802809 14.484102123371306
Ag 14.32998314876815 9.080291770912172 11.708418188353756
Ag 11.917778096084987 12.746935394833335 11.656884116958276
Ag 10.249027210095486 6.109264802077848 11.024568672833013
Ag 12.576344008291729 11.944462181202248 8.394431092133205
Ag 11.90809557018539 9.796547303532508 13.36274988063433
Ag 8.419393334988397 13.164048691155108 10.683476852764867
Ag 14.151192843771755 9.50382116684863 8.777380125925193
Ag 9.89340774535499 11.414016250660815 9.09868343623575
Ag 12.046619976718919 10.104990534315224 10.512844487083886
Ag 14.499304235409072 11.735601212526426 10.490803314482955
Ag 10.792811132292869 14.097623011033967 9.444720799848843
Ag 16.46459175983417 10.743204623781311 12.162211589823965
Ag 12.333371896960179 7.295069675987356 12.342876791499926
Ag 9.645691042165035 10.914444678178455 11.848825644221845
Ag 9.346774593011924 10.476386661205257 14.519806863706885
Ag 11.23293757936521 15.10787563155327 13.868577380701417
Ag 13.656062823233531 13.897572603253812 14.88263119566047
Ag 9.641607407520157 8.199303560661887 12.805367761457024
Ag 12.414075224218145 7.42033680859475 9.592244789080173
Ag 13.737839875121656 16.35691503505474 13.619354167700958
