15
Energy = -96.25480071 eV
Ir 8.881340336170581 9.704949388435253 11.142289390743814
Ir 11.490588657961041 9.902033470937816 11.664277886841994
Ir 7.865416856873355 7.213639463940422 11.372307860544957
Ir 10.357896866316848 7.67366748886323 11.318040074605765
Ir 6.77728861259499 8.995297395324442 9.904835468312614
Ir 9.003216081609283 7.562498840693335 9.13365673845531
Ir 11.165388167734973 9.088642450289516 9.302557047798365
Ir 8.347317913796582 10.626128795349507 8.765984653297753
Ir 12.599015523148164 11.189160024376722 9.35257737392014
Ir 10.274214578039915 11.547619634639263 10.141667959532162
Ir 10.702492676639668 11.167340762394243 7.672392839275979
Ir 8.475630529505159 10.813126990032561 6.293645715166571
Ir 7.289695136509102 8.592694167149787 7.42969151751093
Ir 9.796819155533427 8.87861608450543 7.1250865847165334
Ir 6.6021838369841825 6.67309004306821 9.009493818694247
