10
Energy = -61.08800655 eV
Ir 6.261804425590934 9.207853909766456 7.517522110611033
Ir 8.375423427949645 7.971405296858992 7.331379267021161
Ir 7.300532686196508 8.499043751856865 9.679840123591646
Ir 8.312564991018112 10.43866905303072 8.258320901443064
Ir 10.299287909283011 9.546428383945722 6.871494413668925
Ir 8.464542182312474 10.497161706649353 10.840795466517042
Ir 10.661881007065979 7.627054943524157 8.495660989712805
Ir 8.612908482910404 6.3235957049728135 9.238654026197553
Ir 9.526695436497924 8.172209618101581 10.72145403209617
Ir 10.495654313024664 10.02787256221817 9.356173669140855
