13
Energy = -82.53271435 eV
Ir 12.521367724314581 11.518428825907174 11.272389187887539
Ir 8.033434275685414 9.036373174092828 11.272389187887539
Ir 10.277401 10.277401 11.560611863357863
Ir 8.068692575078453 11.648001703123517 11.298613419063914
Ir 10.385891182703473 12.737363985687738 10.934788060528913
Ir 10.168910817296522 7.817438014312261 10.934788060528913
Ir 12.48610942492155 8.906800296876481 11.298613419063914
Ir 11.257288394537595 11.126412814843293 9.09694094385623
Ir 9.297513605462406 9.4283891851567 9.09694094385623
Ir 6.86250362691963 10.38125096852646 9.440678017755976
Ir 8.81702870863449 11.923875572520481 8.979390906082731
Ir 11.737773291365508 8.630926427479519 8.979390906082731
Ir 13.692298373080366 10.17355103147354 9.440678017755976
