14
Energy = -88.14434266 eV
Ir 9.872295264254552 10.642232693840164 9.8969065
Ir 11.200194089835739 12.32716017348556 11.196505282504502
Ir 11.023939284793364 9.640515078411191 12.119564545399502
Ir 12.493038543002031 10.584634707043742 9.8969065
Ir 7.5931601319721675 7.948567081122741 9.8969065
Ir 7.393317126270272 10.887689218059093 9.8969065
Ir 8.586255854973755 9.423564689803316 8.173378539912134
Ir 9.64206109924818 7.14065618921761 8.527651862789947
Ir 11.240432395612968 8.450204084867389 9.8969065
Ir 11.200194089835739 12.32716017348556 8.597307717495504
Ir 11.023939284793364 9.640515078411191 7.674248454600497
Ir 8.586255854973755 9.423564689803316 11.62043446008787
Ir 9.64206109924818 7.14065618921761 11.266161137210055
Ir 9.05954688118622 12.979571085815152 9.8969065
