12
Energy = -76.06114663 eV
Ir 9.342542715574965 8.121071395428938 11.06488092795406
Ir 9.531967730523535 9.867614621768817 12.744466901660047
Ir 8.124458132883198 6.83743044258789 9.421292411354903
Ir 7.664597002720559 9.963043652519163 10.943935676776226
Ir 10.850204021223918 10.231420049378713 10.7383074932892
Ir 10.14629414051265 7.8470119157605245 8.619630416999827
Ir 10.663755788808702 8.649732823537311 6.386151670679246
Ir 11.464205295052084 10.093853399181516 8.142617697199508
Ir 8.996068650553264 11.441236508454958 9.648460752836337
Ir 6.900777767505812 8.866104821539443 8.883227169978738
Ir 8.859596376487502 9.83864974231637 7.868309106613303
Ir 11.3547529366701 12.182913515293782 9.359934400243619
