12
Energy = -75.80675325 eV
Ir 9.385062765485007 7.974885087013922 10.187642019911937
Ir 11.215259260639323 10.860874606069698 11.46045760727777
Ir 7.66368582440497 9.096981584247253 8.534049565551626
Ir 9.830712331650894 8.104888289866974 7.67066229353335
Ir 9.609557337791221 10.626883885440158 7.611302708672209
Ir 11.273193437075268 9.449540390712725 9.294735235019653
Ir 10.931440506932633 11.992025477428522 9.158570135130322
Ir 8.240192083814271 9.180352372649258 6.119586128437369
Ir 11.493394946798578 8.338121745633682 11.579349296524214
Ir 8.991130596321096 10.701693012296811 10.190365233080573
Ir 7.180552563454379 9.072525189812966 10.93618927338014
Ir 9.309478099305634 9.369833762284893 12.366470438053193
