12
Energy = -76.02198975 eV
Ir 10.16062834708204 12.475127984982311 9.979991
Ir 11.052376353747967 10.48545874139674 11.28853896065281
Ir 9.073492000778366 11.900855908835258 12.219486952734197
Ir 10.886489999221627 8.059126091164744 7.7404950472658
Ir 9.073492000778366 11.900855908835258 7.7404950472658
Ir 8.907605646252037 9.474523258603263 8.671443039347192
Ir 9.799353652917963 7.484854015017693 9.979991
Ir 10.886489999221627 8.059126091164744 12.219486952734197
Ir 7.940258033908257 11.428699984094203 9.979991
Ir 8.907605646252037 9.474523258603263 11.28853896065281
Ir 11.052376353747967 10.48545874139674 8.671443039347192
Ir 12.019723966091751 8.5312820159058 9.979991
