13
Energy = -83.52632971 eV
Ir 7.4423721764711415 9.646244443354407 9.369542959411138
Ir 9.651606704056473 8.742378701565162 9.297259357328734
Ir 8.768392053886226 6.704294671154104 10.464583292154904
Ir 7.943430305002425 11.168834955175432 7.544034381503717
Ir 6.430681719637254 7.678204625168895 10.315387991612763
Ir 9.942174229178942 6.30949004275883 8.304345379753942
Ir 10.255990727865443 10.408855941176071 7.554991165907687
Ir 5.213682210897595 7.6994657115706175 8.128499196205718
Ir 7.410502038194359 6.469280660195187 8.268033026527952
Ir 9.548869647744079 8.26065244912059 6.740175566784034
Ir 7.1827599893635865 8.888696162930438 6.982666000826868
Ir 6.466577504918124 6.799978285491973 5.9196512181377985
Ir 8.757091371145272 6.047474973714976 6.031375193593588
