11
Energy = -65.57932989 eV
Ir 10.442614184276346 12.727287082004068 12.720145491596346
Ir 11.95495557799035 13.270202054226598 14.637794974766404
Ir 10.32095825178054 10.107758572568155 12.50601193445626
Ir 12.953679474605208 13.415040879933557 12.405346635576707
Ir 12.002454424577493 11.707929515283334 10.923793826583019
Ir 12.443725057100053 10.827235995517498 8.717074001468347
Ir 14.235750786178082 10.122916902368921 7.574504824460512
Ir 10.743554819875769 9.653996841705222 9.910071688688992
Ir 12.30082275545005 11.118587559716302 13.485514353446224
Ir 9.39737192971433 11.70639999999513 10.73468699437293
Ir 8.527027718905318 9.377637015849926 10.973123364224419
