13
Energy = -82.91396173 eV
Ir 9.973716 11.70395019503736 11.835512287233703
Ir 11.235498522842756 11.170515007474943 9.642056292678163
Ir 11.775337524195205 9.973716 11.919367939379617
Ir 7.751250191897237 9.973716 7.531043891367548
Ir 8.172094475804794 9.973716 11.919367939379617
Ir 8.711933477157247 8.776916992525056 9.642056292678163
Ir 9.973716 8.74472997103705 7.389390714443286
Ir 12.196181808102764 9.973716 7.531043891367548
Ir 9.973716 8.24348180496264 11.835512287233703
Ir 11.235498522842756 8.776916992525056 9.642056292678163
Ir 8.711933477157247 11.170515007474943 9.642056292678163
Ir 9.973716 11.202702028962948 7.389390714443286
Ir 9.973716 9.973716 13.739453098147566
