14
Energy = -89.25977492 eV
Ir 11.692614341323635 10.978380499821547 9.9466135
Ir 8.650708749215935 8.776400215178258 11.294626775907515
Ir 9.746757993816548 11.04698891350817 11.532334244670603
Ir 7.755072548530817 10.805543095715137 9.9466135
Ir 12.253992444718216 6.892495805105295 9.9466135
Ir 9.754321159187324 6.883270132305192 9.9466135
Ir 11.191104493891258 8.796803157792981 8.720123921890462
Ir 11.193654952544804 13.137837926354802 8.69812230071008
Ir 8.944600373466557 12.970850357238954 9.9466135
Ir 8.650708749215935 8.776400215178258 8.598600224092479
Ir 9.746757993816548 11.04698891350817 8.360892755329395
Ir 11.191104493891256 8.796803157792981 11.173103078109541
Ir 11.193654952544804 13.137837926354802 11.195104699289924
Ir 7.287535687544948 7.2059887504374425 9.9466135
