10
Energy = -58.50021637 eV
Ir 7.619139224189571 8.64536874609862 10.435671894841041
Ir 8.295681323186566 10.986791241682642 10.369220663596895
Ir 8.962645726419948 13.329785470555246 10.293012968925593
Ir 10.733745392569288 11.600292545374561 10.351152494236407
Ir 10.038002060545931 9.174712784610271 10.422516939704902
Ir 12.480115678015853 9.786898913318637 10.406137625486497
Ir 13.156109367599903 12.126765757676546 10.328461065901257
Ir 11.404105706359985 13.932566208323477 10.286062092888553
Ir 9.36890180163534 6.840607088755648 10.509363772735147
Ir 11.810778650681225 7.445436106011269 10.467625550480408
