11
Energy = -67.79573631 eV
Ir 11.239356121534652 8.710280537431442 9.812097255526455
Ir 8.41175725108513 8.429316280679286 9.102030305170272
Ir 10.306330012989761 7.073792884300887 8.175959420595149
Ir 9.327683503219955 11.43992285467305 8.876046078885809
Ir 7.829091591698543 10.12040822504925 7.363163400987133
Ir 6.957031369737743 8.1983953102918 11.164329325947808
Ir 11.89184756248244 11.009243142299244 8.892355884165548
Ir 10.222039683533328 9.475924335346257 7.56365230633162
Ir 7.979917736864617 10.387376961676551 10.695749177889718
Ir 10.539820380682174 10.810630472224348 10.983232248501695
Ir 9.39583623575889 8.44542089520286 11.47209537120533
