15
Energy = -97.52253419 eV
Ir 6.463207104359104 8.180169636798562 7.052682552478158
Ir 5.144736393745549 10.158174069669055 7.871670652504195
Ir 10.112352868877863 8.055069389097145 8.923001638495593
Ir 7.620827304192634 6.576359338201513 8.458554681151895
Ir 8.473271545013965 7.3807858949646485 10.70955154092395
Ir 6.83568387399935 8.878856151494123 9.441275756136465
Ir 8.996025394689628 9.969610456831976 10.170076056158914
Ir 9.196889237393881 9.698837118986908 5.148979040348372
Ir 10.84599536871586 6.099926824233396 10.237817303088438
Ir 9.025493515693428 7.729193782563919 6.5738111391359295
Ir 9.355734911247342 10.064188474654662 7.654569604414914
Ir 9.93326762892154 5.777875831780039 7.856400914599098
Ir 7.2942992770384185 11.222349085515052 8.702348023801692
Ir 7.184184093519513 10.433962047943801 6.315785786913501
Ir 8.679894587587047 4.936505002260789 10.04533841484444
