10
Energy = -61.4097993 eV
Ir 10.100468713113987 9.607119719311813 8.04049047377113
Ir 10.38016800675323 11.253804670205602 9.83793083612241
Ir 9.98244541170113 7.497119087837036 6.733784630411482
Ir 9.915351635253845 7.293964703398331 9.213195559233297
Ir 8.904495059618801 9.37660405856282 10.403475575400561
Ir 8.091383960489472 11.0403512143359 8.658198968683866
Ir 7.89684058292386 9.081950930390402 6.950875810627131
Ir 7.9581398121405265 7.106386296371978 10.743941076611735
Ir 7.784033081318068 6.845970507141715 8.089423831243108
Ir 6.760724938021638 8.853465709019352 9.19648418316991
