14
Energy = -91.7025862 eV
Ir 7.260534717783293 8.192600721936216 6.550428784566735
Ir 7.276963033254935 10.595385318448866 6.540984593341124
Ir 7.727328169233745 8.206094806061916 8.981262005520655
Ir 7.743431428563949 10.5946539155419 8.972015622834615
Ir 8.2319748396158 8.211131010812146 11.432020408216223
Ir 8.248077674195608 10.602075272239874 11.42298687058212
Ir 9.611993506379937 8.196467676247432 7.301391525279114
Ir 9.628325613523472 10.565168241499357 7.292053574546836
Ir 10.220313899894427 8.169478707096351 9.781227989889722
Ir 10.236293519108912 10.603854651066321 9.772015307965237
Ir 10.575815414392627 8.188729265929318 12.291569651838987
Ir 10.592167453132934 10.598655615331804 12.2823951471191
Ir 12.30099646760981 9.376107520008167 10.677399229573743
Ir 11.81746726331043 9.371280273868068 8.173932288726329
