12
Energy = -75.40951503 eV
Ir 11.077136886624293 10.145420589168555 8.198566870988984
Ir 8.740321010715025 7.528989409136093 7.856451092522743
Ir 11.768651657150823 11.605524088562435 10.022495453711825
Ir 9.354370811400587 11.469237645545363 9.698052346773935
Ir 10.492473476530174 7.699983404755318 12.157010918256464
Ir 7.081015726032865 6.434353239448963 9.259806486517464
Ir 7.011450003447744 11.264459449263311 9.237390012526129
Ir 10.251973216297761 8.736410022499745 6.443655008769108
Ir 8.92776309293567 7.564837326947123 10.43286411879506
Ir 6.999779679755045 8.870751727940194 9.32910441091834
Ir 10.683585324653517 9.488645411152808 10.66376696156329
Ir 8.534919046161871 10.113136968997008 7.627388032232245
