12
Energy = -73.47565056 eV
Ir 9.38542709096648 6.846460665381814 9.48237943407489
Ir 8.25549177791315 10.651211760812563 11.67715218110353
Ir 8.163874145435548 8.54611444761404 7.944736462585743
Ir 7.534143597885552 10.652590019874914 9.161212699518302
Ir 11.770534280237436 8.18489521062569 10.172565340888637
Ir 10.65604105292936 8.44565950720816 7.828001117532981
Ir 11.072559975432675 10.526494893521312 11.531051832460275
Ir 9.448499726423185 10.80173378617811 7.368585002495297
Ir 9.642434307639949 11.838498162946035 9.793895453613072
Ir 11.57602227514004 10.471917558814065 8.95409173037049
Ir 7.247373999690857 8.352134732805014 10.399777692385364
Ir 9.526910151733446 9.271507558220675 10.050555815891197
