10
Energy = -61.96239654 eV
Ir 6.451591827474795 10.801544467955573 7.947124257314411
Ir 7.132179180527802 8.634762235761082 8.672377130598258
Ir 8.60747234646052 10.855279138694312 8.921453480515638
Ir 10.93144433104664 9.66075194006738 9.15014514717957
Ir 9.218975857222636 8.713194147428736 7.418441937229684
Ir 9.99978411832446 11.09848581150051 10.888061465874427
Ir 11.63397468691184 7.941417735446688 7.57482534045264
Ir 8.845047385555848 8.95562580143295 10.727596947517833
Ir 9.983603359524666 7.124281152737335 9.157029146815443
Ir 7.817929360630089 6.817786190559742 10.163769697944597
