14
Energy = -87.89073033 eV
Ir 10.747131442232579 9.122295871993735 11.831716290355283
Ir 11.166036411672783 7.9007994524798 9.500791964073384
Ir 8.276812355411973 10.289368947531448 11.689599838696349
Ir 8.971013260801552 8.339256057713389 7.940428569255618
Ir 7.22782395866046 9.632441958883863 9.392999112980661
Ir 12.18395025069384 10.393297919996757 9.890205224853556
Ir 11.150715947349685 9.729879851528475 7.587285534267542
Ir 10.469556608910565 11.71571643067293 11.377995878244535
Ir 8.683032475979115 10.874726554795396 7.454827774056826
Ir 8.262303732051832 12.129274615779554 9.870300872339712
Ir 10.730809790944903 12.189790266936491 8.72685320278779
Ir 8.751091182806812 7.841639923964552 10.62556379200474
Ir 9.70489975449845 10.054462412230267 9.633067557152913
Ir 10.702694278063072 6.649028861457097 11.592268056005825
