10
Energy = -62.67574114 eV
Ir 9.942328203944488 6.672952670218689 8.332771186435634
Ir 8.792871744426856 7.972262695939201 9.988928395070477
Ir 7.833909904194527 6.403848588977282 7.117062187585664
Ir 10.400073439911072 8.692965362201603 7.086113006303703
Ir 6.708773902251599 7.580986243365335 11.121204777601099
Ir 6.639432344972845 7.728704305135003 8.769127821129349
Ir 9.304924731813202 9.965595248985876 8.769042469066353
Ir 8.307395748646556 8.468933426289984 5.875350697073082
Ir 5.826286801812026 7.682448270386078 6.295010106905898
Ir 7.18792998150912 9.698822761713087 7.539078540088356
