11
Energy = -66.43389566 eV
Ir 9.451489049400395 9.826135085145705 10.506233690140725
Ir 7.76761112540717 7.775749947456687 10.730206656721096
Ir 6.922858195808972 10.071868559245706 9.725343686472641
Ir 10.130400039557014 7.310642601367031 9.929698244945353
Ir 10.933241596984857 9.289035395105783 8.350817031060286
Ir 8.547081721593182 8.660450907163364 8.50056198830314
Ir 6.751152161309298 9.738193542539284 7.160663398859261
Ir 6.204716912972599 7.749905620891839 8.70328496809316
Ir 9.427847372100294 9.205277824447176 6.242050266283685
Ir 10.076905291324294 6.99337687785584 7.39437402989918
Ir 7.642449582432894 7.221096524491389 6.652187806761143
