13
Energy = -82.43891192 eV
Ir 10.113400554295463 9.710544907801546 6.720399676094049
Ir 11.59301370651642 8.30496196581265 8.226207995163604
Ir 9.496249649570927 7.118778415940616 7.468883473506276
Ir 10.314375291666966 6.82444354420893 9.85845256508937
Ir 9.190742820806179 11.354858340338872 8.646660962892604
Ir 11.624760358835461 10.82855459633326 8.418261466195714
Ir 10.097546775174802 9.367211733132974 9.975503044198785
Ir 8.127630191023847 9.063701054891434 8.20177212812026
Ir 7.686851826869297 6.82610163705653 9.34268760830643
Ir 6.729995900731463 11.14145596949876 9.004451681150497
Ir 8.58778037475645 8.0079115993246 11.41021914797892
Ir 8.169079663768501 10.678580146742105 11.052311148145723
Ir 6.55455971726982 8.918152929428148 10.19183296504511
