12
Energy = -73.43382681 eV
Ir 10.448282220261941 9.083320617940219 8.233307187119262
Ir 9.584327239047724 9.518596803704769 10.47606738974736
Ir 10.825575884683913 9.440936639832879 12.644986559498644
Ir 10.358052427271787 11.12977247776876 7.055952187091931
Ir 10.774441151248723 11.44732822389644 9.50242496937199
Ir 10.120822409873545 11.591273949270587 12.020136731357619
Ir 10.546672366687712 13.83263798733722 12.833776925208674
Ir 10.385330677917697 13.68437721930954 10.495865648641118
Ir 10.313243168003764 13.43525010244286 8.120792579346887
Ir 10.737394963086595 6.81521787600148 8.787608515007532
Ir 10.400572662339362 7.282990073681467 11.042632441759197
Ir 10.077956829576923 7.310970097610544 13.359120728257109
