15
Energy = -97.51325517 eV
Ir 12.92481189369086 8.423509729445968 10.478925040051424
Ir 11.379326181546823 9.455274092775499 12.011599728459014
Ir 10.271783087732388 10.78882987838273 10.27454627423542
Ir 8.427384440910362 10.144477191600178 11.922870392236781
Ir 11.48433224385403 9.32830083742733 8.616565861210447
Ir 11.465083606465186 11.802455340362295 8.358710142678719
Ir 9.668734369781534 8.11615038131712 10.928372644539925
Ir 11.267003958588456 6.9300219585115785 9.460154999219744
Ir 7.773601915405362 11.098834378346297 9.696430207983909
Ir 9.318092311260825 10.779704214019754 7.745467414734008
Ir 7.338425602450603 8.58047791969719 10.194282356256878
Ir 9.235890245864473 7.987633784206174 8.405922075646233
Ir 7.024156689159194 11.793562786989655 7.48384814746219
Ir 7.161897505769008 9.348342692352995 7.669696497949066
Ir 6.89240547622159 7.023226489607846 8.380017068157098
