13
Energy = -79.58450794 eV
Ir 9.6100277901848 8.259741227944614 11.762187194010666
Ir 9.455372340899284 7.024884270248806 9.387979834609924
Ir 8.310375357864768 10.611152094984336 11.504883612557503
Ir 8.08610611794787 8.545820915283567 7.710893347205511
Ir 7.376364066463878 10.816779900737313 8.96365629560184
Ir 11.706366833955006 8.22564903064 10.055377712433708
Ir 10.762815271465996 8.435873582356171 7.516127568410123
Ir 10.991681758280627 10.481946306915134 11.315994552477969
Ir 9.468190330530396 10.776230464557363 7.262753257052867
Ir 9.621359101939099 12.015325331585993 9.639632906976084
Ir 11.680578641229738 10.57916678433841 8.76594928626044
Ir 7.396417847746589 8.470712499142754 10.262685328533372
Ir 9.541293504312744 9.519556406522046 9.512616542632454
