15
Energy = -95.94406311 eV
Ir 8.807756827435274 9.027203904933527 9.112170689129261
Ir 11.377099586707859 8.918321444669385 9.120523908017754
Ir 6.174424461770827 9.194802028952166 9.101163260200016
Ir 10.232727743429486 11.28535820446988 9.104852331760458
Ir 7.512875647809586 11.231658017641932 9.095173738056992
Ir 9.933971030292039 6.712112462043757 9.126483191734426
Ir 7.547171437828599 6.323290390380366 9.120668772000377
Ir 8.794051578076218 10.476347125012177 11.20902889511059
Ir 11.315934968506161 10.37254173082283 11.231789450802397
Ir 9.996548199603831 8.147609117299629 11.277062162976819
Ir 7.4074505552858065 8.032916820484926 10.957462052790305
Ir 8.80347517647608 10.455067222107168 6.996078878196893
Ir 11.332432874295893 10.351801691703814 6.987221813004736
Ir 10.010113253580313 8.122911154944825 6.960407460606394
Ir 7.419919131943185 8.014011184533235 7.265865868653356
