14
Energy = -89.21816812 eV
Ir 8.638482 8.638482 10.584270729160117
Ir 8.638482 10.584270729160117 8.638482
Ir 6.692693270839881 8.638482 8.638482
Ir 8.638482 8.638482 6.692693270839881
Ir 10.584270729160117 8.638482 8.638482
Ir 8.638482 6.692693270839881 8.638482
Ir 6.880383410358463 6.880383410358463 10.396580589641538
Ir 10.396580589641538 10.396580589641538 6.880383410358463
Ir 10.396580589641538 6.880383410358463 6.880383410358463
Ir 10.396580589641538 10.396580589641538 10.396580589641538
Ir 6.880383410358463 10.396580589641538 10.396580589641538
Ir 6.880383410358463 10.396580589641538 6.880383410358463
Ir 6.880383410358463 6.880383410358463 6.880383410358463
Ir 10.396580589641538 6.880383410358463 10.396580589641538
