15
Energy = -97.19771049 eV
Ir 5.7946955367719175 11.855006421717105 11.048861927372043
Ir 7.121056930793077 11.193636486251151 9.161833011692508
Ir 8.66650024902914 10.571801367772041 7.251642235878903
Ir 7.994760395808994 11.05922466994374 11.600771803639883
Ir 7.711651755851699 8.746917653339422 8.867734843925412
Ir 9.587925309156597 10.55100883165028 9.619083194901624
Ir 11.212706151366522 10.834106795296641 7.650202867325432
Ir 12.103612881168152 10.720904320315404 10.103332108612255
Ir 10.096923284822747 8.536027056027297 7.905555149842808
Ir 10.396056504551145 10.343969253790242 12.014564857121078
Ir 8.576272481508322 8.623755098575073 11.245885496998477
Ir 12.607152654449262 8.85441716222037 8.438677214570458
Ir 11.019565841045734 8.416783033004847 10.429081449776127
Ir 9.151365845921468 6.760197111696407 9.599108726998086
Ir 11.553290519106278 6.616087995974783 8.712815232002814
