10
Energy = -62.23546799 eV
Ir 7.801119616754627 6.945995670260506 7.584249525418028
Ir 10.25582933251067 7.010045780292521 7.606880188914859
Ir 7.721599983214844 9.325618247342394 7.578947065065553
Ir 10.151770151427256 9.389235984907996 7.710450821420516
Ir 8.775129368426235 11.51419238871131 7.695452383698515
Ir 7.791033047076525 6.851753141446227 9.979462730726423
Ir 10.17582642350967 6.96133080361013 9.987058498967343
Ir 7.843860482099621 9.182010620881988 10.04775908896716
Ir 10.337325454790227 9.284687600516152 10.050128703109504
Ir 6.966436140190197 11.355059762030521 9.579540993712227
