13
Energy = -82.67570435 eV
Ir 8.931116585803398 11.63764241963689 8.397323330659109
Ir 11.199827954098202 11.161284602648244 9.15068952336803
Ir 7.345873801890912 9.73487405946654 7.516607016465437
Ir 13.478554486982901 10.495499287179868 9.965205099012232
Ir 9.769924644701812 9.266517255925049 7.921676769655508
Ir 6.863730798736604 10.806130550533211 9.727376971380364
Ir 11.535599019692636 9.285851286005553 10.878781633473695
Ir 9.233805135721692 10.618049831948396 10.754640467536655
Ir 8.056902864636266 8.487561387180891 9.677592791005088
Ir 7.179712479323489 9.492166830871206 11.865208351591782
Ir 12.240685318249778 8.909541512519102 8.444545476613795
Ir 10.389067640691733 7.483349722890307 9.558059589127545
Ir 9.432261398162904 8.349613700493535 11.88273036768433
