11
Energy = -68.17735748 eV
Ir 11.405291634148828 6.514567000950578 10.021568707882388
Ir 7.348307598148477 7.2835243286349165 7.64051260079288
Ir 9.571595093928119 7.131700749976938 8.713507177556146
Ir 9.628289746860732 9.028813146222069 7.263624763160808
Ir 10.55785011547268 11.181784306961317 7.7266048408817305
Ir 10.084671601324727 8.213451641235602 11.02368647044923
Ir 7.634301970398355 8.642227608835023 9.755274251146725
Ir 7.406955884885409 9.838809555687853 7.5994855304531175
Ir 9.492212806640385 10.39589490482722 9.857027188473742
Ir 8.318460403906137 11.96340555481839 8.181144655045482
Ir 8.241360704244752 9.513437524236563 11.91235213432193
