12
Energy = -75.18369536 eV
Ir 8.13480695967541 11.609778254153003 9.223222171340485
Ir 8.128986259420024 6.486017923211992 9.350735181149048
Ir 7.9682958193932825 9.013390105251363 9.50735228167551
Ir 10.247136742413803 7.746719300198385 8.532769151190402
Ir 10.181715791834568 10.392623799847245 8.527327932820214
Ir 6.686724441805724 7.826039966257341 7.646325615966245
Ir 6.78761086841038 10.40750368802035 7.6373260263764395
Ir 9.56750764203979 7.759911280895955 11.033729223849694
Ir 9.534048022181487 10.368222161843436 11.001218542436508
Ir 8.744699060651389 9.109505527108283 6.838378656315271
Ir 8.775298603973573 6.556992484355582 6.868096080842766
Ir 11.601437888845844 9.081563408211801 10.19178713603754
