15
Energy = -96.2054834 eV
Ir 10.436610978190444 8.773778448693246 6.643310648247187
Ir 8.392175263406386 8.235220637108409 5.254887059244552
Ir 10.456611386956274 6.7210901281545565 5.053887928282755
Ir 8.105353607199577 9.404691848285719 7.530292077944902
Ir 8.306291410077115 5.991614836520231 6.244201812042707
Ir 10.35995449214292 6.536870766789401 7.629807165440587
Ir 6.379504607310443 7.651186517264619 6.799346177141815
Ir 5.734805313157429 9.689492944776546 8.333754276637558
Ir 5.658970976654028 7.408258550087253 9.323817278833367
Ir 8.020634399707745 6.878013222031029 8.628839278511538
Ir 10.004290593098018 8.537427446405692 9.096240556008135
Ir 7.828975219998464 10.986405272796762 9.388040245754418
Ir 7.7168215102461355 7.181159348643596 11.046816588263667
Ir 6.4143832468068585 9.353030076915216 10.751777027592661
Ir 8.923157936250528 9.390300896730075 11.013522821257391
