11
Energy = -67.38514142 eV
Ir 8.333333913878453 9.336138746785027 10.817951651866325
Ir 8.33167679126611 9.329750632346155 8.145949459152666
Ir 7.342533014183092 11.298768879897365 9.47792869788713
Ir 10.141272368006835 7.970343287977799 9.487155010173307
Ir 9.779475871226062 11.200411409631613 9.481648339131583
Ir 6.121766774761145 9.050087404013482 9.481654910657586
Ir 7.7771043721318005 7.1536850231800075 9.487702030536004
Ir 10.859033699614299 9.67163911542681 11.18755835069299
Ir 10.861503149374206 9.665671469382957 7.776846289169421
Ir 12.531951453046844 8.574910881264348 9.486242258040953
Ir 12.232853693155974 11.061098150094447 9.481868103336609
