13
Energy = -82.25177639 eV
Ir 7.931258481543916 9.835743525346517 11.170402288639021
Ir 8.073653683334419 9.49866951736335 7.2204522756122635
Ir 7.857331582106908 11.247947408629372 9.074785157937669
Ir 9.369700299733568 7.630666139880077 8.087490705835116
Ir 10.0428745853365 10.92238124101552 10.313589668863898
Ir 6.459484441719519 9.13653143033777 9.201387043525465
Ir 6.892805267175042 7.17918350478128 7.785752779849515
Ir 10.167855299123396 8.597762845056083 11.305716598509257
Ir 10.551003407755589 9.152331611084739 6.345632294837365
Ir 11.136136064017133 9.04810797478883 8.952304909442924
Ir 10.040840986914793 11.067247108676685 7.785729115599536
Ir 10.723274208770407 6.609192949473826 9.976760290345123
Ir 8.152576192468942 7.473029255063869 10.178791382500266
