14
Energy = -89.36754836 eV
Ir 8.732683920493361 7.948165784644903 5.07843734027975
Ir 7.154295067940987 5.919510063075004 5.799072002213153
Ir 7.149907348274242 10.545575676077023 6.568393126463338
Ir 6.369185360550465 8.333023402045336 5.82605804209222
Ir 9.273025143535277 9.229855584811482 7.097418269033835
Ir 9.007924703332753 6.698068323688378 7.315988962732363
Ir 7.257820888194417 5.072174024796976 8.20087526535236
Ir 5.396441698535636 6.680364791495636 7.537454904598395
Ir 10.483716815525517 8.122394003710523 8.92024632632681
Ir 8.205765645698795 10.66657556355451 8.875875872189106
Ir 8.967538985069329 6.203517260349043 9.796330591095938
Ir 6.679013640794606 8.69548148248184 8.315416548167676
Ir 6.494299612576346 6.796511161326186 9.957825067850186
Ir 8.342123696350114 8.602525404814596 10.224350208476851
