10
Energy = -59.38100038 eV
Ir 6.303938127992281 8.560312277176353 8.29936861675976
Ir 8.543084190687152 7.630297323659918 8.971293757223481
Ir 7.683915343223279 9.70294727666171 10.135194075369315
Ir 11.915495330212247 7.314289418994088 9.997764402502733
Ir 9.96590773518295 8.70996784080427 10.810187328626501
Ir 12.143652119978423 9.81915472606793 10.132458081687638
Ir 9.925543576103877 10.861434259073453 9.48374647397643
Ir 8.461390668744498 9.77174562064163 7.624248978925128
Ir 10.735124910997369 8.774405768845686 8.300855222534315
Ir 6.5179062417885465 11.072567762878831 8.434806137244513
