11
Energy = -66.6304514 eV
Ir 10.584398701198701 9.008250447329951 8.362314822843
Ir 10.433726189894116 11.559829721416847 8.302538527326611
Ir 9.074187544170421 10.359221614790664 9.978579870892071
Ir 12.588125041035045 10.429602439106318 9.10558087936126
Ir 11.909092938207609 12.639938961021098 10.077361879702067
Ir 13.066186272359495 10.884776590469361 11.603484076231227
Ir 9.333648317750175 12.938049762291946 10.142783266336705
Ir 11.317898880902609 9.178704928545685 10.810770507784932
Ir 9.30317731720014 9.42270751059786 12.258014860032313
Ir 10.597819516261042 11.511047545112184 11.835156243848726
Ir 8.093770500883274 8.369901699180947 13.82544628550358
