15
Energy = -98.212535 eV
Ir 7.721684778014246 9.053953503060756 11.40039050564971
Ir 9.578058318714529 11.215719081489127 7.712955376356489
Ir 9.995313601207556 9.05904653441856 12.590110187270382
Ir 11.797121422817932 11.5575836524282 8.534062871936223
Ir 12.10601499648471 9.044035472633126 8.848239807273872
Ir 9.947274088363631 8.864052677035348 7.498865042178645
Ir 11.99514848330774 8.181644270211502 11.274789202787796
Ir 9.448040796100337 11.553338849638504 12.364937782196764
Ir 11.282020959938128 10.55937087250607 10.848869885782761
Ir 9.820109922002834 8.441800489047365 10.03277161501932
Ir 10.350540936948523 12.802551985400509 10.27766403208536
Ir 7.71829154851232 8.985422814109455 8.807779703201769
Ir 8.711787216351004 10.928644682902087 10.028043293628139
Ir 11.978128442585314 10.012336468774246 6.548309138732023
Ir 7.914304488651324 10.104338646344708 13.596051555900733
