10
Energy = -55.15659054 eV
Ir 16.231718643059843 13.081952788080942 14.218289104246182
Ir 13.765713248579265 12.527704949186873 14.584340612884441
Ir 15.033683462507685 11.629007848186065 12.548032945076418
Ir 16.876389362642474 15.014277357144275 12.654626556235284
Ir 5.244322934046258 13.099533805934879 13.665780649866347
Ir 17.323656342874308 12.545674400871192 11.962726471330921
Ir 14.47967349928148 14.698094796124005 13.412017893965235
Ir 15.189066266597864 13.742623081148437 11.194261087046494
Ir 12.9336073503838 13.057489534548452 12.193701981870197
Ir 4.198145184174917 11.155937543297476 13.68645494800941
