14
Energy = -90.33663454 eV
Ir 12.312871052457746 11.356386769556792 10.88050023703453
Ir 8.165661399920674 10.122049645586062 12.63692274248154
Ir 9.971794253537585 11.339558064165324 11.56630217008469
Ir 10.740216397635018 9.33639752372001 10.406917359145552
Ir 10.76479216999674 11.460360821578208 9.007985783533455
Ir 7.754503566833981 11.15134728318839 10.35700865418165
Ir 8.933703782468056 8.081636717028207 11.53770793005314
Ir 8.492088993711354 12.319139458483471 8.353500197590991
Ir 11.259581603193235 8.934951119649597 7.974911020693836
Ir 8.40307711911438 9.072345032613958 9.331024298505127
Ir 9.214317741052648 10.21831079871769 7.3375974566535795
Ir 9.251296207182262 5.959781008956732 10.459810629399081
Ir 9.484352322514082 7.061713703125745 8.398389774452093
Ir 9.770178497696422 8.060682939904595 6.205545558364144
