11
Energy = -69.12352576 eV
Ir 7.383285158077474 9.304889175457573 8.382564463248437
Ir 6.1726237878365735 8.184355161176796 10.154741242935085
Ir 8.621460313379881 8.591838161747427 10.600059417656059
Ir 9.310697127569526 10.860955167557137 9.152741832047209
Ir 8.93345393057851 7.437611996317949 8.25528678962495
Ir 10.297421688640238 8.669083483654509 6.656805538158358
Ir 11.724413283586241 11.23688486080464 9.721413442482667
Ir 8.73805770474994 10.550610364555762 6.786667631816096
Ir 7.721927776856636 6.31271138791367 10.027990019333869
Ir 10.878307037438427 8.978840135449627 9.016355820837575
Ir 10.36838554010332 9.980484870015573 11.363527217616452
