5
Energy = -26.13924983 eV
Ir 7.88186266488903 8.190851467926615 9.91917214654163
Ir 8.222427728959222 7.280569028649964 7.581605676301228
Ir 6.272522375568895 6.800050701995019 8.901012971264425
Ir 8.554535992277797 9.61751916642586 8.014207504998755
Ir 9.5409717020603 8.601209851089717 6.070845541525452
