5
Energy = -24.64947374 eV
Ir 11.321210880304168 11.279481777705364 10.162380293658114
Ir 9.095562837391618 7.859854384280662 8.694205120985488
Ir 9.387747226007159 9.797689325513819 9.811670266011879
Ir 9.463008105097265 12.173436699736252 9.164395705195265
Ir 7.915983601697102 6.08764416136077 9.337868133505468
