6
Energy = -33.36686027 eV
Ir 10.122435150225698 9.696741720427784 8.1186977771087
Ir 9.345447498931424 7.6243371112919744 7.323392537035485
Ir 8.542532800754298 5.452546465367494 7.826678489170072
Ir 7.757301059548745 9.629352512150648 7.915179385273471
Ir 7.110617811658134 7.234784068156285 8.4046127473997
Ir 5.7559057657669905 9.036962911651718 9.099945694804845
