6
Energy = -31.17049509 eV
Ir 10.894819470759858 8.950775759840505 10.764181418835983
Ir 13.93541766574873 14.274096099017838 11.299904771814798
Ir 12.544743601888136 12.827995078651645 10.280605603422385
Ir 8.87956378399962 8.389077737667627 11.895967682446154
Ir 11.231571239862367 11.270865626523634 11.351954212542008
Ir 8.997739573492444 10.507552034818133 10.81446878957832
