6
Energy = -32.43267402 eV
Ir 7.566880334273082 8.523904610359617 10.396403638030552
Ir 7.34058643767545 9.68310095104432 8.34760887728751
Ir 7.42935071085013 7.251540632590982 7.5791634843443845
Ir 9.178960625964018 7.217786292387346 9.267967790562139
Ir 9.761924496933299 9.555857230784145 8.43635284563008
Ir 9.252842353473865 8.298355282833587 6.503048323315301
