6
Energy = -32.63967321 eV
Ir 10.01537895470915 8.712849313367986 7.281006535243296
Ir 9.734032895914698 7.546206806406514 9.44621005244391
Ir 8.164259024084474 9.32419467300529 8.804144293965471
Ir 7.368107061462844 7.271496037270048 10.081081967461357
Ir 7.802037425706072 9.185935787991317 6.303227518220436
Ir 6.6576811205899835 7.717599401411442 7.821149685290729
