6
Energy = -34.48262663 eV
Ir 6.4562558541545165 6.946659621369646 6.52100568087754
Ir 8.890020855238655 6.9894539491344485 6.510391889333358
Ir 7.708350726777906 9.118379746176748 6.520987283843335
Ir 6.4561417596600394 6.947115357993785 8.848894000458579
Ir 8.890039421397667 6.9894465537779915 8.859437993599212
Ir 7.708714382771212 9.118467771547158 8.848806151887974
