6
Energy = -31.87970935 eV
Ir 9.189185520139718 7.144590706071225 10.103360734729936
Ir 10.047448663005053 9.177351278599005 10.364685582367136
Ir 10.347755551962077 12.774179330590467 11.603575026595726
Ir 11.462972347742136 10.592279876401438 11.701417982010884
Ir 10.071548147504044 11.443437897247241 9.559121376739924
Ir 12.312348198162942 12.279115223664638 10.126722788535098
