7
Energy = -40.79210129 eV
Ir 8.29063150598818 7.715418917226227 6.772269821155197
Ir 8.641974903027146 9.898720603561332 7.815958509004853
Ir 6.573831517164671 8.714862527353983 8.303082216733015
Ir 10.328679892789934 11.026148730467403 9.093296543475722
Ir 9.682534630830832 8.801662269111773 9.701944047869073
Ir 9.317151831582905 6.64531941996946 8.610051971675382
Ir 7.595461900832931 7.630026889476142 10.14230795929888
