7
Energy = -37.30601116 eV
Ir 9.880062285053132 7.960981635230524 10.857648568776078
Ir 8.6945013 10.085661542425024 10.751776978428806
Ir 7.508940314946865 7.960981635230524 10.857648568776078
Ir 7.508940314946865 9.42802096476948 6.53135403122392
Ir 8.6945013 8.6945013 8.6945013
Ir 9.880062285053134 9.42802096476948 6.53135403122392
Ir 8.6945013 7.303341057574977 6.637225621571196
