7
Energy = -38.69350733 eV
Ir 8.98091739976568 10.012830052950052 8.930843132321847
Ir 9.58918759961924 8.228879573694947 10.501067764782519
Ir 6.774077482272376 9.885893720662256 7.825490351333302
Ir 7.893935764803589 7.7267656716274695 8.39633952204633
Ir 8.836811680228427 9.20291554040116 6.5480190947628625
Ir 6.586533073087179 6.003040527178817 8.769003119799931
Ir 10.410185069860535 8.052723507150649 8.181271677185327
