7
Energy = -38.69168846 eV
Ir 11.448177013354481 11.171830302958051 11.730802188352245
Ir 12.66493537161412 10.862277697683133 9.523914062677191
Ir 11.024310622520959 9.061410923026939 10.214043956403493
Ir 10.172475369840107 11.43406149309558 9.44690176318293
Ir 11.009990950504003 9.758333762974138 7.850429872714914
Ir 9.161929783702302 10.21576828229485 11.360602194671152
Ir 7.2758856161611405 9.729247573430534 12.382666165370571
