7
Energy = 111.67338743 eV
Ir 6.565186061490718 7.049297304504459 6.293005318515165
Ir 5.7775643021473275 5.536036338753056 4.747603918945236
Ir 4.707757807285866 6.743748553220101 6.671480908388226
Ir 4.411004970750002 6.967233883563166 7.698444848421255
Ir 7.952707655375599 5.531293967935733 4.951054832503891
Ir 7.52599700086011 7.1712531937093695 7.1752408728409725
Ir 7.062183660103503 5.030545498033967 6.468402742546324
