8
Energy = -45.4550481 eV
Ir 7.818488802980291 11.960952995745576 10.388637409498415
Ir 8.901352948352265 10.048876798228168 9.007962957662373
Ir 10.212640830862375 12.119197006887484 9.824803524467095
Ir 9.347875919610695 10.390965955125887 11.506182603266527
Ir 11.23280343546516 9.673282861206618 9.810647497344712
Ir 11.595877242694193 11.359513986604197 11.736440498274176
Ir 13.27923574482867 9.686096087658203 11.052565696622056
Ir 13.70966259537771 11.253426753776012 12.834077483395495
