8
Energy = -47.20867452 eV
Ir 9.008956518769512 8.912160313117804 10.952358148426399
Ir 9.710790387812798 7.745200329404751 8.751951185300571
Ir 7.50005711057557 7.237815132668926 9.979540809825904
Ir 10.723751556182451 9.5160844898767 7.1545011954923545
Ir 9.239531597474828 7.896314134823699 6.205326938614923
Ir 9.034896503871835 10.157223323060506 8.759562641831518
Ir 7.523946597431572 8.507388526506077 7.793273360485585
Ir 6.798112896129363 9.650521540301028 10.017265039424748
