8
Energy = -46.25612201 eV
Ir 11.638331542956541 9.366940399490899 11.223852394602096
Ir 9.708752799583346 8.07192886162017 10.833435503979517
Ir 10.33046432157307 10.076799423140352 9.3906349696212
Ir 10.322167722794097 11.825604487399987 7.811273554081686
Ir 8.730818827550626 6.173705370634293 9.827167173106943
Ir 8.00038448719315 8.241521514881313 8.964065651948646
Ir 8.54134245544616 10.29570017925188 7.582512950609209
Ir 6.330398395275597 9.557140555046287 7.965153883827742
