8
Energy = -50.19676652 eV
Ir 6.510775517473689 6.492787024057326 6.4950159404515215
Ir 6.495862522335142 6.493341988493282 8.857161211582012
Ir 8.872981487794766 6.495419270936577 6.50939084745475
Ir 8.85793576948612 6.4958896824833054 8.871683285203959
Ir 6.508091045621268 8.870039070759228 6.494225970899359
Ir 6.492904142467276 8.87068525865842 8.85651571441082
Ir 8.869970677706837 8.872568699908287 6.508423176556598
Ir 8.854878841027286 8.872669012528354 8.870983849528374
