8
Energy = -47.41755126 eV
Ir 9.500723180415184 11.023924362808588 10.638613244193813
Ir 8.739671367256403 8.734819072477288 10.5883027825671
Ir 9.232840051072312 6.545263620447517 9.514011367260675
Ir 9.222002724405254 10.04902911451229 8.54185219789938
Ir 6.928727928177517 7.441901009919362 9.497727021151137
Ir 9.172575597045624 9.732902065512922 6.141199280188078
Ir 7.371681787299631 8.629779544420847 7.499208029660273
Ir 9.74241514530201 7.744447262418054 7.537035459122613
