8
Energy = -46.46000687 eV
Ir 7.260212934400749 10.455521609348294 10.424942924297069
Ir 8.754543501890556 8.903823595769746 8.999447087297668
Ir 9.375008188389712 10.130704653362288 7.037319449508081
Ir 10.657486001702239 8.278931804742891 6.32628690736441
Ir 10.10482332003718 7.068445681472962 8.285063781546338
Ir 8.069580361985528 6.607272851582285 9.683110198847691
Ir 9.119362699108706 11.362341134207442 9.194723599289032
Ir 8.001453575350915 8.377852527321119 11.3147470588131
