8
Energy = -46.34164009 eV
Ir 6.204534612974827 7.056893895135227 7.9889101953090425
Ir 10.869342483001823 7.292397191804206 7.094340543328051
Ir 8.558296826554765 7.296780491940156 7.65799055409957
Ir 10.32532033951702 8.186117082567076 9.218356366781554
Ir 10.231932105392685 9.038913039158825 11.43022073107442
Ir 8.89344672847786 10.154782525890875 9.794034052907318
Ir 7.10206944701766 9.235096295854087 8.279384761147496
Ir 7.620471483265173 11.544433503851103 8.342176821553982
