8
Energy = -45.20752645 eV
Ir 10.113069651159206 14.058471062530769 9.31830339314214
Ir 9.315066469574985 10.53954464079068 11.176251502424009
Ir 10.863671945480695 12.044346081531243 9.860986561990321
Ir 11.874365615626715 10.337326448419898 11.551722613602383
Ir 13.015250578609095 10.844827151420652 9.41173965891114
Ir 10.962387302874797 9.462405767902775 9.49303929503436
Ir 8.152807427752006 8.793015879691596 12.32424701776291
Ir 10.388543696533278 8.253822195346267 11.64172495832577
