8
Energy = -47.23684159 eV
Ir 9.428261283399907 9.47387334756133 7.348144184610672
Ir 11.145565746551606 9.686669843173753 9.182548276619036
Ir 9.852700824065138 7.619178249628992 8.919721358757101
Ir 9.829974826489073 11.789705730576118 8.455903511645555
Ir 8.594129316210061 6.1594358844357195 10.337118493888653
Ir 8.11287337107252 8.499630793463274 10.408539989486929
Ir 7.690503053766076 10.370513361309884 8.855956813117045
Ir 9.397937030820403 10.570827108653353 10.699845658372817
