8
Energy = -46.89223319 eV
Ir 6.642405766552169 6.605627123831552 9.33458937923995
Ir 10.938157169637911 8.172630854266417 6.998841316990673
Ir 8.811480669210074 7.266664592522801 8.11532610555635
Ir 8.12025360833003 8.33856070036182 10.347835176140611
Ir 10.237139619567737 9.129708129240344 9.19963742161128
Ir 6.816528455676123 8.893039412673408 8.336607462928574
Ir 8.928161802150639 9.659898965241352 7.188408736327197
Ir 8.249913028745825 10.71923748911299 9.420592763759926
