9
Energy = -53.81882896 eV
Ir 8.312366645199168 10.600218140875384 11.857073748804885
Ir 8.813479173071483 10.444519600749516 9.341920602248893
Ir 8.162280173129137 8.38232443322707 10.68792966726319
Ir 10.654453622260062 12.097312415641657 8.645240119796215
Ir 10.524102196144144 8.655512013011867 9.754135313616056
Ir 12.369878836543123 10.304337901900999 9.081652125686812
Ir 10.046736018095272 8.822932717149946 12.271143354300255
Ir 10.683316185140807 10.870157127027975 10.90103626778067
Ir 10.476441954846587 9.865740454845026 7.502923604932816
