9
Energy = -52.35107377 eV
Ir 15.588715869725185 12.404516955894051 12.462520251291586
Ir 13.355074104399609 13.524219174494792 12.252489887744053
Ir 11.246138588689268 12.300106609103374 13.097030502417786
Ir 11.569842220806063 12.633994799691914 10.612096532657851
Ir 9.463773399247579 11.656322961193865 11.451524153846146
Ir 7.229603999095942 11.864746456461894 11.410033893300886
Ir 13.550017899611234 11.214410890931683 13.258294946298696
Ir 11.74784109728245 10.324427440318148 11.614003612632377
Ir 13.894159128058929 11.547780764496874 10.811125678620506
