9
Energy = -53.90380547 eV
Ir 10.663248349579113 10.04288102861103 8.557975700069985
Ir 9.367903755857586 9.418905478876246 6.547328196330748
Ir 9.632392756875548 5.93326965458835 9.65708943745861
Ir 10.729900734403966 11.145817984415052 10.681072434082608
Ir 10.17687191142782 7.674607055358302 8.10730035719963
Ir 8.645894896089377 10.219810341345456 10.029916961103263
Ir 8.133518857988117 7.76686176977899 9.547034253620227
Ir 7.406081691573822 9.572136525654956 7.883612907297825
Ir 6.346219369150234 9.356829477756799 10.137162528585852
