9
Energy = -53.99341452 eV
Ir 7.881521475223591 9.521817164639547 6.774576380366452
Ir 9.900907558870667 8.661746995562106 7.900577519705665
Ir 7.6994929646774946 7.314735666880039 7.980998405753377
Ir 9.802374939674632 6.415795776809068 9.05488035775116
Ir 8.055867824371967 11.554594354114737 8.036216754898089
Ir 7.922926756982232 7.175869329476895 10.535889851710076
Ir 7.906751680579009 9.423135390029604 9.45931168315403
Ir 10.079543181708912 10.77693132772319 9.145519594211066
Ir 10.097916929569667 8.486327389445234 10.47521935266526
