9
Energy = -53.33176921 eV
Ir 12.853957766751522 12.936263888277354 8.940236027277072
Ir 11.429428013167437 11.027208491862021 8.61259272309338
Ir 9.858006323292797 9.154127910953518 8.905618641183349
Ir 9.57291557949232 10.011831975393198 12.523420400247169
Ir 11.483198223639747 9.726605640755734 10.823372924005167
Ir 11.752831608989494 12.207869220965803 10.912861745983367
Ir 9.5124363900685 11.29545989658716 10.298451467003682
Ir 7.953266183167988 9.394319981596533 10.64462705745914
Ir 9.867885449387797 7.872819576309656 11.158129408665337
