9
Energy = -53.17328478 eV
Ir 8.473185380917236 7.62216290762785 5.0536388429812575
Ir 6.402098276999472 8.620725164404504 6.206792818516469
Ir 7.963755189555984 6.160350134208562 7.1094741066581495
Ir 6.273634748338919 6.2693730645924886 5.170734233560786
Ir 5.392012966258807 6.630745522879516 7.424019572388662
Ir 6.71732478489773 5.900235278267074 9.339741454438315
Ir 6.670641776155487 8.392866524751696 8.729523307762184
Ir 8.711381457112484 8.670132278143521 7.253726520062669
Ir 8.914080516588827 7.25152422194974 9.230464240455936
