9
Energy = -54.06588476 eV
Ir 8.814003176981538 9.054806830478318 9.86721895883367
Ir 9.994040311848027 11.05988462464894 10.998888189450073
Ir 7.729605334709161 10.640434415235228 8.439307663388337
Ir 8.924025880815302 12.487298455413688 9.436393886762993
Ir 10.637766576987753 8.38058324703096 11.450737654526595
Ir 12.171362606219743 10.007414243549539 10.371513359084766
Ir 10.32758439675775 10.517493426250642 8.525497799784329
Ir 11.406945316456126 10.37029478263938 12.818858730515265
Ir 11.159489498579566 8.18957684156315 8.954159395145405
