16
Energy = -30.33141564 eV
Ag 9.830001 13.087575039327223 10.411720822482893
Ag 7.5256214905361976 12.1343805094638 9.247414741367121
Ag 6.572426960672776 9.830001 10.411720822482893
Ag 7.5256214905361976 7.5256214905361976 9.247414741367121
Ag 9.830001 6.572426960672776 10.411720822482893
Ag 12.1343805094638 7.5256214905361976 9.247414741367121
Ag 11.85446046228729 9.830001 7.79023036161387
Ag 9.830001 7.80554153771271 7.79023036161387
Ag 7.80554153771271 9.830001 7.79023036161387
Ag 13.087575039327223 9.830001 10.411720822482893
Ag 9.830001 11.85446046228729 7.79023036161387
Ag 12.1343805094638 12.1343805094638 9.247414741367121
Ag 11.269329249411308 11.269329249411308 11.870638074536108
Ag 11.269329249411308 8.39067275058869 11.870638074536108
Ag 8.39067275058869 8.39067275058869 11.870638074536108
Ag 8.39067275058869 11.269329249411308 11.870638074536108
