19
Energy = -64.2274923 eV
Se 12.950267798453494 12.248808626715425 7.0990120976572575
Se 11.642344222272197 13.051958494929544 9.106245128494889
Se 14.708042685892586 14.898531177923504 9.385366562947835
Se 15.075463737651749 12.937643956878416 8.167216983588428
Se 12.82217485237152 9.811310882795862 7.478151796722561
Se 8.201337133240067 11.270053548826162 8.675167383859678
Se 14.438788002317194 14.32452726069268 11.670066291594209
Se 12.164293601569126 13.836757605473197 12.0471721673824
Se 11.690078223963267 9.365848807925085 9.43852701607229
Se 9.412025504906099 13.331847393466495 8.557044649148013
Se 9.253301966581146 8.42102828616905 10.881348487800775
Se 7.9659885504203025 10.506779407589372 10.881652881827677
Se 12.061114437862706 11.403068398644324 12.310805838795016
Se 11.070946321508083 8.335682332176596 12.219752441460903
Se 12.336905931089529 11.196051321820812 14.639554287934619
Se 9.010539011304058 7.577123252913405 14.482059687119067
Se 7.292451765684876 8.198587172961654 13.160961923991463
Se 10.091426354613848 11.270649089296525 15.439564121988408
Se 9.550693260968417 9.16778072103208 16.25473247224726
