18
Energy = -59.5914085 eV
Se 13.457807655909336 10.43525378579142 7.0913332235362825
Se 14.871160117008445 12.246601429769344 8.580915683045754
Se 15.575401699928324 9.829178421991953 9.574222124791692
Se 12.028525076118543 9.78096771650307 8.654030599331328
Se 11.6316375287499 13.83152082116159 8.1066953636426
Se 13.33100719511972 13.125635976897685 10.034617973299158
Se 13.674211598040795 9.298481237741287 10.588106734780899
Se 14.858288229552887 12.713561915637824 12.188063794072052
Se 9.696683611055564 13.66922611827068 9.388672274356983
Se 8.987328687809406 11.464739413764814 9.48491560638229
Se 13.12740945448913 12.375514902672784 13.70924350945151
Se 7.48212471898683 12.493643227375047 13.528065500638215
Se 10.18102099785029 10.775745538735844 11.735426888365097
Se 6.89792628889697 10.354370377852403 13.619542410873763
Se 8.882677269597622 12.6244055641306 15.774545462860068
Se 12.260180046241175 10.246907807238449 13.557993310855512
Se 8.768920759602034 9.108746544321402 12.366186734114015
Se 8.717705280020677 10.542104583124917 16.477496881905925
