18
Energy = -61.11009056 eV
Se 14.009525876939408 11.591210306743282 11.274063274380744
Se 13.471759860327705 13.705557183144352 10.31185680561461
Se 12.199712735454128 10.772456484956447 12.51208147904742
Se 12.226354569043178 7.054525769492817 8.012068570253076
Se 11.512406524875146 12.716943900710891 7.036522390389566
Se 11.87323167599232 8.028278092737999 9.978528271675561
Se 11.419671954928088 13.689020172319253 9.199684657097919
Se 12.054238440305053 6.0380943013681305 11.52988767921807
Se 11.880440078305222 12.338199226088637 14.300347465731653
Se 10.45246731169511 6.4332204040345315 13.149031810561546
Se 10.283271614906097 10.727765418170895 7.430342324538374
Se 9.65975588762066 12.98156664463151 14.097937772835772
Se 9.396162496848456 8.567420754582761 10.626583883915245
Se 9.574113292776477 14.356203423043802 12.125242382321638
Se 8.67853600677129 6.5670651045317046 11.552090448439218
Se 8.071102096378505 11.473765550128919 7.775220712186275
Se 7.591683421860055 13.652270016228107 11.076657136455331
Se 7.7008513703088735 11.476972718188343 10.113540919433722
