10
Energy = -33.09921682 eV
Se 12.30964098534371 9.820978894991772 11.927556815125376
Se 7.309696006842378 8.400304605510296 8.108584898886487
Se 10.201361609056823 6.520920234590503 9.749359815889658
Se 11.756397474799506 11.8596100142487 12.627673771379255
Se 6.962158993015599 12.095865698004216 8.054777504878095
Se 8.722071528478068 8.230419291433977 10.079397558847583
Se 6.166200337298311 11.231685742156456 9.929134850844799
Se 12.314984884217932 7.6322747401155135 8.962448880172166
Se 8.042260157930176 10.13803984593932 6.834255111691277
Se 11.96072872605052 9.815401636043223 9.472311495318733
