14
Energy = -47.49750532 eV
Se 10.245417223931804 14.26095272479444 12.603848498643965
Se 9.01912640771892 13.052704314608633 14.16379886972478
Se 10.413982338159233 12.685903466465975 16.033275321018586
Se 11.853668685644138 12.855555999400039 10.864513895152147
Se 13.578442389660657 11.035590895140635 11.294836409446669
Se 11.055181615112854 10.413497347142105 15.972927358206949
Se 12.808943524383935 9.478585949763998 12.814617866127335
Se 13.069533432441068 13.069388727413209 8.43027061442834
Se 9.80795533036816 11.588855603128245 10.691433191776094
Se 11.786074513006835 12.216923649857527 6.722886278539778
Se 10.358116493151105 9.391902572107787 10.092408393829993
Se 13.211973811168058 10.172236674887403 15.052056743464103
Se 12.043392207072701 9.851810400497035 6.766702897567162
Se 10.014645042918149 9.19238853130732 7.750316030972732
