14
Energy = -47.74859103 eV
Se 7.977146982734275 8.225396723588261 4.444031133858184
Se 4.873328485118973 7.0228018708077515 5.990252823093942
Se 11.031257064114765 6.876140832133289 8.262007466030122
Se 5.931432057709776 10.519983422640587 6.48844557441551
Se 7.132534408209635 6.385965382750285 5.674923470938756
Se 8.176622641350715 9.868351291198417 6.1383628778871895
Se 12.014642817800278 8.953940374535835 9.365064975864007
Se 7.733691858204524 7.427525218104832 9.778884368450191
Se 9.751890422984777 6.045074815398873 9.942265972348974
Se 9.5517622079961 10.667348458908249 9.370861208557596
Se 5.050616847156411 8.670108599925467 7.683815604603884
Se 11.827747894128073 8.622206729355943 11.536122794877123
Se 7.64388700571665 8.43720416824456 11.817610597904428
Se 9.335722588405394 10.310235394037988 11.539634412800291
