12
Energy = -39.24467403 eV
Se 11.935479041945259 10.41856659628655 9.009324295489826
Se 8.571510331934405 8.855128712790163 14.104242866023919
Se 10.864714820277307 13.743340686695966 13.355735752002744
Se 14.02334991670269 11.530231035090608 8.947497738689341
Se 13.493550399623382 13.562323689568705 7.928217392477986
Se 10.725983283541815 15.926330540051584 8.642554597219064
Se 12.391670798554616 14.897647101780931 9.707561381899458
Se 11.52984759232189 6.9027556947041875 13.736759538112752
Se 8.848509280773603 6.737927751058243 13.625051406036022
Se 10.576222279007196 13.226212454557686 11.214587861789374
Se 11.182421998330442 10.805867502027823 11.192873264570142
Se 11.505475246175667 9.040190372347825 14.223277131522256
