13
Energy = -44.03199329 eV
Se 10.849506799591659 8.920135839017508 8.131600291111207
Se 8.632034388891457 12.539987329281788 6.6999372685796965
Se 7.304527883228356 10.632385998450447 7.281966089801901
Se 9.457764163433378 12.466193037610587 8.942693814005176
Se 11.517670808768614 6.510490270973292 12.010473239173132
Se 5.893273883414309 11.580151221295628 8.834829313382563
Se 12.923075820361653 9.109678754610854 9.035820348665442
Se 12.398545785929514 9.349879702666104 11.51118879250642
Se 7.538005400878685 12.974909775667243 10.110607265965776
Se 10.201105128433882 6.589887119331588 8.54167314382046
Se 10.306370277226979 10.045369173365042 11.657459302186737
Se 8.37076428660552 6.817354492872657 9.865995700514993
Se 9.43492979823635 7.222744361853099 12.14678148189693
