17
Energy = -57.54703064 eV
Se 13.933846168381496 13.812825748391292 12.680483362717704
Se 11.889501983976862 12.951371986922167 14.133691843934178
Se 13.435678266958247 12.79157540826582 10.732839045698077
Se 13.075468426749415 10.714033595283851 15.096589928335321
Se 12.18838211490146 14.481586257069793 9.465647582588016
Se 13.41979914163767 8.786066198954591 11.833300718308838
Se 10.584106594021218 13.447469106951768 8.16243752895543
Se 10.613203033468645 12.034938361541464 12.594095227359187
Se 12.235259826441865 9.445837111599761 9.966900809242794
Se 9.128772017022577 7.097095068649904 10.520853275411485
Se 8.387986972989438 13.552513570036146 9.137317766908685
Se 11.979898917382314 9.260637184430156 13.782849923482548
Se 11.028947783898113 7.566788322649514 8.840655174565825
Se 8.9359328537386 9.053092510082259 11.722996712955561
Se 7.528667478216461 11.371453427410398 8.910094770669415
Se 10.362752985557695 8.80342902516937 7.11030403781666
Se 7.069126094078405 10.34082257566382 10.973287789915469
