14
Energy = -45.87832065 eV
Se 10.882290777507967 7.115111276026148 12.855163529926664
Se 10.40781777392303 8.979237477240334 11.71292778827468
Se 6.065790165440144 9.837180136076528 12.571173812726864
Se 6.756182407007625 8.060376769653141 11.396782740263205
Se 14.085332379679695 11.026731909780196 11.70009768934133
Se 10.080712218868806 12.521590825299482 12.435169198357075
Se 12.10370090198645 12.327398777013588 13.32779876954397
Se 15.032014326315275 12.943671786676598 10.775160547487552
Se 8.668883960965758 8.58306332657364 10.058507553212262
Se 12.321619126266974 15.303467298549915 11.446919615458889
Se 13.155197060288847 10.075533222658615 9.564101961553112
Se 10.169486278639637 14.707406453737189 11.185854561573384
Se 13.229894192451152 13.745057047809503 9.510340390837326
Se 13.87417248258383 11.548589125039594 8.006449237381284
