12
Energy = -40.22852679 eV
Se 7.859892753148705 12.27934884629907 9.136012674725787
Se 13.434594983486932 9.083419627447453 12.188426457973684
Se 10.369754539461292 11.583256861528309 11.958642127319626
Se 8.910121531597573 11.040002711960101 5.972842870982694
Se 13.16118203940229 8.519209500860384 9.885997054485584
Se 12.73774984537481 11.305132806883426 12.415135553656148
Se 10.232835079090007 11.938473922917105 7.470649363993962
Se 9.359190527280452 8.535350887946754 9.801236810302882
Se 6.718114247510237 11.331829789334366 7.526864457406563
Se 11.279420641606313 7.140047467391881 9.972435836553945
Se 9.093283530380585 10.183673467369578 13.256259446848164
Se 8.207068535560408 8.423462363961605 11.778705599650134
