15
Energy = -50.85962148 eV
Se 11.293257529016842 12.151786597504602 13.527004932795528
Se 7.950100263595002 13.03203569560049 11.906967908077604
Se 8.813105847741713 7.335948267058702 10.306551540947023
Se 9.964959720468416 13.925507975014659 12.643164978655621
Se 9.028752279205824 9.195986370116051 8.902866600354006
Se 7.031008774178387 10.936108365392537 8.943332418091954
Se 11.151007824104225 11.396269471922427 7.048056491578754
Se 13.686320794770541 8.383176279697894 11.575126223603284
Se 10.011821710854676 7.6454105638831615 12.36010723666496
Se 12.05006012739287 6.639841447615773 11.86498240813621
Se 13.034201778455369 11.888841144691407 11.977944408060047
Se 11.281262443159253 9.120723066228013 7.425614082575603
Se 12.517935283190788 10.129919090162913 10.442992113537308
Se 8.114097871262148 12.853270209126054 9.476903083314111
Se 11.06855005356063 12.489586920842745 9.054864605765964
