16
Energy = -53.2214239 eV
Se 6.404585867804204 9.627291563298717 9.95169607504752
Se 5.72945705437836 9.52834278293836 12.16651136432483
Se 6.465466520066364 11.435937401956181 13.291066947466511
Se 8.837585451155658 9.156283021175437 10.193467050156059
Se 9.089120554766389 7.568734931528065 11.771087717659585
Se 11.608774289127913 11.683129522457989 10.364998378444072
Se 8.879691178475488 10.996857821920472 13.426535649201433
Se 9.16520233664115 8.834929218609807 14.000104955191581
Se 14.902058318060906 13.392043824345564 9.943646711951146
Se 13.23302429226829 10.164848884304394 14.081392201907992
Se 12.355158217604043 13.632961739665582 9.523779429482385
Se 13.540896038786578 11.838108871977719 12.66231535628552
Se 14.294404067391964 11.701270352059437 6.136054205039904
Se 14.921073491226467 11.243445486588866 10.63650284110374
Se 12.160416253814617 11.988507400242288 6.759503864028229
Se 11.415654937447888 10.259597123217562 8.120401278445904
