14
Energy = -47.52972025 eV
Se 12.308759592054237 8.339066235257174 9.312816540211344
Se 10.83764477642678 4.77596349854639 9.672576110358593
Se 10.076820136268394 7.939805382510294 11.737690468418517
Se 13.780258701186364 11.896870821154272 12.295623754667053
Se 12.969138410161396 12.451425547331441 14.439030591808194
Se 14.381581565670453 13.893581946605705 11.198291154211669
Se 10.152627032596012 6.862571695276562 9.361371596590695
Se 11.440103509447106 10.41134108812645 9.358311700164997
Se 12.61476322949069 14.517644947132819 9.759035155060037
Se 10.6106471144487 12.48840160260884 14.345182661254878
Se 11.322379778838407 16.16467972096448 10.847963741783417
Se 9.707848673399482 10.104872873301307 11.258470627469395
Se 9.459421439273537 15.10411381926577 11.832218012655845
Se 9.921111203942935 14.730057364167086 14.11699419506342
