15
Energy = -51.23024258 eV
Se 10.996958925686785 5.895003854477377 13.075221669070073
Se 13.138981075084425 6.4519661131993695 12.20773075008879
Se 12.37606835882797 9.880660547348704 10.823363170729799
Se 10.455731043955494 9.61982946707641 12.475041218788652
Se 13.128186320302285 6.234453398706581 9.93097980773063
Se 9.641452378308745 7.551435670925961 11.987498052113983
Se 12.025435912721413 8.393175088140564 9.185993108184901
Se 8.511825226363557 9.084987955769734 8.782340126885357
Se 9.807185079461153 12.245022196318171 7.337568065237164
Se 7.1989121638024685 12.074878720732004 10.562735086529004
Se 6.468682890268086 10.104158739412872 9.71219005478341
Se 8.557874352511314 11.315055652961492 5.778522774318117
Se 8.077495524588366 8.927835157093718 6.559038176532419
Se 7.312710369672226 13.526996502553029 8.473256733174058
Se 6.092088526108697 12.535947595919401 6.929428366216901
