15
Energy = -48.55095334 eV
Se 10.93318334615086 10.390679320845189 6.961231632362649
Se 9.525803797858343 9.069217283579098 5.896202552601055
Se 12.693154110753607 9.00538004064504 12.401049907314972
Se 7.553578975719283 12.837104167552306 10.64956457416257
Se 9.720610957176861 7.4814149123898925 12.362417006369668
Se 11.815622640844152 10.15381337736532 14.229113563461585
Se 9.855801784428076 5.524253652472612 13.347266618884225
Se 12.58791049015085 13.632367887552698 12.662328623642276
Se 12.866967892549788 13.71892806125221 10.394270244150245
Se 8.219794535357321 13.015738011212017 12.907778988542319
Se 13.63756158082566 11.40253529188812 9.686940969915497
Se 14.46221659957557 10.443916298201133 11.595229939866822
Se 10.82279812765016 13.739491366157841 8.9557359167033
Se 10.512211861282417 12.0861171840757 13.207591128306712
Se 9.366420788621278 11.953887328615368 9.420769651550435
