17
Energy = -57.71755291 eV
Se 15.868339060173465 9.085790850486132 11.215916384893617
Se 14.654342359434242 10.062067180182812 13.49174184509091
Se 14.056809226912463 12.065275330059047 12.747312225681675
Se 15.334973386581163 10.88168961238278 9.952354871204077
Se 13.152141017493166 10.428961531864037 9.065247950042052
Se 13.059789654735528 8.30469496609115 12.738166778076623
Se 11.295229238398184 8.174962091316331 14.264160042636751
Se 10.263332941877533 13.21260255095455 13.715079833214913
Se 8.786491868868634 15.041077088474607 10.622091000265614
Se 11.952915827092426 12.36820091251505 9.907773390357988
Se 9.228505818157318 11.304084496438144 14.643131570972143
Se 9.488777094694152 9.378213177762792 13.30269937850833
Se 8.483990074768663 14.558819535529937 12.917729892526456
Se 11.281586582882179 13.552199605035803 8.134332343692183
Se 7.346124199550697 13.769991100319775 9.294542168371901
Se 9.484990080874814 10.664886337207339 9.81283305416095
Se 8.767157332249612 12.04730821608291 8.217580725859564
