13
Energy = -44.85145308 eV
Se 13.77593737797698 8.222360845255293 11.205818090384541
Se 13.343201133228405 11.418830264237501 13.123523892323957
Se 13.694935324947856 10.574190989874106 10.95749204395252
Se 11.543763662224846 7.442699177649209 11.244668288116452
Se 10.972786798463087 11.633407252864815 13.322275106504051
Se 10.890234667953914 6.4977690050455745 9.18880262236529
Se 10.430090955290238 13.901016472487525 13.60739565596975
Se 9.3009294037147 10.828446050120013 10.148666919518973
Se 10.124552471119626 8.214722824914276 7.744243395376876
Se 10.335503974099502 15.070404125064059 11.552357692392215
Se 9.17559679494018 12.858477467939892 8.854498764156444
Se 8.264415142192078 9.16967706306167 8.850308701933011
Se 8.370180573970563 14.390126741607887 10.422077107127427
