13
Energy = -43.37333335 eV
Se 10.497531462538564 13.126507968117918 12.453067483747823
Se 10.664366484514199 6.040508980951587 11.853763538307257
Se 9.778653283424875 7.87059673720899 10.265016838928373
Se 9.510661872711507 14.363679210905277 10.649262956616857
Se 11.239326004078867 7.230931861156491 13.756104346788405
Se 11.111881337798467 15.780988501092418 9.877616725550718
Se 11.971641967501078 11.678674605613361 11.171627198294908
Se 13.6773640357316 13.003624368802647 10.457101141923426
Se 12.325429241109694 13.953732259693078 8.334529302436472
Se 9.313081279257245 9.586095005706193 12.146543009358547
Se 9.110894194277376 8.264221811513131 14.033583584669055
Se 10.760407139756232 12.422222349408626 8.121399775109573
Se 11.270592498813638 8.980232167878789 9.04743270519066
