18
Energy = -60.39574015 eV
Se 8.125191109516452 7.991823668124584 11.030846438297749
Se 8.234865049091688 10.376780715639178 8.108213141963367
Se 10.326780010099947 7.159522990085356 11.311095587666262
Se 11.695644094460365 8.22474975472468 9.700754173012726
Se 7.70744889065817 9.401217516183513 12.844193019413384
Se 10.20946171783693 11.424237607568898 8.116272739613773
Se 8.299796192357922 11.645571597085876 12.093810724319964
Se 12.37773325390626 10.287547685139714 10.54559381934586
Se 9.662979781061512 13.769813279908897 8.57359049492703
Se 9.197373395589814 12.65912805657052 13.892892298538328
Se 14.377665249682849 9.582424564211223 11.83681683495085
Se 11.64602716875718 14.692263228550468 9.414077161705652
Se 14.110850471112368 10.091309758412239 13.982261514098221
Se 11.259041468058626 15.224614152078164 11.68488701297839
Se 15.900936086478128 12.02421859243045 11.251467537555689
Se 11.967543421086326 13.503841804871792 13.161615880781312
Se 15.75962820822179 12.54436936547333 13.416559542908082
Se 14.120312958701302 14.279345324064224 13.867802677241947
