10
Energy = -33.36288634 eV
Se 12.548437086959094 9.53539775059513 8.826599039789953
Se 11.537935852973098 9.508115819496636 6.8302062549142155
Se 9.536047157483308 11.75741701261009 9.11420387977825
Se 10.453752145425527 8.295376389650768 10.171579847714334
Se 9.90974569431926 11.3869320675702 6.876318476503219
Se 9.07844661223589 6.652985892656701 11.775936495493871
Se 9.138989702972925 7.972015798313112 8.389365835907736
Se 7.84728729437734 8.537143011817419 12.178174576711816
Se 7.244458182919867 11.324843324673422 9.785883177143582
Se 6.741665814804621 9.066538477087448 10.088497960513948
