11
Energy = -35.5213078 eV
Se 7.416237338388678 12.230583543445483 7.465969489724195
Se 9.107470851893336 7.496751761227498 11.483523935081747
Se 8.302326677067239 11.144110946251256 10.924225092557142
Se 8.92078802701951 11.035038357163927 8.583535117389527
Se 9.963337475388407 9.74122220596818 11.802241372207119
Se 8.867264452653425 7.196656818153764 7.637001958162976
Se 6.838716991586799 6.297451362555713 7.8372316320418385
Se 10.240953540287707 6.705617442692917 9.613496778811944
Se 12.24962783703289 12.03822824832364 9.72079591450064
Se 11.36477631771736 12.51466852739504 11.748388135268982
Se 13.096625599322705 9.96779589518035 9.551715682611938
