19
Energy = -64.19583074 eV
Se 15.095545750222067 13.877803468700666 8.73282992265896
Se 13.601394299481317 12.334097535421355 12.50578741294345
Se 14.65954564082456 10.130403923853185 11.816959802064195
Se 13.644811440390624 12.58903313078292 7.642754425733427
Se 11.666566844615861 13.614126356176333 8.765074467222284
Se 13.063565069225751 9.199385688488555 10.517521997363133
Se 11.446085554349553 12.007802864097306 11.82574141389407
Se 13.701526348936328 9.811853860091102 8.133462037737058
Se 9.39994255805681 7.852667984663844 9.414541447936394
Se 12.012064169136048 9.190437336222175 6.819835141608468
Se 10.446746117610655 10.590792565393873 13.557079829666849
Se 9.528603040891921 12.990118658228864 8.095967277085736
Se 8.908656992704183 7.065033389183496 11.663922395892639
Se 8.510143976278032 11.698198807912224 9.836092644453545
Se 7.931795739638455 9.577374860890844 8.926028358400679
Se 6.592344728559595 7.324335469145649 11.862793061407757
Se 8.540456982051603 11.689770701895416 14.304517862241251
Se 6.737386539348009 11.06154424929578 12.890319109310338
Se 6.2393517849379005 8.85492791326056 13.619176231957205
