12
Energy = -39.91155182 eV
Se 12.67471277833436 8.504046009914472 11.095136169621568
Se 7.758701124977454 8.614450362618479 8.05661356135614
Se 14.2420784252838 12.009790382604573 10.985909953930943
Se 10.170490772229185 8.852302906431918 8.035585100176789
Se 10.724771091490108 9.740449301593221 11.806429441787355
Se 7.457028067751079 12.245317934253828 9.246274053634986
Se 7.114034281053088 10.904110178522982 11.062951456059688
Se 10.35406909828638 11.047345437725518 7.225862362856317
Se 9.857031481625501 12.438468686817698 9.05129492313287
Se 7.109986892237444 8.536901973153292 10.238686507995464
Se 10.558386593255818 9.741050005695655 14.037471454852668
Se 14.534901285360583 9.921958712553739 11.71397690648031
