10
Energy = -34.58919052 eV
Se 7.1756462580359965 9.067386479478735 5.666969770021367
Se 10.793095615510968 10.185846642158124 6.58090829472581
Se 8.590645534075831 10.896336611399125 6.128916714012506
Se 5.553687663946882 8.86297553072242 7.3716130376845665
Se 5.781159830416092 6.777122170567064 8.44743539848613
Se 11.328733349106283 10.555884669948966 8.849782534690334
Se 6.481223043922013 7.020182145471117 10.68572733084489
Se 11.712349451621789 8.495085043074125 9.93180282071023
Se 8.699867996133934 6.26051328980788 10.952634948330672
Se 10.077650924718428 8.072727084861228 11.57826881798228
