14
Energy = -48.17593648 eV
Se 11.798243079663326 10.532351307346694 7.866747428174263
Se 9.547628511661111 10.720775005770813 7.336704367429031
Se 10.30007586677645 14.348206960487325 10.255466329377688
Se 9.995842401057946 7.084306456930417 7.364613286360656
Se 8.433498472989477 8.691768727965895 8.043988439802186
Se 12.488922796553828 13.55112056255456 9.993191977827033
Se 12.190800207138148 11.209178800248067 10.110636663905083
Se 11.721666579530101 7.598990675962896 10.80508063170355
Se 10.589099206062507 12.534995813295875 13.562038152948062
Se 10.031793146208503 14.603728146723011 12.613214657521885
Se 10.71131024083001 6.020915823082817 9.361025053036615
Se 8.657477156009831 9.62163878205101 11.847179585037583
Se 10.069706493815405 7.808233858518429 12.473690896339052
Se 8.711639395909247 11.084480974763025 13.684373531742084
