16
Energy = -53.44863984 eV
Se 10.787388946132902 15.144942016758979 11.32068393736172
Se 9.195933630449145 14.458381978230548 13.026772157629614
Se 11.862719927300597 12.060459727756003 9.33061184135235
Se 12.433609096804636 13.54528828113709 11.287782954603554
Se 15.268271937207714 12.79952573766456 10.411832093534315
Se 7.11711889652695 14.509826718018692 12.101290682987662
Se 9.6914615847145 12.508594627018743 8.948314735077286
Se 16.641343071999053 12.078269279866891 11.97663358274866
Se 11.530770848068645 10.694736737291185 13.999941923682252
Se 16.04477000156824 9.368471334052613 11.633974642199805
Se 6.727118067836476 12.138770215925994 11.357591935525349
Se 14.452054501127646 9.649908741296292 10.144516974073431
Se 9.363822370275807 10.182880354709233 13.698506975523857
Se 8.839684288260504 11.31783288860397 11.21243847435245
Se 14.735589564908603 8.678085575625154 13.863380458467969
Se 12.623761141283316 8.670461968177658 13.089035075784416
