11
Energy = -36.97660777 eV
Se 12.967987216891734 11.197557426427936 8.957193379687265
Se 12.119625759581949 10.863217114431853 11.37327088595364
Se 12.84669365450037 9.098586398716051 8.318337796600765
Se 11.827633467769276 8.689556875100768 11.267465633516839
Se 9.50399080127994 8.995162164887375 8.043651210592056
Se 8.581827621567435 12.028495653520832 9.71965600231862
Se 8.285986670510871 11.064822130814997 7.6045103755539145
Se 8.03339623001411 7.242046397749705 8.031550755918719
Se 8.061382033891096 8.793764557199594 11.536770026672379
Se 6.882234960141539 7.322427614455598 10.247102031761978
Se 7.0526165673383 10.948096609909083 11.147320491336677
