11
Energy = -35.51623175 eV
Se 8.103716322851744 11.640353260838708 11.002811239666586
Se 8.923436674087576 11.648742044304765 13.306468237142838
Se 12.128603407083657 8.491472734385548 10.80081718558491
Se 14.050683183802981 13.579911748269266 10.997259838646873
Se 12.000720630628006 9.497728682153502 12.94500679653249
Se 10.517873238163356 12.26133556397426 6.846650885771512
Se 15.337176526658638 13.024774622748579 12.686726053448538
Se 10.24841924538538 10.384347487996052 8.018718779282388
Se 6.6977759418813205 9.944944969416184 10.691022530040833
Se 9.74167312233523 9.489693081500619 13.636495278315513
Se 12.390544107028555 10.17731820431865 9.208645575473664
