19
Energy = -63.68533779 eV
Se 13.960149905342185 14.187110215991126 14.023518183982908
Se 13.872073383460087 13.136382357674465 16.12010179012528
Se 12.110479776882837 15.733757403116709 14.111631630432191
Se 12.49839738138021 12.080700815911722 10.967414843213232
Se 10.483327583905076 14.794780251547667 12.807742034941013
Se 13.702926935754075 10.985551037671359 9.23065417415013
Se 12.110768542589263 8.688048979510487 12.722046456046197
Se 12.086159503221095 11.619136782308248 15.994156671413176
Se 9.124274256154331 13.301521351942371 14.287299644484769
Se 10.893016075583988 10.538557924883497 11.777206500117217
Se 12.388092190557405 10.86566666034323 7.313940084770406
Se 10.25098042304334 13.173624750936899 16.261558896816183
Se 9.32061194135508 11.38924755322471 8.80425841603284
Se 12.097511021667874 7.015632971071049 11.216984388876153
Se 11.891234974175436 8.440861940041728 7.314458388160778
Se 9.199207562054918 8.824279571847864 9.346794660815366
Se 8.134675459670465 11.521554142942994 6.952606567422247
Se 10.166368599312763 8.163290918949038 5.884197405012417
Se 8.132792093910583 8.194289211997146 7.481673476409044
