15
Energy = -49.15425004 eV
Se 12.85535673942644 9.024579383032691 7.564871555223356
Se 9.73362458907506 7.071705035324197 8.610215338560076
Se 11.131318843809263 12.087415180897846 9.570847857734297
Se 11.9638389227377 6.97508577238836 8.579444290576834
Se 13.501571333486481 10.26598526481982 9.394129249947296
Se 11.282497975552165 15.772911666722827 10.010843704928943
Se 8.94487300699766 13.03243703680394 10.240827335438995
Se 12.293542494113716 14.8842053204829 11.769087900953139
Se 8.263500208934664 11.871362898940554 12.138719515150186
Se 12.21427027539349 12.393188938748953 11.588954392168352
Se 12.520456153614541 9.401173170966437 12.241272660378563
Se 9.027527695957913 13.235983191986731 13.963432746634245
Se 10.400557269549363 12.030209375352614 15.414641746412144
Se 12.721370610698914 12.209232595086219 14.877006226463505
Se 13.380555514165906 9.97938680195929 14.270567112943183
