14
Energy = -47.36879115 eV
Se 13.188395088038698 9.701677970580269 9.313455861259722
Se 10.83089000703152 11.567365101263 8.607245155618171
Se 10.845585436973307 12.339962360114434 11.85633480826149
Se 13.301093357941456 9.15048555812202 7.157123768446543
Se 7.3550650499404115 12.176003721473924 10.653015621029471
Se 9.69715588349547 11.217411356908265 13.383804230292904
Se 10.928890903220006 10.698329043313619 6.575358692189359
Se 7.162182948004836 11.583215552699 12.863589689296047
Se 6.784684045027792 10.265975610126207 9.38479621100277
Se 9.12693299074598 8.792099308219088 6.825808322455096
Se 11.594887354565113 8.004210310988523 12.452729940040994
Se 9.409958718083082 8.802626310561529 12.722312860027792
Se 8.799683510176784 8.947282323389084 9.065119090443178
Se 12.015142322885119 7.704168372134064 10.180669870529696
