12
Energy = -40.66586722 eV
Se 7.892820401490183 10.214456443770016 9.390288185505101
Se 8.835048113497283 9.81509914712306 13.03340071778248
Se 6.821444726328711 8.830040625940786 10.772741377643415
Se 11.989796145536717 13.484850731152223 10.943830168522009
Se 9.9076272581475 10.594016537573422 11.261556743082233
Se 9.74457551477925 13.089592665736086 10.916436264867668
Se 12.690038660669433 12.9819041766045 8.605116688971597
Se 10.144358464228478 6.990237717146186 10.504814572921248
Se 7.879008170483316 6.630783403455177 10.297057674550883
Se 12.470830964516965 9.243340270817354 8.464816532286678
Se 11.298395975158964 11.350937542061343 7.8448848518228536
Se 11.024736124849532 7.465143004215136 8.27384133410678
