16
Energy = -53.89260802 eV
Se 12.834313601087397 14.631536483899561 8.86037136044887
Se 10.437841453417922 14.630577818642228 9.292377904064478
Se 13.168694864062655 13.48062546174182 6.86174853546919
Se 10.007370823717462 13.510745535865684 11.20116743300971
Se 10.916847934944546 13.478629661916635 14.349829342633553
Se 13.250462160676381 11.16192207296214 7.409927854208446
Se 11.201728060799256 13.9817238060341 16.755821113171827
Se 12.647849346380907 12.550324070363748 17.68457960278444
Se 14.075964119482256 11.213402732528715 10.975891559203095
Se 8.927271745016512 12.25201647112333 14.425346765838976
Se 8.837288025324966 8.903589908690623 12.662675968934971
Se 15.10139355665832 10.9762795286932 8.847390288515694
Se 13.875748493134449 9.078928886907038 11.923311109370225
Se 9.58358029701754 9.969627338627683 14.61963044853323
Se 10.261023946054305 9.454114938475321 10.856526987644575
Se 12.102225622253844 8.008455230167485 10.74564846664825
