16
Energy = -53.38256585 eV
Se 12.218629213613598 10.752256210182004 9.416799759289212
Se 13.292978863769024 12.44159877783768 10.91881344540334
Se 11.311442355151518 13.790538126903389 11.552614610165376
Se 9.561882722505235 12.378710610288325 11.640991820627606
Se 6.406565862704469 8.875530428240294 9.829474841997008
Se 8.681064383467874 9.980352758027509 8.853571278695997
Se 5.29229268663488 9.073643745908596 7.862218118907073
Se 14.617610837971801 11.150667606621987 12.627576537346457
Se 9.4326374749387 7.571990148527485 7.851632715076569
Se 5.946668779025408 7.180691786949585 6.528811597162513
Se 10.969008095827425 10.576702007258847 13.29011942568313
Se 13.247064249421948 10.447453956078666 14.344903398188471
Se 7.914276098540603 10.948879027885809 7.038808742110611
Se 8.198141714178531 7.8084189404239766 5.957517116060278
Se 10.66271973544707 8.574340998563653 12.10143807729078
Se 12.474256522455283 8.760051845076928 10.498217866652489
