16
Energy = -52.92440363 eV
Se 12.911658938488769 7.467117416607243 8.581820370832672
Se 13.643552913030126 7.2912304116681215 11.705827986738516
Se 10.934353620593006 8.03513970171942 9.359322924703285
Se 11.52496038492064 7.848661506898571 11.948757297970609
Se 14.302557343498295 9.442428520256266 10.04218965658054
Se 11.048781083617486 11.324032531403354 8.040136423861941
Se 12.359645129716894 11.114623336579243 13.357215084105325
Se 12.56736690665043 10.75434159054771 10.531562368626199
Se 8.201097976169185 9.674804891514695 11.472855276326934
Se 10.248205397091239 14.94802764749818 9.242903998037779
Se 10.438556640194799 12.272348997661053 12.998691329279326
Se 7.360499088493861 10.962779385954326 9.75221416879505
Se 9.558738088388173 12.407632931282668 9.367129902666193
Se 9.719726109062494 15.636684106929167 11.374647689954939
Se 11.17424155417081 14.809996055932269 12.958743879772378
Se 8.275037349160595 10.78920356072074 13.486420394586489
