17
Energy = -56.94559083 eV
Se 15.185984846554128 11.384695712471878 12.968425080546501
Se 14.098760510555154 9.498652225200017 11.258887948214833
Se 13.289481890230151 10.904883685926048 9.73504246364911
Se 13.32999023357095 9.335154191168744 16.051579446589784
Se 12.751718033913793 13.094529325667372 15.651901016159611
Se 14.038963832902434 13.103425836635916 12.120101406350447
Se 10.881742713073887 13.519901595424447 8.785395871912995
Se 11.859614241262706 11.09636463688062 16.550311902939224
Se 9.219705448596583 10.474428297148798 6.588936074524619
Se 12.232094820271154 7.973952594819724 14.408447829971534
Se 11.955041303541652 13.345042002602812 13.459840698022102
Se 9.119421705078897 13.804182850956268 7.231865609225509
Se 10.258507971961755 14.204257439117207 10.835768150045949
Se 11.957059517769313 9.21589752098099 12.48260126057385
Se 9.846624086109491 10.394830274535279 8.708934718008676
Se 7.204792528077431 12.88961196717627 8.425975712662765
Se 8.119791548198936 11.58819003993273 10.062009164995276
