18
Energy = -60.77795598 eV
Se 15.685306445940643 14.054987038932525 10.340555267122522
Se 16.126636217964265 11.785426577678509 10.860538336460987
Se 15.950610573398691 11.832703599722223 13.223365773975434
Se 13.36756093150238 14.263395652739819 10.585319901024471
Se 11.438260014527534 11.014514933354265 7.980528327714999
Se 12.356026988475532 10.320097412574171 10.04658242226376
Se 13.187712497921249 14.345661962147618 13.092770516915774
Se 13.648173814449537 11.91501257961164 13.621807420463872
Se 12.345686725669356 7.956438367915193 10.17222013873348
Se 10.989462571128959 14.486222616162703 13.413552144825344
Se 9.454387787073337 11.621518300817298 12.759676922523493
Se 9.121698241156711 10.820129618109837 8.161984447087786
Se 8.425149942069472 12.633087195188459 9.635587122568422
Se 10.159403803644244 7.213609766441119 10.539711978262096
Se 9.637839938099384 7.7826897022053 12.838459484444593
Se 7.35961380431082 10.907747594733051 12.819739864312844
Se 6.482458713644319 11.815553497770946 10.419290355057678
Se 7.425320790309145 8.277883311809164 12.765190856541375
