18
Energy = -59.70583537 eV
Se 9.67099978057124 11.659602898618857 6.764545755308217
Se 8.439101665978653 9.263633279704083 7.005158275093227
Se 8.526965096818472 9.540639564558226 9.71576966833792
Se 7.881686796743027 14.554863194533084 10.98821878144585
Se 11.747397392504244 10.788824487674097 7.014156496845081
Se 9.2939291821784 14.1508636522725 15.007054796491778
Se 10.128425478157801 7.89956058923978 6.668941462341205
Se 9.46140367522908 13.083440287574177 10.58127815541125
Se 7.7581543069723535 12.746610609652944 13.797347140539863
Se 10.14075686447911 15.514949956915785 13.224214086660217
Se 11.505698184998888 14.162314083517664 12.016643576213717
Se 12.10620974897413 10.533017833932652 9.38856036220353
Se 10.631817091581366 8.686473686252587 9.875623284969967
Se 9.020045261914008 11.29088217471698 12.568177032421522
Se 13.993596311675638 7.297733894846453 9.92384598217593
Se 13.43915637352732 5.411001956253818 10.890864038890193
Se 14.292883750797074 8.538594803250588 12.74131999452546
Se 13.734713225661777 6.587316502613909 13.562436596460628
