15
Energy = -50.45836892 eV
Se 11.13758516195288 8.95461492371309 6.4141130421605475
Se 12.4686356278821 7.281237875847207 7.451814415228042
Se 8.895102772260856 8.774182275492747 7.105626483585562
Se 13.545568243016362 8.087303745157035 9.367357296552902
Se 10.750330439522227 10.358249518410378 9.615040846643092
Se 8.480749413799938 10.751363532269066 8.580648511907048
Se 12.568614991238082 6.6944064847767315 11.172765136572615
Se 9.530316297250788 7.7516120336167065 11.024024721434891
Se 7.987108942960135 13.679166286643108 8.60966020452217
Se 12.648367711731362 7.879364587589344 13.064088844276881
Se 10.874226098637706 11.201217798965153 11.673770114613953
Se 10.05686296185639 8.814085716913109 12.865131749259364
Se 5.78176278892035 13.747829148408718 8.859010168529828
Se 5.466664571684897 12.231948441839885 10.855961616430113
Se 7.576358179073204 11.615516714351502 11.2187329104118
