19
Energy = -65.09622741 eV
Se 15.073038877063528 9.480159322648268 9.80376034043666
Se 15.040411917438512 9.81042557411555 12.150992044451902
Se 13.020637926746424 10.367049515570143 9.04604219680492
Se 13.21511160532765 13.506029867552726 11.045414289260291
Se 14.409580976239408 7.836963060136292 13.254305898199666
Se 11.354997010855518 12.55125954269978 11.98180214119184
Se 11.09409390962744 6.154548526704449 12.59375819384841
Se 10.036319288162977 6.840370600084618 10.595019417034251
Se 12.09496707096186 7.942561861678278 13.760761701327993
Se 7.816859469866936 7.282464905037532 11.242652065374502
Se 7.7583997428274625 12.643830239608398 12.48790285329685
Se 13.341798931775589 12.670425676104232 8.779860082895642
Se 9.357412017759524 14.093194362113547 11.897583003895605
Se 7.372714104575107 10.26710314412127 7.446130079895078
Se 7.624594675369971 9.681137352758334 11.214896081204513
Se 9.80640445543691 13.125687733190189 7.970595841546299
Se 9.414903672170814 14.837313327465175 9.465679251515153
Se 6.123627795226956 10.082830858051851 9.440791133649324
Se 7.703845458394556 12.540539143391209 6.981697518631205
