16
Energy = -54.3694805 eV
Se 14.113045760876108 13.547177132236534 12.145114220966523
Se 14.75823544203638 10.807008005765017 9.378330912702465
Se 14.19130167833681 13.084814114465397 9.858952966623251
Se 11.861773740569983 13.150816914761792 12.837726541964681
Se 12.608736664641862 8.23037060354049 11.930016678707709
Se 10.587105748416203 14.505246766582724 11.4070558445735
Se 12.78989837992626 9.56437856797892 9.345397288104863
Se 9.844618893863098 12.896951710399863 9.841280291204681
Se 9.14661904291233 8.620220120067298 13.58703333764745
Se 10.491900570365484 7.505020029845971 11.765677984203768
Se 11.370571462577505 10.090655634693729 7.289134589968776
Se 10.07640138988186 8.236679298777577 7.797305587450821
Se 7.188475821412971 9.464547970182569 12.676897698493466
Se 7.392276270281521 11.842434427296713 12.585502024951818
Se 9.024562984636352 8.635120022106117 9.81960223573563
Se 7.551383799852047 12.62358717037987 10.38304661466237
