10
Energy = -33.2987732 eV
Se 7.303478179544076 9.664104791336904 7.885626718746126
Se 10.844165152508127 11.568118784157665 7.814407188815229
Se 12.30608933730528 8.821692629911434 9.888991521920325
Se 8.393541557147062 11.895915916303343 8.668057238528464
Se 8.929937632194694 8.034341575303992 8.061259455048068
Se 11.932534823697608 11.115594341514775 9.785947456810131
Se 8.757556702418476 6.971354375804348 10.096647003471219
Se 8.54558729644732 11.925015428231413 10.872649726606017
Se 10.654997704197926 7.958496664881751 11.643016173251905
Se 9.928593023841113 9.64184690185595 12.879878926104343
