19
Energy = -63.82502406 eV
Se 6.323334130949188 14.096605129492513 13.358818219280717
Se 9.774470546381826 13.13197215420119 14.715020212094664
Se 9.65224535682635 15.304302885308257 13.135986331870843
Se 8.388214951485596 13.266671376062737 10.275774382958387
Se 7.379779097108554 12.18008614744579 13.719340108234247
Se 11.477900155262043 14.813625716856603 11.928174438516411
Se 8.184082458990721 11.292052797941961 11.522757446981748
Se 10.674213761590805 13.566706244658764 9.891208632815383
Se 11.483961233208149 12.05027052871999 13.83103196149562
Se 13.967762660285569 13.899661413407717 9.830687519206842
Se 10.862786467099609 9.423236123012284 10.146951278316026
Se 14.32309516388077 9.460125427475894 13.295560755159931
Se 11.19797184892619 7.823143385955476 11.895289655236766
Se 12.04930248697672 8.60750248365853 8.316939137541068
Se 13.528011795308954 7.601837058161901 12.080400849752408
Se 13.41523135513832 11.874500328106258 10.66813357451134
Se 15.355478148743316 10.888458316528178 11.707271879424654
Se 15.790285927051388 8.917572668567328 9.379748193336049
Se 14.126390623179754 9.947578715444585 8.304465282761738
