16
Energy = -53.54935156 eV
Se 13.220455870503551 8.998394470713816 10.454948120231277
Se 10.728219695881315 13.833469863045995 10.249503529853184
Se 9.730452886207098 9.250223109973819 15.195886925193095
Se 8.933189681530758 11.021511888546803 8.083411488159985
Se 9.68898722594988 7.312486642061827 10.905126295734817
Se 11.825240977523098 9.466789151862267 14.31831696868066
Se 10.696596908868395 11.151925990614748 12.547021159906752
Se 8.66024545880568 10.898515344990447 13.725228490108442
Se 12.707665677396397 12.64490499239947 10.619265227749631
Se 13.21352317316207 10.8940442989673 9.04526918253445
Se 9.018542371849344 12.387138177473997 11.054435788971034
Se 10.132244363642052 11.85741458855584 4.697083112203489
Se 7.27241653082409 9.675485529861623 9.01623453263059
Se 11.7711791106452 7.282587604487498 9.759061452669883
Se 8.796275087326434 10.375642010552577 5.7059321394858395
Se 8.132990813893068 7.465898417288211 9.153342714993201
