12
Energy = -39.99855336 eV
Se 6.273697106024051 10.76691084813732 11.111897945195231
Se 8.106436582244292 9.714043314118152 12.053304026209148
Se 8.724807514917478 13.572431138162342 10.39739833345168
Se 6.842163629847782 13.123156862075408 11.526497346220749
Se 9.767067877029652 9.869983925492718 10.294085014951866
Se 12.266381535170217 7.126454026927351 10.983290169734056
Se 10.315474411937116 7.756650237312484 9.581277485444614
Se 12.908452693035471 11.37560909231916 8.745405088753751
Se 13.062917199462127 9.146145916014405 11.735126405080862
Se 14.393612632773486 10.168896762360397 9.997676771277558
Se 13.667565404919111 12.930160230752367 12.100110404912789
Se 12.489450410170553 13.360872761347286 10.2851001309245
