19
Energy = -64.43038947 eV
Se 10.802458801501315 11.530385555699826 6.440167957911743
Se 11.251888054863759 9.670827806892383 5.011805516754034
Se 11.246222537943616 7.872413644746326 6.524320446328827
Se 12.519517121430463 11.597279065851069 8.033367205530292
Se 7.245140982836622 11.658843501063068 8.44916429265201
Se 6.551644134101952 9.667888772150832 7.486817715493537
Se 9.478980185698582 12.926946125009211 10.177038955849573
Se 9.0589955935369 6.971896517014732 6.699812422653025
Se 12.176166322088065 6.587225320351596 9.649538811929904
Se 11.632096969264964 10.531000015706637 9.980562008532534
Se 12.922397377613398 8.619139480697951 10.5567279780576
Se 8.472527197968825 12.262508423583851 12.072938028016003
Se 9.97073998688539 6.141129387062689 10.514840508710318
Se 9.742613569837628 10.573797972501868 13.328407442037275
Se 7.916571525088032 7.963144213412111 8.503127761277442
Se 5.9171438824064415 11.396868278672867 10.61143035389315
Se 5.099452292027883 9.350132644335199 10.507667259879716
Se 10.084865451058244 6.743933104604742 12.788393342527648
Se 8.591488943159225 8.50257397292603 13.237726222459335
