18
Energy = -60.11820724 eV
Se 7.636825835887488 12.793033729698003 8.93125543862847
Se 8.835120292120601 12.041117410818167 10.60209090997073
Se 10.009294837532888 12.606076986800016 7.14759964505203
Se 9.540551261393615 15.109247002566669 8.670084535213597
Se 9.005556220672275 13.856232283935155 13.743418694186845
Se 10.235749548174857 8.318067264807098 10.611675565913794
Se 11.193588327796636 11.81191543442956 8.8075636507014
Se 9.864204236215448 12.104242120287775 14.817622691074485
Se 10.696403326114702 14.299662378472265 10.342721200742732
Se 11.405190094370488 7.363703426918212 6.451746364203377
Se 12.398841267245215 12.329271791070463 14.912962972896763
Se 12.857860458305707 11.865817194670997 12.191331531377186
Se 10.773867924324676 6.110073741443708 9.86030350141436
Se 13.251293467304832 9.68228012315853 12.551235561328816
Se 11.105300121391501 8.568523590830836 12.776660049887012
Se 9.407827821233347 7.967882552633888 7.186989422831907
Se 12.945245320050356 10.31644421198058 15.654950060008778
Se 12.563316795031815 6.327297399081632 8.452253750979953
