10
Energy = -32.621588 eV
Se 12.438088028180665 9.925087216630848 6.579025100812551
Se 10.135333956467143 10.271468879192154 6.058766619747753
Se 9.6057968774662 9.203754145274445 8.12566318018181
Se 12.630815808781891 11.283024551327445 8.43011257221142
Se 10.512138711601812 10.713620377093514 9.62459241056372
Se 7.906044771806319 11.710524250913098 11.941286580673191
Se 12.323611107851777 8.934635641386631 13.269881937983968
Se 10.1988595481151 9.503936193439186 13.651557969165802
Se 7.226691662310451 9.592223828747933 12.124885635845278
Se 10.007323096691938 11.84642848526807 13.178931562087428
