17
Energy = -55.86992724 eV
Se 15.967319907700222 9.987495368528812 10.504847617873423
Se 16.146274392010827 8.722047300591031 8.675808862917552
Se 10.954895939972685 7.813932850976219 10.284613830583751
Se 13.630216731168202 10.771085257800866 10.301757191859508
Se 10.852023085780353 10.736842025320348 7.8387493008655404
Se 10.359014564772806 8.42426980573398 8.120137627359798
Se 12.352305244046947 14.342754525697927 10.162427340163289
Se 12.867010831446297 13.702426324776159 12.756662789971795
Se 12.859662127461675 11.185136232586997 12.413406193455794
Se 8.869377243870073 11.941777539346072 8.297815618645314
Se 10.86461567312923 14.072637572990732 13.642817222436458
Se 9.027144151677716 12.601776748992767 10.54553328354573
Se 10.1650553348123 14.746054649979422 10.510454964938322
Se 8.121308732920511 11.704354592311642 13.81055405819429
Se 8.829535918144817 8.0033360495568 11.502560345000736
Se 9.390190199119113 7.632206073963613 13.626357843430815
Se 6.095860512373807 10.918482326918705 14.150970808883104
