11
Energy = -37.36597778 eV
Se 11.273648973245791 11.876592077053681 8.108591293376726
Se 10.431199193501174 9.852414886958012 7.9582378164623995
Se 7.632908510725497 11.239146969190724 8.448326185595588
Se 12.193964734627983 11.847500721059152 10.630842307614001
Se 8.776808299864943 13.150259386208813 8.56152691637731
Se 7.538127744167951 10.381668345892395 10.759988308530913
Se 12.325260349701058 7.954245134094996 10.889979030620502
Se 11.063602750176138 10.04674350478274 11.345449386236396
Se 8.93164879539393 6.852121634019529 9.715512766747809
Se 7.077842318800732 8.123426183205357 10.524403228731032
Se 10.52046108454421 6.636823493799113 11.48849459513211
