12
Energy = -39.23378599 eV
Se 10.386058696569428 10.36552262006962 11.18064049857481
Se 8.420357382789353 9.95712341395652 12.449551939742754
Se 6.9208879390330384 14.955772984914544 11.061796968280452
Se 10.765623270144431 7.995970792150753 9.214501629555782
Se 12.217740086305657 10.067326596301486 12.708312743814773
Se 13.441195760065096 12.019071382007075 12.370253657105081
Se 7.640710931320688 11.983960653646747 13.3073781777785
Se 11.765804484301492 6.8638545404414275 7.316618572650761
Se 6.281414583245521 12.858515360396664 11.474759941774145
Se 13.223434003325293 11.343117066424075 8.663588551520046
Se 14.73012209063893 11.47115472281062 10.424440309742016
Se 12.898667227660386 8.81062632228009 8.520173464859738
