16
Energy = -54.57780872 eV
Se 14.259474630026862 8.681685097359148 7.131314450044831
Se 12.977027002849677 7.173917333124803 8.432590938641919
Se 15.821185317700431 9.680576264139916 8.599125368927732
Se 11.02588128662874 11.234890121973638 7.72750102643887
Se 9.957614398360391 9.511328720151988 8.951239884775523
Se 15.311091446623115 11.981954450755213 8.72182322856197
Se 11.774919677197442 8.42555594313659 10.011074276866053
Se 13.619022588101142 12.288274064022444 10.334802453070921
Se 11.688807896727681 12.989575940400105 9.139832654721078
Se 9.77551031132842 11.709640905546603 12.173300530979072
Se 7.185611209880477 12.31426619149023 11.625099060131557
Se 8.962802123333478 9.62675125014148 13.69503226024523
Se 6.918723893359503 13.497986887581831 13.540438557989741
Se 10.204039724547046 13.203198989774991 13.721963358544903
Se 8.626642296650465 10.898649761549775 15.547541477438648
Se 6.457506218789454 11.886900603669684 15.267911378871963
