12
Energy = -40.35124233 eV
Se 14.255047022576777 9.592393100316874 12.810468373502706
Se 13.446510686775667 9.403756358047373 10.706087324602006
Se 14.210509926487099 11.938025688300948 13.362293364836107
Se 10.937196322995858 12.15082128425404 11.55061196615864
Se 11.84782378327626 12.279388072294253 13.639244343433111
Se 11.16505007943773 9.041247501479619 13.699103512699473
Se 10.84188065443016 9.448560605015333 11.567916604883946
Se 7.58901364425098 12.438396652430997 8.547969364939302
Se 9.79944343958619 11.830402144831417 8.212449642154759
Se 7.263068112395144 9.164859009152032 8.451956360460741
Se 9.511934017456465 9.34725791039178 8.011138291453562
Se 6.482859957143555 10.956870392268721 7.061309861303238
