15
Energy = -51.9058005 eV
Se 10.577318038376575 8.965771104073355 5.95014898205329
Se 6.874731869635555 9.37512510263335 5.515843492968543
Se 8.550300525370382 7.776978086736723 5.8948951586034415
Se 10.46315139830095 10.022092560370336 8.121506787096376
Se 10.06510019198646 12.232673003963562 7.705751053787281
Se 7.588442355799628 12.481069009485543 7.533281891513004
Se 6.700791523566744 10.38478944170978 7.705063827178928
Se 10.178550437041771 6.981078094098554 10.187174630780026
Se 8.005605197028652 10.037265531973999 11.021135213622347
Se 8.166362760615291 7.688136262693491 11.205682793825234
Se 11.813267194729692 6.732275103120386 11.868431510854975
Se 13.124542909339594 8.691994876116388 11.899222662406773
Se 8.70542106506185 10.985400705886292 13.065691215900944
Se 10.933645980827931 11.698294533610534 12.764743838335185
Se 12.357431184295866 10.051719215504669 13.6660895730498
