10
Energy = -33.04552506 eV
Se 10.503763852898793 6.595173341184999 10.513494284867722
Se 8.940420902650157 6.6814682225410085 12.099036022367443
Se 9.556621079148103 7.9909853943295 8.65761533884058
Se 11.288866195669566 8.218916135001948 7.223626004298512
Se 12.555962177470283 10.197504827603245 8.261190171830584
Se 11.377373553618199 10.656427414797088 10.122298471767268
Se 7.150929572660419 10.400400791086074 7.966708529666781
Se 6.446694547316939 10.521970530251474 10.061943606460584
Se 9.669641035595165 12.379678162100856 9.552772627868638
Se 8.181563177094661 12.029311275226776 11.213151036154308
