17
Energy = -56.00175811 eV
Se 13.036158465390795 7.870110343304555 12.665751332705257
Se 15.698727581890852 6.4520903959611 10.48907105946439
Se 12.693340258975702 6.560821534947254 10.94436170762116
Se 15.988405240321413 7.7206123227687256 12.244872329224341
Se 10.031747109789555 13.876012926394097 13.881696707957582
Se 10.22525891984128 10.146789502602001 13.727249049542548
Se 8.328138646732917 11.163025443128022 13.043469258286477
Se 11.541359334388872 12.39773864710669 14.541128684545841
Se 13.480341709310553 12.600133313255263 12.799969969978656
Se 12.36697668819603 13.058751136867956 10.884186090428132
Se 8.450650279957754 11.32630921942269 10.660589698800605
Se 12.205446957303197 10.867040330330935 9.781524413021558
Se 9.229019208165182 11.498565581165701 7.454408835019707
Se 7.701943761332315 13.7827489383071 10.246332635829678
Se 8.94128448773721 15.408674199615264 11.12099381918158
Se 11.644384827058902 11.595519875436137 7.674331872562389
Se 8.382667882540774 13.61651319501208 7.782245631837972
