10
Energy = -32.90550912 eV
Se 9.825263800579929 8.342487714710142 14.385035746737985
Se 9.14216602926171 9.461078104173364 7.781900381367253
Se 11.707687644690735 12.111898089865512 8.402815644797673
Se 8.650154313688056 10.227575907304098 14.609263941435472
Se 9.767164987598786 9.545498999320754 9.946913459222975
Se 8.126378480104409 11.062443977930592 10.990878321842448
Se 13.69021772764585 10.60604162958051 8.44367307673716
Se 10.443034143344446 11.371140271968944 6.67901730263391
Se 9.280715471147118 11.818105806073161 12.832720472812605
Se 14.031375808872752 10.117887906006267 10.59194005934572
