16
Energy = -54.18233458 eV
Se 16.55360406437755 11.863697394969005 11.971549758218586
Se 14.33234018274127 9.17081333797315 9.634073534010435
Se 15.366873539767903 9.407197337586988 12.185271941783563
Se 14.791382282653824 13.030859179018416 12.699016822751263
Se 12.313663222439152 9.956086844505503 10.193584853925532
Se 13.527757117691488 10.00607526338098 13.213846985409152
Se 13.543443590322697 13.525186385182696 10.609423132169258
Se 10.997461588265908 7.970532992103268 10.956539755250308
Se 8.88957385289752 8.42619593309687 10.2181599694676
Se 12.045941654702135 15.112930020445175 11.297580056622998
Se 9.306398064894553 12.42234915467392 9.922732086464784
Se 8.364866666714192 9.919304772860675 12.152378909722888
Se 10.433419105537261 13.499118551664143 12.37921524603644
Se 7.299184000446936 13.109229850413385 10.513946700347047
Se 6.42595765483471 11.007336860105703 11.833866147039757
Se 8.525761583755742 14.452166397094002 12.962608351991257
