16
Energy = -53.31088644 eV
Se 12.794526893299837 12.764134186407336 11.529475472093415
Se 10.332820797341032 14.364464835556833 9.086292403766054
Se 10.668236580658172 13.795507512722908 11.316686279139027
Se 11.585662449569197 12.08686788865191 6.3014422413174085
Se 13.674414011400112 10.021562503752621 9.103358561008582
Se 9.32783732995698 12.318464462957712 8.176615721086241
Se 12.499391832805403 10.44410219846419 11.010929008275795
Se 7.482846032159864 12.116579909214398 9.775499976138724
Se 11.859519344049758 9.98629655606184 7.146626887251693
Se 8.381423775244405 10.99124662644443 11.665956924585872
Se 9.931529271202486 9.554000000609681 8.408417452179076
Se 10.302478181857213 5.473990584861381 12.693816505398896
Se 7.206033051974327 9.000363268575198 11.99959947061321
Se 8.185952567645625 5.011814885650159 13.140506853114854
Se 10.283053363516927 7.169352950693322 10.800162675862984
Se 8.0333868520724 7.385041954571237 10.417952906691951
