17
Energy = -56.79668813 eV
Se 17.79677499331415 12.422955989539076 14.134754272103606
Se 15.13450055609775 9.298467744863293 12.738400052589096
Se 16.100670310403217 12.972331343921294 12.786166235921886
Se 12.217269711598323 10.337952925434129 14.895183556810828
Se 15.59103598239529 11.087909884379354 11.300838357562059
Se 10.925022696077983 12.13191999025438 13.994194753326367
Se 8.728268802788444 11.674990846690104 14.574179404637192
Se 12.792523563436387 9.065842293015818 12.99457299202878
Se 12.627946535518362 14.674390559967073 12.64749430762031
Se 9.103243082517904 8.987508402541172 11.645764057385225
Se 7.738372824804516 10.489170521269221 12.54162438582291
Se 12.778680415684692 13.494930416779017 9.09856904101617
Se 11.613158227474598 14.954581369140872 10.670143590044916
Se 8.028030158900128 12.661528191964132 11.26179432794615
Se 9.979098575312015 11.115416544960008 8.413967326009615
Se 11.131907894523506 12.989463099475756 7.520271598190319
Se 7.8532701608584405 11.921714877349688 9.080003750307558
