15
Energy = -51.90521338 eV
Se 10.21814155278337 11.107038017241834 6.035616925622003
Se 11.762141586879348 9.12741300790013 6.237924520669902
Se 6.513161724961548 6.580392606957981 7.856682200077424
Se 9.319831286817116 11.378249205264295 8.11547310415723
Se 6.4335385998815 8.921913734848285 7.581622616685024
Se 11.687144413643345 8.507541852628039 8.425337206185114
Se 8.671034960366322 5.980647685931201 8.592767147340972
Se 10.87085128518367 12.786764569547069 9.327715781210241
Se 5.397874864806131 9.83310382365197 9.495185790475391
Se 13.26366601284892 9.91546521130033 9.594967389060681
Se 11.803100807790402 11.25958704018791 10.85047736993128
Se 8.598106613221555 5.730307812236245 10.938707405529755
Se 7.0721800919343005 10.643547085473449 10.947638552008243
Se 9.3812076761036 7.729465809413708 11.916803947635639
Se 7.50180656926389 8.992350583903159 12.576868089896426
