15
Energy = -51.87774979 eV
Se 7.578052452862908 11.612836140171062 5.296025339242084
Se 9.642332720523926 10.49341019610023 5.4970645960807945
Se 5.959118532437098 10.409403994921696 6.514059704459363
Se 7.712753525098153 6.879935633164554 8.313985897954698
Se 9.372369498691745 5.392615501987619 7.565221741846143
Se 10.895391685549818 11.532975656615546 7.207111879944096
Se 11.402111045515667 6.221621664253637 8.426511470161316
Se 10.607741764908958 10.224081593885746 9.155123194396852
Se 5.6934835152440115 11.46521593431652 8.612651855598976
Se 9.009834709846615 11.296578321206589 10.52296542229175
Se 6.9264237604031935 10.22033585273144 10.198310261107522
Se 11.352188792679838 5.676642445399681 10.755939907719803
Se 7.425555686928439 5.93106499312958 10.504298150640416
Se 10.637030905373987 7.619646964607063 11.768838287229284
Se 8.194269580821903 7.432293284395144 12.070550468212994
