19
Energy = -64.38701337 eV
Se 12.095392913321824 5.743071003898174 11.895554080118014
Se 11.93072353969321 6.57643442960703 14.081189676653949
Se 8.159034716513622 7.718684157992455 11.597997246948923
Se 8.545676836741015 9.180799967350458 9.765001152187583
Se 11.079466207051516 8.851967486685979 13.723165167498028
Se 14.057065874478086 6.666693645569656 10.92011987949597
Se 8.729702596762982 8.762994767851154 13.635836439772252
Se 10.322562767354409 8.136435733022715 8.587891828210086
Se 13.535069052766184 8.943540988401255 10.700977660847837
Se 11.071304188310345 11.967467001386918 13.535535088406288
Se 12.369969088601497 9.326531696911157 8.656791642187907
Se 9.070631659544988 12.909862959401721 13.157906421660252
Se 9.792084732464394 13.071836294706435 6.520805891171945
Se 10.659711279012312 11.876817890774593 9.816585185798584
Se 8.566111114408086 13.00131398907065 10.71271489050188
Se 7.909728785066016 14.436563839661972 7.379284816433688
Se 11.659073792455523 14.238040655585554 7.0205526356220105
Se 12.12758138265042 13.547496193244715 9.429989843459376
Se 8.732628301712047 15.156491274789708 9.38595232748564
