14
Energy = -45.07780658 eV
Se 11.346279807020938 16.940185090385352 11.243086740679718
Se 9.456448206252768 14.095992591411203 10.206439164729257
Se 10.80859149256072 16.485706255635844 13.363782185410471
Se 12.715945925330745 14.507354148106463 12.18062383028832
Se 13.107234534332083 12.542110977724814 9.707571372218174
Se 11.079368156027046 12.955102589952702 11.218304035342348
Se 14.203289129632738 8.879445549800847 9.646123366601406
Se 12.144936427563179 10.336410468934238 13.676711580134716
Se 12.843655158693105 10.510651548625276 8.583793442796807
Se 9.899885251085916 9.87345329461284 14.155995455541763
Se 8.782286312081 9.957658603442411 11.98399703647614
Se 12.806727837390774 7.634671086815566 11.082829859282397
Se 13.289948242069082 8.3046382828532 13.29334354568404
Se 8.971425138789844 8.004720893449457 10.959802644136829
