12
Energy = -40.18298813 eV
Se 12.752045436943748 8.125543290141106 9.574511214165613
Se 8.848337703937089 9.511155410584813 12.612714463725602
Se 13.127954763182501 11.842581894196057 10.39785505220808
Se 9.692062829782312 9.454007313759817 7.534296544176994
Se 7.36011875043575 11.27051498855761 11.599978808541774
Se 11.60965165448514 10.42753215249105 6.70093607272244
Se 12.746245292349357 10.447697476923858 12.187351113633195
Se 8.159039723501355 11.231678218364074 7.883513378467685
Se 8.630355199999284 12.284307201068337 9.95061707601925
Se 13.32533728568458 9.991944316294973 8.537707614342914
Se 10.755548855547444 11.043369558767395 13.259885662975258
Se 7.72351620895995 9.099881883659851 14.49084670383043
