16
Energy = -53.47096758 eV
Se 9.820818232333512 11.102023954610013 14.971302981600337
Se 7.006567801473292 9.960993860348292 12.662588802994453
Se 9.185270950864528 9.449496144732418 13.34421006163518
Se 10.087904498652028 13.079305943105794 13.895989747420964
Se 7.280341579667075 11.300133720232036 10.698455006784226
Se 13.1093059680139 10.741803629093322 13.54987123595369
Se 7.543034698544895 9.816091220461141 8.918834732300304
Se 12.56395612572324 12.815073602254362 13.05938167038381
Se 9.137179270246042 9.447910860619846 5.861395992492776
Se 12.224473019299888 12.570624568205158 10.37640195881716
Se 10.070053923641648 9.924305521059892 9.547170997533227
Se 9.650195356319085 7.3915464798337815 6.703144767899274
Se 12.71965957659791 10.37480734069368 10.238628342552078
Se 11.307595675426242 10.629275933165337 6.35338736523706
Se 10.846797346175224 7.881714069128122 8.80707158137323
Se 12.774920116805808 9.019868596584619 6.685734534417393
