10
Energy = -32.53422072 eV
Se 9.842729945156602 9.314018733663591 13.263942811381845
Se 9.584002220074817 9.423925245082511 11.06877244241816
Se 12.370576221711781 8.86646110907338 8.337744221485858
Se 10.759373533126706 11.489079573390924 9.99655117145472
Se 11.502818752295523 13.707259839609156 12.982887707829962
Se 8.91014483008008 7.735237477340741 7.4264320327134365
Se 9.856407011628008 13.200449437795278 11.214869763002177
Se 10.642283499348647 8.64740422625075 6.410930638605211
Se 11.275726461468501 7.765629465441013 9.961074180325507
Se 10.349744683877637 14.94434205112095 14.430602189551273
