12
Energy = -40.91270424 eV
Se 8.329624760079003 10.691598347524245 9.570625052779357
Se 10.970956113568404 11.037798241748497 6.926206474064288
Se 8.504244327316515 11.343060384117283 7.3779102819813245
Se 9.620506921795434 7.303647521334445 10.439346149035341
Se 11.57518778021429 9.43090274049372 8.33049421208399
Se 7.7204525458586195 8.358567030929345 9.610797884314158
Se 9.337767534603845 7.366953803839519 12.815556839023067
Se 12.80047240905103 11.464661702533443 10.10348024952379
Se 12.460867090182361 13.045197298255848 8.578219552431223
Se 11.071462499783292 10.790147750342328 13.591590612941149
Se 8.995966250178325 9.611427219598871 13.357336499286658
Se 11.215138351948815 12.2879053552657 11.826636980531088
