14
Energy = -47.56155375 eV
Se 12.704191352601917 8.102162071523525 10.808203289779021
Se 11.813888297114838 9.501642673830622 12.63526915588739
Se 10.249525970390179 7.454982050324814 7.406755354907117
Se 11.92338467474386 10.753998385896539 8.045408853190798
Se 11.452648825201829 6.184009641453062 10.772363228503322
Se 11.323177265301661 12.950365013784255 8.709505947587685
Se 9.627322339122767 8.825576879907773 12.863121070479801
Se 9.461708835524583 6.704805146802689 9.512511425956005
Se 10.779665713783475 13.105909572217202 10.913464567509923
Se 7.964496061948217 12.969669332903162 8.350125687649253
Se 9.890482930889315 9.749934633036945 7.22566432780868
Se 8.183113398192864 9.629876564315342 11.1079463303502
Se 7.182378181630797 11.56521321538257 11.894074619884298
Se 8.15122264321156 13.424824882432016 10.508272415122144
