15
Energy = -50.29174057 eV
Se 13.520836463929049 13.30283118256405 9.866411257881541
Se 12.060657371612116 12.255826250029973 8.326147664513334
Se 12.677437554373032 13.018627171277647 12.042369193518184
Se 8.134969860725223 8.821809146738584 8.964425991946863
Se 13.362256637587114 10.498124417851686 7.426771904610469
Se 8.392839653079962 11.944373272615408 11.086812936991159
Se 13.08226561432435 10.730062401713802 12.549215949715997
Se 11.27610453463117 7.389184711281434 7.1670610039195
Se 7.8392182498211485 12.098863138634293 13.304421127614104
Se 9.624038329792908 13.566690291126466 14.228752542787777
Se 9.764398235661611 9.914369645583792 10.84877569306193
Se 9.448203514062824 6.964153821394553 8.628399612015413
Se 12.994150242699666 8.406173656923889 8.446059129559751
Se 9.306492269830352 13.53912058534013 16.43693685897241
Se 10.945776867133283 9.912777714413485 13.02104800974732
