10
Energy = -34.48842159 eV
Se 9.42783138194196 7.2224235864888495 5.61891446190546
Se 7.469738016266062 6.5012592477706885 6.747028711890674
Se 11.183711821250538 7.276042467743673 7.183123093987794
Se 6.006345967849475 8.329315586275989 6.442995825709219
Se 6.845269593766964 10.092841400544424 7.751505561995382
Se 11.343125687053805 9.307018151243907 8.395820136011501
Se 5.901981344743992 9.999163277864367 9.905800224904532
Se 10.980491685896213 8.600818884409716 10.637260611244239
Se 9.170018427170247 9.698394841214114 11.654030696031855
Se 7.187403230388192 8.488639712771871 11.179437832646505
