11
Energy = -33.81064815 eV
Se 12.263056355678899 7.480468796724657 11.962997356491865
Se 13.47121433691033 11.163890669066257 7.975352251245727
Se 7.866664668616862 13.859482514667548 9.949390355872312
Se 8.46717963186683 12.766869683183582 8.137652347364288
Se 11.314535448651908 10.365521551988158 13.162247679013982
Se 12.85874714895231 11.244735694583408 11.786329002081294
Se 11.92155407058724 10.715832215756366 9.502438814525451
Se 6.871899648930076 8.903016201996266 8.921955150773787
Se 6.441834156476321 9.730488759512454 10.946793466664259
Se 12.2741805341263 8.043327320541254 9.828326480469254
Se 7.225716743840531 6.702949336617081 8.80309984013509
