11
Energy = -36.38573142 eV
Se 8.109859072609286 10.192702800228966 11.009167395099082
Se 9.979058730295899 10.901907940233501 12.223963954353247
Se 10.505240117839397 6.264703457266543 14.128823012614836
Se 9.280443133068214 10.819220495669466 6.1561631693085515
Se 8.985763938450694 8.496612152131327 9.508980695306995
Se 9.798606070855037 5.77675510224858 12.066205604967305
Se 9.87231680491014 13.792446348327147 8.355910348373838
Se 11.683700468763297 11.452992163182907 10.699888300168245
Se 11.564885386254533 13.703353632035254 9.968673533605559
Se 10.750672219201356 7.464358554932007 10.55882541806232
Se 10.765148028518668 12.454463647059548 6.534134298579025
