13
Energy = -44.88537438 eV
Se 13.601290176989199 8.540212861437857 10.267572990073381
Se 12.5581421649594 10.496539747597257 9.355070054685255
Se 12.442975005804366 10.350125485073587 7.055745709234197
Se 12.278286650505162 8.720798065171424 13.73917342083965
Se 11.917011501154667 7.672666061844245 11.645580893151568
Se 11.540273305017283 10.944661016397811 13.523295361555766
Se 9.280095898550995 11.088964170603019 14.20018149643076
Se 10.415294147200115 9.168717470992712 6.420830060271046
Se 8.931172862467923 13.046360857530289 9.484011147282567
Se 7.889261805598831 10.733878575651778 12.32884947367191
Se 7.441478028641237 12.814764479948995 11.301790525309727
Se 8.817170287748006 9.643948961621936 8.027936569186256
Se 7.952057466262395 11.842871547028963 7.714471599208227
