11
Energy = -35.4496075 eV
Se 9.627692181084187 9.52217876096719 12.257558254044692
Se 12.333634025819876 11.45062018175418 10.683898775025298
Se 11.709407471963116 8.48075132330349 7.093785588302565
Se 9.55259036352372 9.015618774288656 6.865839888051138
Se 12.17787381682225 7.926319159656061 9.433552094115793
Se 8.873875328331739 13.827518476227056 9.11591772654163
Se 13.694006903613943 9.573200398438333 10.070799028740165
Se 9.176388256781753 11.80980506780497 15.182801567753389
Se 7.9631932258934235 10.650798469151303 13.716455816497865
Se 10.737527687781816 14.347643455592873 10.152325871279892
Se 11.528367311041706 10.770102505473568 12.801621962305404
