19
Energy = -64.03003543 eV
Se 14.481170010456916 11.396361035399552 11.416083766242792
Se 15.170762085204474 13.439799896396673 10.450018900553067
Se 11.663884434283876 10.711060178023468 15.40938783280575
Se 10.831152251786403 10.24764902302969 13.394054185234795
Se 13.559596224930097 14.05609576520814 8.848250736970526
Se 14.861773735894852 9.719067036494897 9.774456999915923
Se 11.741652462130922 15.097255491617846 9.955515026946781
Se 12.572913281624343 8.575717368764051 12.760551573225364
Se 12.705728256877919 9.196027054302983 9.07818484942517
Se 10.037223516632533 13.506612710010646 10.090791356413316
Se 12.00631957435024 7.580379708687282 10.745992038437763
Se 10.232379174279872 12.86920251974943 12.457333461860118
Se 8.47298857022744 7.2126650171375255 9.342688369658855
Se 8.654415743763568 10.139255816354781 8.920150497161824
Se 8.204560392320202 12.132383736824814 13.076455770164417
Se 6.667850429685588 9.075616849983094 10.855511970417105
Se 6.964485470534257 7.065216687933137 7.762073719084158
Se 7.166784052352063 10.01323818075946 7.319070330670803
Se 5.1947795121240565 8.896530034749198 9.248940612752234
