10
Energy = -33.98041339 eV
Se 8.435420303671815 10.292472540529058 7.1725513602508775
Se 10.392279489000844 11.211089328906473 7.678006053782419
Se 7.004789075235148 10.819839780621601 9.327875042739509
Se 8.410622247934905 7.701501288171215 7.188008040463767
Se 10.55848452128306 6.451308691491874 9.93147551564729
Se 11.46093089603805 8.59039737975938 9.475741834099987
Se 8.285984207971039 6.886367205031356 9.328528037232545
Se 8.572463050690779 11.965017813791029 10.498355090055744
Se 11.620835071599448 9.868280020575737 11.46682345395447
Se 9.422531797008196 10.378066611555676 12.096976232206671
