19
Energy = -63.2721529 eV
Se 14.401203465307873 9.811729615936557 8.661570449930295
Se 12.77761279394833 9.37483113458507 7.124890911399887
Se 12.250514242808876 13.204375051401176 7.528708814036882
Se 12.366071874900099 11.51016339125799 5.965690718161103
Se 13.294317928013298 9.607596657089376 11.346974440200439
Se 14.02968307611239 11.934874058785425 11.172428854597124
Se 9.372608645512562 13.987044097427475 10.09098334841763
Se 10.793422882882432 7.919205018073339 9.088124195794263
Se 9.901299718990021 13.742438403162737 7.857442323785931
Se 10.979830899820964 9.743879401872151 10.386037490833605
Se 8.219932682620295 11.958417447170572 10.85468277996814
Se 14.64050158326873 12.686394359354985 13.273118558351486
Se 11.735447195829428 9.505233414560543 13.474618336778752
Se 8.906204598900597 11.733562297550755 13.04888901128378
Se 12.549675382401661 13.040656368809797 14.469384816153704
Se 12.682492553429565 9.41766007898866 15.54633730724632
Se 7.25229057658893 13.132437168175922 14.26171869475236
Se 12.858291370258451 11.777264263127096 16.337269767146594
Se 7.821119084132675 12.86192314032477 16.39677549456022
