17
Energy = -57.15124918 eV
Se 11.435550450825376 13.119899846446964 8.61236220572809
Se 15.30833910871776 13.477678902379235 11.698069120192253
Se 8.068983867200497 11.74679044546469 7.928549330683724
Se 13.68747015279619 12.33739297216132 8.522082949900362
Se 7.581593109932718 10.091556708920507 9.337818226042863
Se 11.847366586977532 12.410355015560649 12.292050296441767
Se 11.272789179538368 14.121234983019997 10.737451494263318
Se 13.427405963791617 10.005979492321629 8.272019792687521
Se 16.315734148075226 11.52793507071323 12.168761548478313
Se 5.675663438287714 9.319342957040446 12.447681563560081
Se 14.684599600482864 10.062373018140418 13.235607173358789
Se 14.362803889242345 8.386889547981918 11.642745729578234
Se 6.126206376621579 11.077578654331372 11.101040211058573
Se 12.55893102074141 9.05113651284876 10.24103994488903
Se 10.233097519591833 10.74806121726669 12.226645290280247
Se 8.472814892948875 11.470414256710443 13.796899357690387
Se 7.495732005271813 9.48477164438877 14.2509533789629
