14
Energy = -46.5490315 eV
Se 7.384398797449109 9.56140279653342 5.1567710381848375
Se 9.217028021486676 10.99103225644907 5.71063504762358
Se 7.251405601606076 10.530411758706983 8.217769004138944
Se 9.470500223965713 8.547188462278248 6.041502986055152
Se 8.866148210774998 6.026436777228856 6.875556715332255
Se 11.596762398414473 8.176960138725526 7.694125664028787
Se 6.132809796916152 6.995680339628233 8.790597308364577
Se 10.5840562463627 6.237114390181546 8.37624614443469
Se 5.539183556309821 9.183136262776307 9.25786832721962
Se 7.406691502031218 6.142465036842564 10.721299857774484
Se 10.463830475022634 10.416908394165516 10.13046075789839
Se 8.392750460674414 11.43927626086235 10.139725008462527
Se 8.078838390915044 7.997687539077579 11.965483707146243
Se 10.338907109774754 8.47761037824773 11.645269225040272
