13
Energy = -42.92229367 eV
Se 12.557352682356955 15.83145574397485 9.376622310084704
Se 10.39395900259377 15.32238135872682 9.158566107537688
Se 12.97691411179833 11.045374042206229 8.960565172691497
Se 12.624178457952215 9.160633120456342 10.263479575060552
Se 10.793702659298077 11.686658055834426 8.24934061461903
Se 9.97170886154508 13.050783054378313 9.955029534064272
Se 12.09212041310111 10.201565273659321 12.420824423294128
Se 8.90261931886615 10.472834025320655 12.308568895545479
Se 9.513751960867804 8.183918680109668 8.116605810107657
Se 7.922958287529715 8.263540622053062 9.711628797034855
Se 11.733531600881419 8.391075972150531 13.676997426057996
Se 8.946899743873436 8.484204554485004 13.27811803705254
Se 8.452499680559672 6.778545800894455 11.451125700558393
