22
Energy = -74.82721856 eV
Se 14.067497526267005 10.204624471735496 10.976817725384434
Se 15.66345979606655 8.455388274718544 8.017256905590923
Se 16.15021782413861 10.59207028103134 8.557115003792283
Se 14.006669847164346 8.127952452441404 10.199331052897804
Se 13.238068099868284 14.61799549255432 9.444539326470775
Se 14.90424485094911 12.08491614406075 7.104170263111914
Se 13.001528221547256 16.80408695287583 12.497246556128855
Se 14.197012817139143 13.95558660257155 11.569469164940672
Se 12.175574082831425 7.821957071683206 8.55012437984502
Se 12.915572451290945 12.657354854560383 8.193542816280141
Se 10.022970021500601 9.600801660320052 12.37227780444309
Se 12.589574180273393 13.04494301464699 12.859871385571662
Se 8.984922858152572 8.461416748526972 10.550191784683149
Se 9.534940557235092 15.390807484799478 12.264658314227907
Se 7.881225226508418 11.897126337843597 15.890274949818
Se 10.5170182671461 6.803940605603033 9.842858958652672
Se 9.511672986643044 8.527446435780279 14.321390067138447
Se 11.622201044409863 15.499225711809414 13.646723203377805
Se 6.4665912488356545 10.25683361697634 12.812214040500889
Se 7.1214358648296585 13.133945496822083 14.17887798171644
Se 8.823156945566193 13.208815282595737 12.419391064904788
Se 7.153772831547023 9.49131475984996 14.763982262140859
