24
Energy = -78.96018716 eV
Se 15.52829127567698 10.71463034055531 19.060160371945532
Se 16.190627668692198 13.618559282371157 16.84954402072708
Se 16.148155192516363 11.411972736750768 16.593553527040186
Se 15.358098203695647 12.66269996042754 20.06810988591467
Se 15.62290209109328 10.30559304488144 12.133679915692676
Se 16.16195426925114 13.679869509020646 10.6371409764213
Se 13.385984729922386 11.188067417121502 12.703396514102911
Se 10.514392486652275 15.392117102306408 15.363683650775476
Se 10.027150831616813 17.536506375423542 15.312004614272226
Se 13.710544473655494 14.220430160902286 16.32450683124005
Se 16.85526397321855 12.257298553758652 12.42101523557083
Se 12.108427191146731 10.962498691650213 10.886506422985923
Se 12.776368646277943 12.241234398564782 15.972753504540876
Se 10.235072193904353 16.72489582872777 10.648932518228566
Se 11.336459987672239 18.207587802451087 9.315915095005145
Se 10.706017235906907 8.749970788089358 12.234922229954522
Se 15.080648310836342 15.50412401458021 11.67118377766095
Se 11.444916817328433 14.655612071583022 10.711213883919296
Se 11.929446147067656 8.959790196583905 14.081604505172248
Se 12.96360324319778 14.878368709231365 12.5010834661483
Se 10.534422610418131 17.47601790911214 7.016053431270861
Se 11.750440417205422 6.797001905741997 11.04516655848884
Se 9.3247520506152 15.6582698430065 7.362599795765439
Se 10.561465081548116 6.494558860065608 9.188980269922821
