24
Energy = -81.10049715 eV
Se 11.281660975097484 15.657240191506366 11.596503245290444
Se 14.007373712159724 10.840150809690428 8.007290596499617
Se 8.092566506403225 15.182762618629342 9.595770095468422
Se 14.826079123707663 11.593913382719284 10.129419521015585
Se 9.252523599800666 16.070194052469642 12.522376805178943
Se 13.948223429395666 8.510711702434397 8.175732616298548
Se 8.101672581877581 13.948315045609402 12.466145480476024
Se 16.7560153406109 10.396047457808624 10.665491282192626
Se 10.26090501478168 14.963015511245384 9.163302714726257
Se 8.534854743836403 11.684294637006122 9.3276354552859
Se 10.77678099100759 12.51615395214601 9.388606300600934
Se 8.333386250986603 10.36460010830477 7.515791065692954
Se 11.55959218443732 12.517168235738929 13.978276927230047
Se 8.476031080471047 8.054539065347244 9.160713374348223
Se 6.938308752242552 11.007249354280523 13.205541941326496
Se 10.588014406592697 6.759188669439905 8.728316874113219
Se 11.77778490883658 10.586259525135203 12.585380849661469
Se 12.383721414266475 7.732235087806121 9.811273123313006
Se 7.714699147002371 12.643620711634462 14.575999087636387
Se 9.955701100263232 12.089135092078362 15.576850388489254
Se 8.524444241740193 9.154299619009999 11.100358140928105
Se 12.83998832443683 8.862858727191036 13.780044042448264
Se 15.992427498980945 8.43115489934036 11.762126452456442
Se 15.18936054302104 9.154074421039738 13.856811410612229
