27
Energy = -89.8520997 eV
Se 15.65509841820723 11.705364764469563 18.687279454506445
Se 16.452763435149986 12.998171695374861 14.518388251723895
Se 14.418755371542263 13.00429588787666 19.949853504364462
Se 14.41324537859921 12.582531067625585 15.444967474068072
Se 11.505702975223063 8.784506038470624 15.297084294300639
Se 10.044827334397967 10.55268081795952 15.784806226914975
Se 8.261257298288003 10.4828403152868 14.211770998775679
Se 12.721938047502181 8.5695208802718 11.701040752659198
Se 16.720497754927987 10.4308772643142 9.8271631423069
Se 13.124709255721688 9.629533108236043 13.771957111562706
Se 16.424430351141023 11.916811371263256 11.844280834732952
Se 8.804083344946447 11.960863022945295 12.502067214808786
Se 11.126504636327194 9.77981875209815 10.456298359753152
Se 17.1149865898064 13.938467563005453 10.831140001754338
Se 14.933223548487947 16.19841947210667 13.466266724349172
Se 12.7932992658752 13.131833734220017 13.7952318452237
Se 15.262833949937896 14.701375347989002 9.645957532510561
Se 12.848577409255519 15.559723916663852 14.023045066246086
Se 12.11295338626982 11.710783688603446 9.526224431090375
Se 15.657776530150654 11.584285751632779 8.120184292014516
Se 12.064614895633252 16.200959619811535 10.977641195304077
Se 13.412722663648717 10.877557788993242 7.735110186542373
Se 14.233155892118402 16.672612021734352 10.81747012253191
Se 7.8393610306457235 14.121025804673435 13.402263876269462
Se 9.223550535231114 15.096210373171264 14.838505280092326
Se 8.285413569291357 15.127341521406487 11.01393092884946
Se 6.512017389076164 14.64075985261399 9.771889297084519
