27
Energy = -90.47580845 eV
Se 15.401898533529186 13.870852579605833 10.186604690847814
Se 14.416567897803535 12.155006183646078 8.86556560018207
Se 17.22901547381984 9.53322643724391 12.258183484333104
Se 14.818721863943539 12.954465813784031 12.600101538966204
Se 13.416117808818727 11.776530722737595 14.602392319825757
Se 13.834428469765411 10.346727194215385 11.60634502671594
Se 16.794066676622045 8.12152626108244 14.037092085902646
Se 12.135717892898288 12.317032337140548 8.93206523619259
Se 12.853150949863844 15.453020285554517 10.71420916013752
Se 9.069248185864673 15.394345441085575 10.072497210636469
Se 12.381018200654987 16.211939114811518 16.77477747911969
Se 12.700657416550511 13.863907483342526 12.681847121755382
Se 13.269353974465435 12.834117370121332 16.747751608794275
Se 10.38715051181794 15.213199271877485 16.861149576496953
Se 10.801449985115594 16.604492550257476 11.130383050900738
Se 16.665644016076516 5.964078158557292 11.56164205171029
Se 15.047318906347966 6.79697779355828 13.118155118118757
Se 10.06395143391021 15.764142618908778 14.428095345213551
Se 11.817433600581833 11.21396403737086 11.277826093426295
Se 17.05955654626389 7.887878835333354 10.369715303752795
Se 11.052345105622754 12.696943866779852 17.240751714588917
Se 9.58655527746738 9.889492568353955 9.173326089157698
Se 8.51339129620507 13.740768767040102 11.697674648842755
Se 7.977996422687576 15.173128704345535 13.506935368604092
Se 7.495140445090648 9.218822631167896 9.388437617585165
Se 8.043029514464903 12.657815690792473 8.390437454577444
Se 6.29462463173224 11.343657224958156 8.713255885174348
