29
Energy = -97.15240411 eV
Se 18.648898342932295 9.0081739587673 10.569367521956199
Se 16.308245749842683 10.949634987389958 12.823600108305877
Se 16.544841820893637 15.194778589113731 11.580725298223438
Se 17.045551234636534 13.613660494785185 9.910540550442885
Se 16.745901014255942 8.679751580346204 11.680811387368486
Se 16.726970165639774 14.222513502083498 13.742557046762942
Se 15.123594441322906 12.277104033352995 9.573760044742857
Se 13.505717861962598 13.710037918733292 8.555120124475623
Se 12.408331892167293 14.648701718616046 10.33639417323919
Se 13.080047648679411 7.891719236584049 10.511970718416185
Se 14.523292782761319 14.12028545079742 14.620101647703956
Se 14.027101661009912 17.875831005839476 12.048374719373605
Se 14.373870970110575 10.637911367891554 13.942095293145327
Se 10.437572272186618 13.115253619952213 10.710344512510549
Se 15.056736666336016 8.747290707129277 9.77545120876607
Se 15.718916658051729 19.639170668160848 12.738501035388646
Se 14.252436121421708 16.29254684559769 15.497975557145597
Se 10.634605570355026 11.40699417920192 9.305776446589197
Se 15.374537988574465 19.980031730665523 14.896537748982443
Se 11.163060004497284 9.482395919225153 11.190808081829934
Se 11.453641682990819 10.781064605413938 12.996922007473431
Se 12.864027265315373 17.534603322946538 13.981994900412555
Se 7.781527425676781 10.801589588723797 13.301873584425639
Se 8.926680790642568 12.821771741844493 14.68164954596959
Se 8.493804985437189 9.093900411976243 15.290356538103456
Se 7.074650633618857 13.18179528406249 15.961628443545447
Se 5.664408187402659 11.116328786535435 13.78497199498388
Se 6.640802694595426 9.54148842296171 16.515107375146542
Se 7.137552814825502 11.565703299642337 17.73082749644595
