27
Energy = -87.62663948 eV
Se 17.822567220710308 14.159460164851287 15.381421814775459
Se 13.355961830495414 8.373802351700409 13.725293489407761
Se 16.8065893533575 11.589105649638233 9.846993201528772
Se 12.215032662853163 6.01396890529834 15.566790145417558
Se 18.167189662679142 14.458168910039836 11.653812404893566
Se 16.124807873050038 13.340174262012205 8.658928711609605
Se 14.700238508692449 10.874118890726274 11.194114175818129
Se 16.618017608056082 14.713356994916442 13.593870354441597
Se 17.005372402421205 15.3952074938175 9.954807012914943
Se 11.286560859111352 7.2993487828183214 13.840912584900279
Se 12.672529207218304 12.256988109070367 14.214745041833364
Se 10.71226668227506 11.452380001922052 8.008779551678304
Se 9.973817155432043 8.182678901630783 15.549151055674347
Se 9.349078712490547 9.607581314646856 8.7185674758722
Se 13.163504887742556 12.416793279871852 10.614538137914208
Se 10.019420652966875 10.12424042594619 10.949442586640053
Se 13.232439846184178 14.12624740040986 12.541464130544263
Se 11.429801280809919 13.294046408048773 15.891401050537892
Se 12.73670007032912 13.870171491060628 17.67529144106853
Se 15.141851279967833 17.616169119212902 16.724056057710172
Se 14.081059895962458 18.81339671137994 15.076510572517527
Se 12.266226978630302 17.26772048363547 14.597639876583209
Se 11.465358823916091 15.475993844335832 12.203059736215002
Se 9.573056237835052 13.197889561606962 8.985120329376901
Se 9.05003763566861 12.196190643643236 11.215400013477097
Se 13.142464135501436 16.9119387271988 18.09155858816173
Se 11.4575899770072 17.83378121233594 16.83613134062621
