22
Energy = -74.09158341 eV
Se 15.592963540663046 9.829471665224418 11.925146770285979
Se 17.437186437175882 8.662727244057379 12.30956020426538
Se 14.027401599800843 8.18885883950742 10.848347348826843
Se 12.19589995213334 9.419966548919666 10.14032901541025
Se 12.16291025981957 15.693108183660007 8.665166516810118
Se 14.143607260167208 9.939720312695336 14.052976148118894
Se 10.073821358814726 11.31025317699249 8.286367337637946
Se 12.03923612128463 15.216015066530383 10.975908617302697
Se 13.286895764063225 13.237125632260588 11.36187729232761
Se 10.465311287037183 8.978906928907763 11.863535345045596
Se 10.039630288471061 13.059561779679989 6.690749417527272
Se 15.430548859425002 11.439120711395587 15.260188941412963
Se 10.017722892224372 15.099402958882862 7.875453493679574
Se 15.236169412741443 13.955936730497505 12.501462530606286
Se 7.935969868956985 10.903794532838887 9.247495659918913
Se 7.71290654232248 12.685585726814999 10.773478677888576
Se 14.641712591135335 13.633013020237902 14.75673228600538
Se 8.3793644161118 8.292476085502857 13.789060231681228
Se 10.56904719711018 11.034558550515824 13.05014133687441
Se 5.67492915106488 9.824203673800191 11.419842671466753
Se 8.473552503189707 12.121566483124338 12.955231737026853
Se 6.620256394257446 9.696910079811804 13.4607389317007
