26
Energy = -86.72209674 eV
Se 14.443350341196671 8.10566010399728 10.849221912781472
Se 11.861279292079404 13.562264814243239 12.51167575535735
Se 13.545725748124035 10.150054293469557 11.374086685752834
Se 13.910851693848302 7.707000743194046 8.498280991731203
Se 15.308188576742962 11.634491896240315 10.482939100449098
Se 14.74260178122779 13.74719496616026 10.974839132119634
Se 12.888225374755162 14.371760346979425 14.335092791941443
Se 9.736058796017264 11.353270608672196 14.829363542097312
Se 12.595042445054451 4.686312626778565 9.859808993334104
Se 13.805506806914758 14.227244151783191 8.295986096862107
Se 8.327995119114018 9.725868007124166 14.079466014402504
Se 9.50611918238988 13.330731014391779 13.348811910701267
Se 11.638187128122823 8.033240337415359 8.339051143961859
Se 14.071884502769345 12.151593824883085 7.6175684423877295
Se 9.533666503480122 8.317488631497543 12.484220400499394
Se 10.159010552954896 11.22419275701963 10.230263785800778
Se 10.791184211259267 5.793272458626942 9.199815764174128
Se 11.276142150871877 14.550005241241351 8.731997683987174
Se 8.184895184351866 12.196738287802726 11.322312239742596
Se 10.439272560995787 12.491966181225942 8.219926302258076
Se 7.716974222153121 7.298678844917676 11.482807135142707
Se 8.545201187519497 8.027225446841422 7.714222722291761
Se 5.727906600989605 12.928251179914556 12.703235059723635
Se 7.007484174293598 8.330042056311733 9.340919171763698
Se 6.618868840913776 11.228077873576987 9.543830714506884
Se 4.826128320841367 12.126421312530558 10.77393963077899
