23
Energy = -78.13560361 eV
Se 17.92800879242672 15.807889734478742 14.082031570388828
Se 18.381567397214393 13.125904540144914 16.272369670954014
Se 19.4069191464657 12.406571828499242 14.464835910201575
Se 15.886074870907954 13.75717360327278 9.844910681935344
Se 16.094605353111767 10.836603810094319 15.075168475554038
Se 14.528085333701314 14.382754691331261 15.053750157968212
Se 19.132381147045308 14.40218780760249 12.763786864111179
Se 17.69003513752158 10.643936558943318 13.477142381881913
Se 14.306914976616701 12.202503226502325 14.211164108409445
Se 12.639789748461785 15.485418135422902 11.31327562270491
Se 15.620886517370797 15.653159352632345 13.412277496096037
Se 13.754489629538043 14.091614121057583 9.343867484941304
Se 8.974158294993725 15.277231125911156 11.34771484401878
Se 6.073423226920452 11.772391060764516 14.224103924663982
Se 10.957415497988206 14.55876240840839 12.549214916428872
Se 12.698763057957372 11.768885077385061 9.11996197948679
Se 10.603125227179639 11.409422761559469 10.05164835861477
Se 6.058683153279293 13.749633906551848 12.988279122410049
Se 11.177581650240379 10.63231449212006 13.904318638326384
Se 10.963162461707267 9.749750410992078 11.721686295514637
Se 7.520114859551076 13.479953847216182 11.103359786254504
Se 7.915045984920404 11.813062874230111 15.735599354469302
Se 9.25201619986607 9.979154560718477 15.138191000349059
