22
Energy = -74.07946614 eV
Se 13.317020823454488 13.701326097233398 11.425557231768789
Se 9.441313592122778 15.282754323769787 11.283006965643308
Se 10.521733586385935 9.741526417895612 10.34394766634642
Se 15.01130277839992 10.888102599122696 12.990186308459592
Se 10.97119541637578 6.7365269326841375 10.483158195894088
Se 11.81571637605001 11.778183700863536 14.370301191435805
Se 12.213118470856697 12.594296444940534 8.153581805519654
Se 6.995364573243168 13.004043099924841 9.690856874102833
Se 13.66378532125013 6.4295254961210375 13.040888411254835
Se 10.795153178578467 14.456556409946476 7.7315851075064845
Se 13.139107088011816 6.175010936969667 10.657129827864454
Se 11.724494302312154 7.504537068658942 13.752092913320928
Se 15.539416568659835 12.113947509200914 14.854461687659711
Se 9.428584511574174 11.228616306535526 11.888141291507964
Se 13.30014317634862 13.364454341037241 15.167388434362223
Se 10.664918809640863 10.807138988228727 8.19523776270733
Se 13.708342636875669 15.037418756132311 13.282877316433643
Se 10.742575609665721 16.05837279917568 9.467450263823155
Se 7.164004004269682 15.142567405229753 10.686069549544337
Se 7.116182323622481 11.403860511457726 11.421651388442621
Se 15.298148806164217 12.404582105665495 11.168286948223406
Se 12.299943068582829 9.301737297965177 15.118133572700849
