23
Energy = -77.24467211 eV
Se 18.329044697179658 11.95385345161417 15.646555186198377
Se 17.51887121962915 13.895628224506412 14.416552940877114
Se 17.94601729597587 12.601732401616795 17.857510587650317
Se 15.928914645839347 13.256865227610843 12.964017208277827
Se 14.214846337031657 16.0722124012419 16.956902599442202
Se 15.985651296807317 11.5319895929661 18.669236526326344
Se 13.728769197960135 14.620197357819267 18.728142939771594
Se 12.132580179522629 16.254373551645315 15.815531921836032
Se 12.791637586962613 13.24785640728742 13.448679109547818
Se 12.970512822277733 9.654699015350046 11.282850737173707
Se 13.888874506129604 9.42250144427935 13.308044471765577
Se 13.130718311903344 11.902389839861673 10.487562618814122
Se 14.086270810142612 12.510336037411319 17.690272216354792
Se 11.609193677520338 14.00728257171202 15.332241914475647
Se 11.140711720329872 13.125623648190645 11.505510263755507
Se 10.098002891614437 9.214639128688379 8.524762046397045
Se 10.869871787639186 15.030001259585863 10.40169474384993
Se 7.269985068084799 11.475011358117653 9.333462084411076
Se 10.219474578116621 12.660483495303273 7.278823650601205
Se 7.753446590285547 9.206100242593646 8.653884653058187
Se 10.632088737974959 10.384676009866544 6.561866047139947
Se 6.39855448989721 12.515731333647127 7.504828839323492
Se 8.353329192832229 13.336162542420091 6.162365904014813
