20
Energy = -69.33943587 eV
Se 11.943504517707863 8.868230365292218 6.250838998156775
Se 9.41399156779119 11.594588846875151 5.27403932737877
Se 9.63807806153617 9.385300818089616 6.080735247083294
Se 12.722397031910543 9.337849295321211 8.434189203257306
Se 13.8045280407315 11.43751927156455 8.341014971800613
Se 11.201176701784673 14.100817220307762 7.5278622415938425
Se 9.125528024469888 13.046445705462 7.116408147231797
Se 12.316618359608697 13.005592692415336 9.292143030304695
Se 8.86261601427195 10.282319815199001 9.284441431944915
Se 8.602933964855298 8.038132528816368 10.057107590896894
Se 8.90356068132835 11.71080469366658 11.180591592592826
Se 6.388496379513921 10.149296604187796 13.432294794274844
Se 11.647938110892836 6.758888903193001 12.004055464696078
Se 6.713314565916674 11.99528390767809 11.98643300412394
Se 13.250457128423196 8.499356683515867 12.0698948579487
Se 10.620913415292323 6.817851449585417 9.88063026208762
Se 11.938134993014424 10.436086162598233 12.379544168776187
Se 7.6661283697082885 10.54524602590826 15.374712413328325
Se 9.620560399747049 9.233471294053068 15.202279388440648
Se 11.477290502591481 10.61508454736664 14.688950695178786
