22
Energy = -74.54928666 eV
Se 10.948744262147539 13.499911410677887 13.281542604796938
Se 13.013962540459408 14.558594521461815 13.21433144203329
Se 12.12831690646361 13.249155113370968 8.63338644617564
Se 10.482811970460755 12.308550980110722 15.294147276654355
Se 6.533235276488331 14.286655357342235 11.072214539144976
Se 10.015768788986902 13.838180883615415 9.611828462088223
Se 14.497858828820299 13.2438013404498 11.811051526560522
Se 5.85203603883038 12.1571622600018 11.064907932572092
Se 10.836969884426102 9.993937616862803 15.051596118138031
Se 13.140057849948679 12.004554210810959 10.376580131019026
Se 6.828579923746818 11.887950346945836 13.343685046687822
Se 9.359211077278895 9.22893321121953 13.368645822904666
Se 11.885320217447312 9.637941289592098 7.601691375970461
Se 7.586578146968685 10.840170109765573 9.691886061816703
Se 7.161781841635361 9.710804319911649 14.127540117151524
Se 13.861752331444677 8.355938253317031 7.072859995970879
Se 9.415030594487696 11.811222078371907 10.699777307135472
Se 10.167816455358926 8.024570852456138 7.069859073704077
Se 12.23001772932975 5.946422653749192 5.480634482747532
Se 14.053385996350608 6.783254169791041 8.694062398970154
Se 10.253466526152039 6.428156426565333 8.676563190467768
Se 12.294172094032394 5.095968851842896 7.503690538641782
