21
Energy = -70.04793882 eV
Se 17.676835118178264 12.553407008787424 10.618196622655907
Se 16.387171307317306 13.8203308495339 9.347883530229709
Se 16.001417620604805 16.04843252914951 10.510037980353863
Se 14.752513986939192 10.943892649755636 10.985715142486955
Se 16.514273509253446 15.453451739180224 12.707899196785316
Se 13.959388576873875 12.746696322451452 9.893367726700253
Se 15.20572852588197 11.420433017499453 13.309020934314647
Se 11.364317227013963 9.017667239384163 10.124555040013812
Se 10.895433835298972 7.279886981473156 11.785352842606189
Se 14.636435776088515 14.718594709145767 13.760304725197862
Se 10.456476278886447 10.963466579242862 10.954370969861891
Se 12.917432557848063 8.728187411059416 14.858618240269204
Se 10.797577584332396 8.374527630774526 13.827362375553864
Se 8.280316620740827 11.295852624633323 9.828584158578657
Se 13.25928375206464 11.053496297895153 14.608487110138201
Se 10.74418488122695 13.658458282893333 13.783835847916171
Se 8.364509826834535 13.397528695382054 9.08844664918952
Se 9.069674130538647 15.091325631202272 12.590642723274115
Se 9.358586287343746 12.6750402506702 15.350780523797063
Se 7.468814454977713 12.184729532765338 13.976256457055205
Se 7.167087777377849 14.54424266625018 13.77123929178339
