27
Energy = -90.49903622 eV
Se 19.308225740826686 11.725350503118587 13.060569449432204
Se 16.77352629275635 12.01976848622204 10.066413170291911
Se 14.781062297517597 9.40543488345059 16.156865525817107
Se 18.007130386023718 12.671634520077024 14.617356476878614
Se 13.054247464897534 8.577602193765369 14.778583108490363
Se 15.937725467545405 9.782819926142182 10.833371585227423
Se 11.051643772688285 8.936632991539993 15.968159745828675
Se 15.026956676075981 12.967873800869935 8.937933797226888
Se 15.68915697020714 12.40970499086146 13.932555400757025
Se 13.695825320989124 9.807399538050282 10.453605336195878
Se 12.778103576841099 14.474792583632752 16.49410539584293
Se 13.86725092047821 14.219116901644329 10.67286360515007
Se 14.68680299695171 11.785830267921707 15.956326249574765
Se 5.988887117604792 9.516789523579806 10.103444397228504
Se 12.837736081103836 16.33262287574891 13.178522844506665
Se 7.456193128156398 7.989022552635498 10.708523763219869
Se 12.64738611777237 11.05503748167855 12.259700449584995
Se 11.910165301531272 12.9614631912331 11.061225077589066
Se 7.159895096821815 11.753325955347313 10.709807702967618
Se 11.489336569095427 15.019401298561538 14.754906280848637
Se 10.178819875921269 11.063530464657294 15.31809104476965
Se 9.074525256282616 10.927245867289512 11.592603942807399
Se 8.360058635016854 10.638254943478735 13.947372244328104
Se 11.359758438472626 16.6475535037825 8.44212354860651
Se 11.08651753024481 17.492913309150335 12.138715517586126
Se 9.896836551298263 17.482578693879773 6.980131799394298
Se 10.11670028304874 16.129600045345438 10.486871380951332
