27
Energy = -90.80969543 eV
Se 16.361324776781963 9.304249512808079 9.58409090594256
Se 13.600163733073488 8.689616709131613 7.287239462220947
Se 14.954283569378616 7.537466833947591 8.814431304747421
Se 15.253170701102283 13.545360061203553 10.619692087679558
Se 17.13658508155528 14.123691724619082 11.625123609492727
Se 13.402288240249515 14.791791049879054 11.857665724198325
Se 12.022921553174502 9.963408754830729 8.551938245246294
Se 15.985860730756654 9.523687698446038 11.880739569384398
Se 14.001720446828646 10.74137763810721 12.393172011919685
Se 14.632008714351754 16.09108073533232 13.279224849250365
Se 15.233294174659733 14.776583496323946 15.192142779637509
Se 8.15863138823331 13.87265383325899 9.500686041514452
Se 12.770387372718844 8.917525299558731 13.311530948343332
Se 10.022737023432683 6.916062742819268 13.837025451563365
Se 9.226248001724546 16.48693879280901 11.898075727608507
Se 13.398669941159032 15.001141670793851 16.643761558191077
Se 12.184373765488367 12.980721635124315 16.511713759777365
Se 9.167558248247037 8.054743678470881 10.262593136818456
Se 7.314819658435835 15.645487962595963 10.771125320162685
Se 10.4098510480778 8.840851504157829 12.756292055664426
Se 8.843519063832199 16.102625081212523 14.194602254051198
Se 9.890566493726274 9.107659000520483 8.148714452191465
Se 10.78428202789546 11.750801111058639 11.082767037273626
Se 7.289749371053555 9.190851330612476 10.76130860453181
Se 11.098289735483363 12.934722933088752 14.404667533300195
Se 8.525905579051576 12.063306938728903 11.091573714722086
Se 8.90226069677685 13.776778338428873 14.60192107959564
