29
Energy = -98.30736464 eV
Se 15.26698205502652 6.558837669268616 11.413834999796643
Se 14.234424416559117 5.373153190845336 13.184533066594529
Se 11.13141476434017 7.171127778438269 9.936562709341528
Se 16.51772480678261 8.279991093080797 12.438901602956925
Se 11.921794096688403 5.669636705607199 12.978152414651442
Se 10.981316496125633 8.847956501813572 11.369389403176593
Se 11.711353944248115 7.991932959532124 13.661385138708495
Se 17.34356439454423 15.798112786253398 11.435526270363967
Se 14.581119131634496 11.361429514510537 13.794093770609063
Se 15.681888661370834 10.427299550780758 11.927043884179392
Se 17.754658399498876 16.8716637759241 13.353727937251616
Se 15.302254600648999 18.676090914980957 12.805264156710411
Se 13.80449722195467 13.839150213409557 10.63178894264824
Se 15.081061212697781 14.623831600632679 15.28685107118096
Se 12.481457649132471 13.650213847240845 8.660766310467558
Se 10.365699430894118 12.932917566450378 9.40319400328348
Se 17.239499672440264 15.39040735643295 15.282445886484219
Se 13.272428926145878 15.82574032108338 11.716111009278293
Se 12.284040023789029 11.700682206977154 13.146342534709545
Se 15.035030796338825 17.415119518616734 10.997752984033461
Se 9.043044269606515 14.887299038806084 9.433002206246629
Se 9.304161031096186 15.962925803225266 11.520478271849695
Se 13.749558930415569 16.168900299098848 16.65404892827873
Se 7.340484183714342 15.522576035511483 12.761641463157451
Se 11.76102362786733 16.258390495752895 15.50240993421067
Se 10.943922171091888 10.484855267938354 14.550517882280623
Se 7.710237241519837 13.696997048173333 14.197884698593697
Se 10.722741079387621 14.229765101521243 16.41858007511081
Se 8.448256607992654 14.619496917612288 16.270236849683272
