25
Energy = -86.38126852 eV
Se 7.921531815767941 11.540457613481138 4.870046785592524
Se 9.253404595530249 13.497936142826825 5.209375892916587
Se 12.203127984888642 7.04272724256541 7.233178519255208
Se 6.708054702758 11.038509869691097 6.803651571584516
Se 10.502686523712182 8.519458954627298 7.989947511174511
Se 4.909126907527612 12.521864233037705 7.200157867344461
Se 12.173460344005475 11.9829440601744 7.250745110922088
Se 10.298902572203145 13.444505842133141 7.284515969655721
Se 13.594692542840113 6.580058168547569 9.059801213279387
Se 11.621975916165312 10.37849997173829 8.902508046390507
Se 5.80523652082074 13.978824746771688 8.850808715827068
Se 8.186996486079702 11.539646772414718 10.294853428133631
Se 6.063867171001864 12.55968012823768 10.695659689080841
Se 12.711959949736617 4.768524934580967 10.320138508911757
Se 12.908893630261234 12.701706488644163 11.158554689625886
Se 9.419331641086872 11.80350381337684 12.285112393097927
Se 8.948761327269507 7.941167013197627 12.457520595518533
Se 14.291124215252566 11.744411992001496 12.812209602334395
Se 10.958936359600205 13.604437002839584 12.16619888891712
Se 13.602221225162053 9.485108526157806 13.047671110910585
Se 9.657430797633742 5.700505171925185 12.479147973629386
Se 12.028928260716594 5.5689629490461074 12.42247786896675
Se 8.934239224218611 8.485695856015404 14.771655612096698
Se 10.517464057562101 10.191565759798603 15.148352821473146
Se 12.715420823791414 9.317072341760703 15.223485208953056
