27
Energy = -90.43261397 eV
Se 15.550342208695685 9.12076202040191 9.71858086835134
Se 10.353007836032566 6.240475215715646 13.005070939011295
Se 18.355224204317956 12.309862006682119 9.477666849620993
Se 12.665658239352421 8.900530971843647 13.698120821848477
Se 17.474271823836048 11.930802343845176 7.457583352218136
Se 11.827056979500862 8.359430726518692 15.739563908780195
Se 14.46581722386343 10.444301061161415 11.122000218731344
Se 10.419197818470115 9.515550031977586 10.852818394198286
Se 11.014165254592813 10.56695032402023 12.878510046155716
Se 10.093761758169252 6.61843276974958 15.187908741336958
Se 15.374683784917137 13.125692895519089 7.183637902816543
Se 13.702056505301899 11.514074214705447 7.619275643657345
Se 12.881916903936586 11.88982345660089 9.748693955142963
Se 12.827219723348028 12.468416966708022 15.196847533224382
Se 13.252348016853649 14.46245093764882 13.984719803926968
Se 7.980036015870049 11.593046276746028 12.424008665663004
Se 8.762448823819497 7.9665840470529075 11.51075066764856
Se 10.856629971814463 14.389770136176885 7.958457657680132
Se 9.306364598560105 12.82888853817473 7.296064459666241
Se 11.317410749371852 14.706375236087796 12.607682443504288
Se 7.086146548689416 9.523397654194213 12.479117091356358
Se 8.55912809273041 12.181506232096657 9.588723439933954
Se 11.212583004381301 13.174413188240237 16.782716135947247
Se 9.296506116427263 13.332004439561967 15.387454798031694
Se 9.544254399426487 15.651101239874308 9.696605703684742
Se 9.673980789217136 15.343285666900853 14.20495253520761
Se 7.619389345292808 14.36770328873294 9.696205345218322
