28
Energy = -95.17111525 eV
Se 11.933635765422787 6.279925715542933 11.64708509827789
Se 14.34397407664483 6.471374890718923 11.257981416619277
Se 11.908108571001732 5.5711889489849336 13.854512977790671
Se 14.361782717827795 6.736228663008122 8.948561354595123
Se 12.081447041203345 7.504621307668119 15.248924701010498
Se 8.518180577223461 7.709244655112858 11.389260559187075
Se 14.496160178106928 9.685790387370139 12.2055691470887
Se 9.748098854720755 9.395889307725747 10.17021216149631
Se 12.989970229504948 8.780681898091169 8.523283538712288
Se 7.412661226599105 8.738700284123837 13.215384320083606
Se 9.93322049438744 8.052475645162593 16.01745902653666
Se 9.06048721650228 9.715153655400883 14.56912647947352
Se 14.537796960815752 10.1771706188846 9.644404517702101
Se 8.842347126697906 10.763470197406448 6.816021186748006
Se 11.308518609921201 11.174087166333948 8.25919350904274
Se 13.162943056255822 12.147638061710873 9.505515771635944
Se 7.6149418427838675 14.659600879272356 6.464913571367951
Se 12.230648339935321 12.306510263626874 13.871606350846134
Se 14.35701251939601 11.912273762262835 12.854861651250529
Se 7.881322980765168 9.69680036766281 8.58312643422404
Se 10.60909917528801 12.807233767005727 12.251829208985022
Se 9.613310084969166 13.861227752990601 7.280119332684277
Se 6.109342987431447 14.74123528987118 8.410855180184406
Se 12.088276078988 15.25279891134511 9.79857018231245
Se 10.719066507944682 15.935118786451048 8.045950323781916
Se 6.161251059055289 11.13392792408296 9.709894080039353
Se 10.779656790887502 15.118183046758261 11.807007479919267
Se 7.0437643984300475 13.29744122654473 9.952281051291518
