24
Energy = -81.31372461 eV
Se 17.06669938801168 12.466757801434358 11.431842646411498
Se 16.575659301080485 10.84741991506146 9.893372042407384
Se 14.966956409688953 15.267730975538996 9.9179917900592
Se 13.19913553105712 14.51290008898427 8.616523532601992
Se 14.336904106678055 12.74013781183347 7.3667115958546
Se 12.848630099759848 12.120047923509427 5.713608054249107
Se 15.102347603493714 13.78135766637809 11.77399559184215
Se 9.212908139682765 13.364878587638087 8.170782251049904
Se 15.118100702023515 9.293383638693486 11.270920667750929
Se 9.929281784634746 12.913989278152632 10.397100208370489
Se 12.461687583487219 13.245956354209186 14.576940784817467
Se 11.43650531316271 10.525778365811837 6.813272453463483
Se 14.919874404329233 10.243838796826449 13.253230008086875
Se 8.243740680655105 11.887759218381055 11.64971976075548
Se 11.283309320856503 14.526318261370692 13.160365923479748
Se 9.128527441363197 9.59711091813466 11.586137185767194
Se 9.26661255430924 11.415074214267408 6.841763872593242
Se 11.700978192733134 13.719475069680778 16.849562650549135
Se 11.21962846110664 11.597794412313656 17.698870296221223
Se 9.222407519266913 10.351185015879064 14.847134829690065
Se 7.434291675986844 8.056098421760469 11.553367248542829
Se 6.838702994956065 7.792230667197469 13.93065746847805
Se 8.979735895495535 11.184091367975954 17.052126940756484
Se 8.911237965522847 7.981532083685807 14.93292483614592
