29
Energy = -97.55497573 eV
Se 14.350582257836571 16.757266525574774 8.49756534027703
Se 15.364474613278977 16.076662243385584 10.345142611333308
Se 14.512501924320262 11.098755730220722 6.741313489472764
Se 16.08580765775647 11.917953548723291 10.113844768541659
Se 15.61793899449379 11.59102401999289 14.825463412647148
Se 14.476204635695938 12.606128676990192 8.540283601004777
Se 11.87837806450615 16.31533183690722 8.89938432673997
Se 11.634080067135034 17.45912052181234 12.435550179671898
Se 13.192423022934435 7.664807912289453 7.863582101431462
Se 13.697718972978802 17.56557074892152 13.56242405429193
Se 17.556908218635773 11.218173620954236 13.831758700490573
Se 11.865650577071692 15.511836258670124 11.03745692359757
Se 15.127051325270202 10.157183709412523 11.419986045857561
Se 12.566897056977446 9.685210287819569 7.125938737757136
Se 12.97467599112502 14.492094960904891 15.643420553723463
Se 13.272060203894817 16.853501386779776 15.767119088364865
Se 13.834229706580913 11.026866805226113 13.095206741995497
Se 9.563730236732946 14.455199351334151 14.006726142454653
Se 10.855185381534161 10.521352850788164 15.574890715727632
Se 10.729839685394055 14.188460130521626 16.136025172491998
Se 10.423245801037819 10.208468481797292 11.403080391006785
Se 11.712171044636875 6.881634170793031 14.41846403578169
Se 10.822542285625538 7.937467827761054 10.869725872571065
Se 8.30811817403971 10.910980083506216 10.695111456579726
Se 7.533346227264475 13.508342679596446 14.61699695877603
Se 10.679881519362905 8.323449089759409 16.072514444866215
Se 10.096322921486184 6.669639268713918 12.73285659434512
Se 7.758249081100628 11.123569174696543 14.437343334458268
Se 6.776229401812411 10.372803330533227 12.45343442419131
