27
Energy = -90.43348894 eV
Se 9.592435317961321 10.722063714751542 15.730669356378526
Se 11.251088061670394 18.164727191875762 10.587200168888678
Se 16.099693215111767 10.685454736039983 10.278179893683173
Se 9.251877171187799 14.35994307805419 13.53573531268084
Se 9.659206839560008 16.529414647725563 10.538059398086766
Se 15.630436639232396 12.460792301106874 13.852520524104632
Se 16.419015377171096 10.419786874197579 15.075086248228372
Se 9.315880739027794 8.962946361666429 8.46663618675386
Se 13.332302338969782 16.953246027017343 11.34477774802788
Se 11.406931543027415 14.634756943755011 14.545535485102452
Se 14.7843426845454 12.716039347608415 7.437196844936215
Se 8.661576496820002 16.464065979651878 12.737873537275862
Se 13.778887707132997 7.944848943391547 11.29356342155635
Se 15.837490871500519 12.901665449393915 9.554323990740206
Se 12.693914641609538 14.874773917579104 11.826895371648945
Se 15.136189810284307 10.116172089696603 16.87273928782536
Se 11.380048676106295 11.671526617999975 16.8059570676815
Se 10.368170843469743 7.124080211708285 9.81966100499609
Se 10.956711420901714 14.006020334192288 16.827907888063386
Se 8.809745268628065 11.931990974811892 19.21469138763986
Se 11.428355000468445 12.038344228082751 9.13211362625851
Se 7.828700866144293 10.854071587718824 17.554521771409856
Se 17.42698750026015 12.844673173264077 12.54477177178761
Se 11.006849193828383 10.162781431418665 7.569497179680251
Se 12.602926157014933 7.255033236641301 9.31712888995956
Se 12.533520725750469 13.480484821907458 7.714940622071278
Se 14.118056511543891 10.252837459529816 11.543655344999587
