25
Energy = -86.41897505 eV
Se 9.557190040516366 13.865687378495164 7.739191433422242
Se 7.390935240659645 8.47503152670373 8.015558033035385
Se 12.58251479470543 7.857340283799687 9.05089557159021
Se 14.634837923202744 12.394909669495647 8.271388050916547
Se 6.8013495290537245 6.481841945864279 9.153175614690388
Se 10.94956848081525 6.385160404243208 8.149261323250666
Se 10.784542014240756 12.397018464896272 9.10913761319197
Se 5.892546816981632 10.154391333905172 8.732880539121782
Se 15.233388275177429 10.302545206963808 9.150610309608462
Se 9.239134903600572 15.779474374084735 9.123959145382628
Se 12.910431475885447 13.335571025497346 9.574142359368528
Se 10.150431125141719 4.941182312231709 9.81687242120962
Se 8.38944510631953 6.17598406456084 10.853494538451635
Se 7.026327146069955 11.749943563901537 10.060092296262582
Se 11.292206677633192 9.27148726871272 10.437463695325881
Se 8.300872101567226 14.99875720850237 11.13096372386965
Se 16.217931722329688 10.840715354637467 11.280131506540318
Se 6.6063653864253995 11.169366608572153 12.318626500630844
Se 15.393404690761221 9.25618077223201 12.768712760096328
Se 10.049016573679996 15.041520285728598 12.73879869708435
Se 11.767723001366397 8.392698755223586 12.586695386744719
Se 11.11058927471285 12.942424850250855 12.89188937880257
Se 8.606574773746093 10.098449363580862 13.01022247218167
Se 13.246651782886698 9.930026650909104 13.577591887989279
Se 9.762010531797882 11.658280716283828 14.35423413050822
