25
Energy = -86.23938664 eV
Se 10.46739926849696 7.857886237391464 4.9963936478383735
Se 11.083339661746894 10.10398381265568 5.053436595870467
Se 12.905955059181709 10.261717005457559 6.625557539923731
Se 9.346666801700056 7.100236623339066 6.943950770331893
Se 7.084830151889133 7.844700984194275 6.977188104450303
Se 12.447308377804404 12.348138464017298 7.580400066151242
Se 7.966109464372625 14.549712329340426 8.288400897617661
Se 8.688883669272261 12.328173746040141 7.993697070945835
Se 6.865613731442698 9.197737413372534 8.883598605350066
Se 10.719501998111376 12.049836306079174 9.171282888880757
Se 11.477566184137398 7.698771125063878 9.531710155014334
Se 6.519948252076036 7.625858092311579 10.632867950504885
Se 13.209636023409661 8.694242372300165 10.890702945896086
Se 7.243814920047624 14.542668125549348 10.54706425120938
Se 12.020286910274805 12.082497324362075 12.834796099432912
Se 10.133891009401419 10.663718810693359 13.001321335503793
Se 10.86617937319525 15.501853025398049 11.736418159420252
Se 8.467234831285706 7.6977662352637 11.952453330243301
Se 10.137461793295937 6.36562609321305 10.895547680753769
Se 13.938973448402914 6.937359590528386 12.273023286929813
Se 11.399682470909086 14.207683881463394 13.652029176700022
Se 8.601670432908502 16.123345533549795 11.657970684464445
Se 10.350625764963942 9.655813245793109 15.133902073063538
Se 13.466435669461392 7.63782370519415 14.470759961233744
Se 11.119497326755697 7.451362511971489 14.804039316813425
