28
Energy = -94.60493869 eV
Se 7.912788113008706 10.719644933498472 15.245840200691712
Se 11.267431303947594 16.250179012667964 8.157079832382976
Se 13.517127268622648 12.133402064262123 12.44061726883559
Se 15.374843699490578 11.07371860874922 15.778461598020261
Se 9.446126700374847 7.32182134791392 12.23116931015085
Se 14.548874668340112 9.9973447773064 12.532223371715986
Se 12.936247169279675 17.212964317534993 9.66891311066174
Se 10.03019236154244 7.604284288572477 14.564103625583282
Se 9.777873126472269 11.390666622495967 14.12132566955582
Se 13.143868290895917 12.917286022422761 8.255981515460682
Se 17.325389502998462 12.267831125856882 16.93980464715977
Se 11.79438372408639 16.054860487947643 13.175272131686356
Se 14.561952375678596 15.934246748270743 13.764685025131172
Se 16.669224667706498 13.465554129084927 18.809628210328846
Se 15.31202478688777 15.203755883228917 17.946792390555593
Se 12.759537667220915 14.906062532940286 6.98990579699511
Se 16.195857173714288 16.16894129189473 10.475778426366654
Se 13.971657829595484 9.165530989220084 14.592712926290254
Se 13.736428006231103 12.788886191287352 15.357006386975039
Se 15.738399531751869 17.379785694358088 12.45796246834048
Se 11.292578140400474 14.148280827346 12.079145571148338
Se 10.569437597604958 9.138714854402789 11.268536335418306
Se 11.870503133360279 17.969285191844538 11.541776649136315
Se 9.279573508810742 11.039674236836968 11.777483037254601
Se 13.339975283471421 14.045388636226246 17.36356728377459
Se 15.045082191661214 14.083917527992176 11.355038532998325
Se 8.121035278670599 8.251583547071048 15.624387516280771
Se 15.294662261455404 13.068528690076345 9.176252473461497
