27
Energy = -91.46478766 eV
Se 11.970028126218283 9.099022187454167 14.327662622431717
Se 9.29536206977113 11.847652109240212 11.408010043695954
Se 13.13243654907357 10.34185967361138 10.390923376265665
Se 11.665447155689142 9.16693617048133 7.151225575461939
Se 15.550453546824876 10.740157990442572 17.60519177861394
Se 13.472026685653361 10.189117889163162 7.954678498952208
Se 13.053448789625122 17.15286512562468 9.932889596990332
Se 13.276599577317702 14.135171696979592 8.736755715733405
Se 13.13535742625712 17.218249581525495 13.883384839352956
Se 11.058230061295118 10.861070020873576 15.633384356030836
Se 15.950028937507968 11.813966134348506 15.356260343436315
Se 7.839048839375141 9.95927585245608 11.810642569356025
Se 15.57419315405122 13.185772608622832 11.369969804419135
Se 10.120384593541083 7.679239222434744 13.987300164533332
Se 9.371932823235365 8.197521435074854 11.799715349938749
Se 15.091007830926676 17.433528381005416 9.039144154093153
Se 11.759303535801063 10.396745233705403 17.830625908778185
Se 16.94238814324338 13.907316672991213 9.696107265843095
Se 10.93590662687722 14.72676562336497 15.31136458349418
Se 15.21653186004613 14.88275033104956 8.011284878889166
Se 8.806993104340487 13.899505329943182 14.821960590520414
Se 8.343360178861822 13.677877864472807 12.482273474705398
Se 13.36468836785441 15.863129853184171 11.973729764531365
Se 13.632143933151784 11.80970527064032 18.27831079851032
Se 15.286432941354713 10.782616815613618 11.107495689815556
Se 10.909842841337143 17.037874457096805 14.633297755854711
Se 14.46845004315435 13.45129595756173 15.15172638865246
