29
Energy = -99.11282997 eV
Se 18.915698000223028 15.478654056787981 9.74890695249119
Se 18.385143384717473 16.998898500867135 11.522419579033597
Se 17.644294044652963 14.588131957209336 13.779806019881574
Se 18.15086051445309 13.399837390452587 10.671216268461942
Se 16.117038158459877 17.202992829828986 11.514918575029535
Se 15.868749911295968 13.511675830537095 10.602049338161137
Se 15.669036960261979 14.954384638471339 12.885486581178373
Se 13.9975654710379 16.17387716980534 16.511381832032065
Se 15.912683947051345 13.192713588249218 16.613977152729376
Se 13.79995164213766 13.816362720414427 15.859620415784441
Se 11.854014805562757 17.786545680032933 13.764226273911529
Se 11.92820476071432 17.10249408829691 16.0659560077048
Se 15.598028068435704 12.117326552885409 18.73642260516303
Se 16.088489232900397 9.861411221452455 18.343064033803696
Se 10.831668026928178 15.984030488838474 12.677830427061402
Se 14.673553659105242 11.316768750066988 13.252764499600818
Se 12.586184496657518 11.92058564065468 10.009164874676884
Se 14.085199620122173 8.722938878076024 17.739523191824357
Se 14.328757648924938 10.113188149041385 10.924499428895581
Se 8.486332397162876 16.20152739931927 13.199684726059704
Se 9.00455653380207 12.790983703496723 12.941702334693783
Se 7.237082203920415 16.595807297653757 11.284930430971128
Se 14.186046328632662 8.272264813554852 15.449129129443142
Se 13.089514514082335 10.151808115398756 14.404620609834097
Se 6.789856103996134 12.986964992195858 12.052388014831562
Se 13.002810723665565 8.422488891059098 11.401703688102419
Se 10.716294499467462 10.665095276817262 10.190969453298713
Se 9.872990921130883 10.665117910544623 12.460227143966728
Se 7.137356405752604 14.398173838378558 10.24603391784048
