20
Energy = -67.74423387 eV
Se 10.512134801716824 11.937292948429638 6.21591446099427
Se 12.282678060775718 14.356124922730315 6.2419597870290255
Se 13.25547228195751 11.749877220655744 7.309552990804552
Se 9.736119150568225 12.520280862027564 8.175300138922461
Se 11.502239956557437 14.86761533067438 8.218254597443243
Se 8.051438988377146 11.571318028015764 11.997795429592829
Se 10.004563255211712 10.596638691725955 11.42331477424777
Se 12.511953537982349 12.2956773751776 9.298285549344108
Se 11.020644278629959 13.996097835648229 12.021975344226979
Se 8.895665541544288 14.018796775351522 12.622696998056941
Se 14.133835084704902 12.034473138440068 13.268919436219612
Se 14.307398139046873 8.850225027829449 11.953227762240099
Se 9.169796289225273 14.008543919578855 15.312630400640579
Se 15.327793821374543 11.000165381752295 14.801223680907574
Se 11.420444355467437 13.977948650964427 15.348646416313457
Se 10.615797813806484 9.051171473877112 13.277384465417342
Se 15.543377590554865 8.575338455531671 13.838107807262906
Se 12.151336611019683 7.73546688056255 12.171835694409872
Se 11.71801094159372 11.49776415462876 15.213934338378367
Se 13.222627647910333 10.742511074423003 16.672368075572834
