22
Energy = -73.17546749 eV
Se 14.680943740316314 9.735679312911211 9.12896419714595
Se 14.143711005934637 11.86324125518924 10.597649874154813
Se 13.203702214747732 4.984785099365558 14.312119047501216
Se 13.411752213728304 13.588667055796572 8.790247567935351
Se 12.163064699169675 11.268146308849577 11.440835104555594
Se 12.547897806135571 8.915350453619132 9.081501958396867
Se 11.348481534630551 6.134618203039115 13.91567124871256
Se 12.299258059666904 7.25808957861767 10.762396753072467
Se 11.812629009253062 8.48649411158041 12.882464505861615
Se 11.498212447464143 11.524628412848543 6.832539162281337
Se 11.127789051027726 13.091775157752753 8.78575204435369
Se 8.79628393443116 8.525951191846737 7.562491816062791
Se 8.687777241471842 8.988158084191484 9.794992905152602
Se 9.137184538425858 11.020994453280538 6.656023470231817
Se 10.671473122230827 15.200591597383887 10.501400781400173
Se 9.674212440548558 9.207374377550572 13.092358445332119
Se 6.394379616732504 9.105572063817196 10.558320724675752
Se 9.156804106120237 12.45863202782856 12.567433235844538
Se 8.902698649287613 14.799155527113504 11.881303019688508
Se 8.245313397690962 12.148475582263423 8.396624317387628
Se 6.925771564692845 11.898820462048086 13.038530184176711
Se 5.9349264282330365 11.36375853350829 10.947118993949216
