25
Energy = -86.21130151 eV
Se 9.50334721828023 9.7287677515027 5.355889346783061
Se 10.469674733694857 11.770009384257854 4.599147688676912
Se 7.30536946005587 10.15136416587004 6.102313900880837
Se 12.743097914602247 7.852859502462129 6.713423331085049
Se 14.021386404162676 11.243231519189088 5.57680931628121
Se 10.996364078550506 8.197185685608122 8.242823957654753
Se 12.085198009374912 12.488744759520868 6.148510492602047
Se 14.231417916442586 9.61782740126217 7.267937303620445
Se 7.311047464953074 10.313122870718285 8.456439111333617
Se 9.67504972531401 13.20702350793019 8.930053128793915
Se 7.392598979713236 12.638128768198506 8.892690308540791
Se 11.7608543692162 6.887228113628912 10.106082675855413
Se 13.5177466306093 11.489624804455724 11.545314030836549
Se 10.345092655387152 13.557081542793993 11.189926439339638
Se 13.907434211330845 7.736799996217578 10.541231258179822
Se 4.919451556947225 8.639656274160988 10.951298588779668
Se 13.910142645996418 9.33362123220402 12.314960120343564
Se 11.172877667263322 11.640017706188614 12.222429196649587
Se 9.691965798487928 8.606868135879218 12.497244951383543
Se 5.090470998672674 6.471592966401559 11.989021766432089
Se 8.870912996281957 6.399861335241302 13.137149303731587
Se 6.995431386972672 11.157646703698688 12.69530649342095
Se 4.868166174566198 10.1243783722556 12.759452667544805
Se 6.6404617091100215 6.74315343338906 13.730347834255594
Se 8.572806071026182 10.002570843977253 14.032563564006647
