24
Energy = -80.12313845 eV
Se 13.827465495828415 10.198044860424162 8.023624649727239
Se 17.90664149337241 10.291352470390212 11.707698103325145
Se 16.06300224887923 13.01586527743347 9.217022460712897
Se 16.487951076879003 12.518308168190591 11.739404804100698
Se 13.43997867877226 8.638183651523697 9.738860024703406
Se 15.498441430755545 7.693150762945546 10.354660748205374
Se 13.888744690761799 12.377871849796295 9.02758012339289
Se 16.27825824428592 8.83357572924577 12.324987944192657
Se 12.497871284173515 16.20494574713281 11.342871773019214
Se 12.456181058805091 14.669953824958037 13.011632323057702
Se 12.232619608211326 9.5243836561982 13.265541460592962
Se 14.529643292158726 11.810770115721736 12.501162270554286
Se 11.163026330345899 10.094824479979255 16.748027734250936
Se 10.056771851121438 11.726948193189013 12.13136301412748
Se 9.5448395529595 14.24197836356245 7.463649847594956
Se 10.20818876432276 15.409233422845615 9.512028332401103
Se 9.308374773521983 9.684588137225509 18.182229852632126
Se 10.54602479275414 8.978688626186756 14.6238239166672
Se 10.226400621757662 13.892709217550365 13.273270127983809
Se 8.009234325234837 11.510894693044795 18.32652289530857
Se 8.379521529215706 12.485832184505464 8.372217588435912
Se 7.82360026223177 15.829566418557183 9.768538515031306
Se 8.645432484005719 10.609959589042655 13.46490397756378
Se 7.038093897785818 13.70843173721552 10.101951061323621
