24
Energy = -81.3337574 eV
Se 10.839072427717198 14.768993751692562 3.6261958415630087
Se 11.452499076572197 10.011638361746002 7.2600081308674485
Se 10.839577760380683 16.221632465609833 5.329191042595958
Se 13.626702241294147 13.143260529723836 7.403803090365115
Se 9.355186041080227 11.095001287248552 7.466297723267815
Se 14.289487546966114 7.960102252547415 10.218162478055197
Se 10.322648467504205 15.02563499027853 7.381381973738762
Se 12.42034165793989 14.905987505294434 8.418706975656185
Se 10.659223716570175 7.136845328431633 11.060389215866179
Se 12.715570200557467 6.207753753763842 10.378925650422556
Se 13.00884341242408 11.18921395746501 8.578143919062716
Se 15.56890957092694 8.00596957391751 12.203268706970796
Se 8.481717287430625 10.599491508329168 9.57373602634114
Se 13.26681035437297 8.559473363221201 15.210994052917739
Se 8.957750110943536 12.652446901010059 10.83793675254081
Se 11.085491331017737 12.732381341059957 11.5410010085306
Se 14.661776220787576 9.637318571975854 13.644923043211456
Se 5.070378889889363 9.165553920962338 11.92224948092815
Se 10.443856378762204 6.768759335705414 13.377940648224893
Se 5.54837081013999 11.316978144866976 12.577284881312838
Se 11.032098996870227 8.768429470911778 14.479128361687232
Se 6.084108171346027 7.917568298718147 13.830385800851527
Se 7.813008452670477 11.05345660595475 13.304044659394902
Se 6.88482690261278 9.66603031136734 15.085029754103697
