23
Energy = -77.46552198 eV
Se 17.634484150819084 13.169650561351604 15.441162346915537
Se 18.969317421443627 11.222297688095153 14.055795502156323
Se 17.017566691687882 9.61797818955756 13.885637559153867
Se 17.83834882894851 14.694143051282085 13.787373956538536
Se 16.017268473664046 9.824993664580921 15.919626820989356
Se 14.331247984063603 15.9265975129905 13.122677494421106
Se 12.887216168658988 13.694997124627003 15.909106014427882
Se 19.208613115561906 12.246373054438326 12.107153552766029
Se 16.00563415455302 14.527850331251956 12.236998524551364
Se 14.123611784908624 11.588997116427798 15.304087691316939
Se 12.547319242597782 14.486010817095908 13.742378798898072
Se 12.571465675267168 9.795639272199441 15.795662107084974
Se 10.652295279150291 11.637687687107078 12.579800813115401
Se 10.466175398329279 14.529907769517276 10.044242068636885
Se 10.459234588694283 10.462344619596866 15.405439169870881
Se 8.23096610828808 14.827457323220742 10.13255437554635
Se 9.83944497427052 13.772096426824456 6.837112151526707
Se 8.655509874566178 10.296671442775725 12.647494400925552
Se 10.96383975766789 12.174524949480235 10.283348085953554
Se 6.901168754579828 11.760266827612426 12.125427716131234
Se 6.008303819358639 11.116308537234755 9.98884794128027
Se 7.7812663809105995 13.875585986839901 7.64442734757736
Se 7.575241919760287 11.464393450440376 8.335469970649045
