24
Energy = -80.55868952 eV
Se 15.456497456014644 8.84278618740155 8.264583056543522
Se 15.100824516381257 9.780367865182372 13.27564132181365
Se 14.409784064274128 6.998493055133881 9.143558749520142
Se 14.024492283972343 7.756070741536013 12.923001117866963
Se 12.924461136876952 7.83800929799188 10.800401725277146
Se 13.545860002860199 9.91062736561245 7.0247313405171115
Se 13.270641123147664 11.230398769108707 13.982684476069993
Se 11.712243781333274 8.826896161996109 7.658611386472605
Se 14.418180125078523 13.248850297333192 14.07784260367632
Se 9.197501846978149 9.403371281285219 14.381409936366078
Se 10.011188278221944 8.61364335474505 12.309192194913537
Se 13.131090370790886 17.780731617214332 12.876996296754262
Se 9.601534876398983 11.75108704328563 14.41295950621753
Se 14.43576376852891 14.309084013602753 11.959745758289621
Se 12.531968988023056 15.807563830809885 12.001046871663043
Se 8.231485915744024 12.767697550099053 12.828595077422356
Se 8.051813667522305 7.93037656574746 11.182254458564215
Se 6.854015272539235 9.914567765083651 10.599586184951482
Se 10.678636300245795 11.558319121422938 10.000837794829922
Se 9.878841553738129 13.350138452787926 11.082723707040344
Se 5.60500988500899 12.909519924669736 9.991695169219689
Se 6.988860304107739 10.18350946964197 8.259700726924436
Se 7.438389870776318 13.734599346340275 9.01971839110364
Se 8.588128752365275 11.84440095777415 7.89885767961419
