27
Energy = -90.7994422 eV
Se 12.305212885361808 12.800772662185231 5.876495763371612
Se 14.225887106292491 12.485294325798641 7.91201267667845
Se 11.043969876519643 10.545424378376081 6.705964743890732
Se 11.074483755646934 14.296999943594603 6.8979060545945785
Se 12.874315948071887 13.523155939804274 9.401703509798002
Se 6.026888667736237 13.207793204599206 10.008990646736224
Se 9.861881262893545 11.60531895080466 8.32881175383098
Se 13.34162694601412 9.21016202430708 8.598694211605034
Se 8.129259572492384 13.278960142378635 11.078872399751278
Se 11.407027018065678 11.785297102797635 10.26810487655575
Se 9.037019296912568 7.4386263567374655 8.686302495474473
Se 14.76927401354986 9.719449538864868 10.59126413024535
Se 5.066790990888829 11.055394159982564 10.288291263802941
Se 12.875001198542702 7.012670886836388 8.347639938958197
Se 6.200977139942123 9.67849502551889 8.780299821259314
Se 13.542266346018023 12.139312008917964 12.265991341545254
Se 13.163041556195202 6.340901688769956 11.909764519771167
Se 7.847905545394419 14.147336546408996 13.26400636815081
Se 14.352572794331863 8.307991584775982 12.432617670537095
Se 7.583073413438655 8.220676289133992 10.254304121959358
Se 8.979622466272074 9.56086184221152 11.945938901893127
Se 11.190193750208493 6.884246338702485 10.62225439456551
Se 10.872636766921316 10.181030104044938 14.428034264894928
Se 9.767546865685555 11.876805716996834 15.721705986576932
Se 13.152034401371777 10.947949509905005 14.175682708100233
Se 9.54851981175401 7.363958501379736 12.509304818072863
Se 7.701545913305222 12.271690151284638 14.696665454885045
