20
Energy = -69.14340318 eV
Se 11.118509478514055 11.315470320474967 6.017483188907828
Se 12.24928065204503 9.489575884362676 7.049542096549441
Se 9.55299132013499 12.037518713248383 7.584487074879838
Se 9.329093731456146 8.711891273670568 8.764628536122792
Se 9.883581872324312 6.422024839599481 8.449903892774419
Se 7.030797136062142 8.749063873232812 9.333445275146875
Se 13.944972745291665 10.460445983455843 8.374375696318962
Se 10.907972495119413 13.59357087780737 8.866515088382345
Se 9.592489457477699 15.453043653580986 9.261418812684377
Se 10.10451441168667 5.496531993358264 10.609120159995856
Se 9.709706184823672 14.2808884194598 12.827252810775045
Se 12.301440882389459 5.710559682860284 11.40361311646131
Se 13.086544623034337 10.836557762339753 10.545141523990226
Se 6.840173510039621 8.348467645890812 11.650782146073546
Se 8.20383206158497 14.84775201716285 11.129897008815172
Se 13.975314596179867 9.119804585059418 11.920489499730145
Se 12.312120938509837 7.687413568129033 12.733842829862978
Se 10.145734528684004 11.973783111666497 12.474520623038163
Se 6.686314123134805 10.41019015217732 12.789647120159863
Se 8.731117326464606 10.761947717419535 13.920395574288131
