21
Energy = -70.70443974 eV
Se 11.357083325418719 11.102410232822303 17.170233931349987
Se 13.574346879631687 10.856810058252853 16.415863081520214
Se 10.260157663968712 12.297952086026356 15.441947373123318
Se 13.518680059903868 9.347027728052211 14.595884605776927
Se 10.018439621106605 9.027834902182759 11.569465872188362
Se 9.276612053095958 8.842345315894997 13.812134615064087
Se 8.390058928058451 12.273871560878185 8.046997987760003
Se 8.126754699877425 9.037707626976559 10.149939276354678
Se 7.424867600499295 11.28020475326395 9.966168255397562
Se 8.51271788817981 10.870808612288565 14.722290008474756
Se 10.488021216089592 13.13659333786381 8.66148932435879
Se 9.9347479689321 14.460812074682384 12.082030804065768
Se 17.269975016244743 11.44690896798702 9.300117954184865
Se 12.144753582550885 11.696697128162079 11.937793094189185
Se 14.113033679484278 10.658911418960043 12.699455599341817
Se 10.069695327480389 15.14163289009233 9.926058712149004
Se 12.628877442055666 14.068872687473215 12.377035963259365
Se 15.174747661776783 12.701692906564553 9.870755587934532
Se 18.32442870733096 12.882882991849753 10.893379806008433
Se 13.335265477230896 14.934651516659981 10.413204699106451
Se 16.666909701639675 14.525088880864866 10.297505283053583
