22
Energy = -74.447643 eV
Se 10.532833800674691 14.488274207768008 6.642597265829425
Se 12.5091277505716 15.413883609434698 7.168297870548409
Se 14.27004241329693 13.725737573351651 7.27442109775233
Se 16.020263676372885 14.090305191629895 10.628248542786924
Se 11.503191052689875 15.777562701159908 10.075046878160052
Se 14.512106846245947 12.75574925247779 9.381452978872002
Se 9.582615613758767 15.014735257948988 9.269897440107323
Se 9.214750227210489 12.649107910119215 9.808622986591086
Se 9.347445864126634 12.766138057986705 13.595515661484853
Se 14.70096632662728 15.130493918044534 12.303359494411596
Se 14.777968175607418 13.704998754476357 14.138004095463357
Se 8.27919534916559 10.241015469929655 14.185924018732377
Se 7.974430464077219 13.03963297431351 11.826012388718434
Se 12.884792282047371 12.093460094951503 14.037922905400332
Se 6.6403185970247485 10.283972490756335 12.68962182815925
Se 13.79129464571865 10.282622240307228 12.13944944535223
Se 13.439690790636826 10.96269853182383 15.859873849702025
Se 14.960157075028635 9.11056275976014 13.67524730203795
Se 9.939460144304977 8.648686151860465 13.212846797254922
Se 10.247836316514457 6.973909297293115 14.774793260033947
Se 13.908612365396582 6.997393250684263 14.243997513233259
Se 12.318548541416918 7.34951045552657 15.909436121931511
