26
Energy = -87.67782222 eV
Se 11.3886237710644 7.2080190019183 6.1544465026374215
Se 10.150263454076732 8.139218980004316 4.336818703038635
Se 13.172186452991877 8.68663370181516 6.553528399116054
Se 9.163592026454277 10.10399783188742 5.074397633547158
Se 12.11648789635936 10.466950116539717 7.704252933568342
Se 8.900283089095042 8.35434847087538 9.187304961035082
Se 7.277754829651131 9.243946842717934 6.402900058824626
Se 12.992042702478882 13.246786612669236 9.595425729395712
Se 6.576608287989171 10.928031765643075 7.699858536240592
Se 13.509984841094719 11.372431297645322 11.178227385543769
Se 9.712029208038222 8.789411393463222 13.217275182243801
Se 13.656064328955148 14.915192874083528 11.177647060857677
Se 9.391936944045579 12.053298257104906 10.587626779710204
Se 7.615027261282905 12.987839954143448 11.800569564987324
Se 14.9261670281226 13.875293068841318 12.704777822726914
Se 11.017076995129933 8.094007410363789 15.001273562948041
Se 7.852152987279728 10.12770588498433 10.026455916709363
Se 11.399602184351874 15.33720881879198 12.720300997891417
Se 7.805296411662418 9.967332179726094 14.099131590327616
Se 11.860178492987792 10.011995797778198 10.010988584849498
Se 8.118703151363828 12.27627220989263 14.031560122417684
Se 14.091007235050036 9.236624780755704 12.787190943269325
Se 12.359598676116258 14.791434861819662 14.681576727642154
Se 13.294887684920221 9.135625279723628 14.917094388952522
Se 13.13133212805343 11.3683904803692 16.206874159690535
Se 11.409666006674136 12.735416831985424 15.604932994824582
