29
Energy = -97.74119688 eV
Se 16.859825394861854 11.653133562158574 10.541899561386243
Se 14.633120947195163 10.40592680418177 14.041631735302326
Se 16.319658905687294 13.159212253564123 8.821058759972251
Se 12.796336142685727 9.407225503924746 15.038421183277237
Se 16.58446198104351 9.432633860805254 9.660470817239274
Se 14.37923003514425 13.144609484512646 16.61682773393602
Se 12.152023593880111 12.775796291430224 17.344144034977727
Se 15.794707026756882 9.590534145650212 6.385971661528381
Se 14.292742001903337 12.762029072138125 14.304402881745084
Se 9.469283936199325 7.711433525527993 14.583415275014437
Se 13.991374955312025 13.375058906930898 8.865567278103404
Se 10.976989265145571 9.547169878863249 13.424373155374774
Se 14.344377319779023 9.033827444457206 9.847899548793228
Se 11.150822056986275 14.871893224484708 17.742957794449502
Se 13.799305818722647 9.422030694316394 7.327493405843208
Se 9.015080822578573 6.84405516417585 12.497926251827181
Se 11.435445822034552 11.817170102691136 12.306601324229788
Se 11.529847819772314 16.24277135090786 12.680212467424193
Se 11.141736131828079 10.89860484098985 10.221092456759619
Se 7.108650624003343 8.042349313501255 11.680239222770537
Se 9.711622902172598 15.434286516077503 15.953010521450448
Se 10.788195241538105 17.148023554434218 14.732086815988733
Se 13.160024552741993 12.12221714273414 6.894309736193114
Se 7.72091441987462 10.326458971647082 11.701271781144914
Se 10.985059920482538 12.60311248799411 6.933438013377592
Se 8.763014804990028 11.086343820143592 9.731694202952507
Se 9.793537506696808 16.593569949942754 11.150228753975268
Se 7.588705868794981 14.016701034551762 12.9578468057892
Se 8.62077550900324 14.45661259458011 11.022912884389168
