25
Energy = -84.53938446 eV
Se 12.838221540931348 12.492306043825376 9.012710843612563
Se 10.343606989517177 13.69842354254415 10.810729032054684
Se 15.32824962907905 9.705303358857911 9.025042798787414
Se 13.291835421441279 10.524959878916041 7.998981217105136
Se 10.81017417853676 15.870831791498102 11.616929372049583
Se 13.15789380355576 16.048537000068297 11.513398679141535
Se 14.902851186142861 7.439321386404703 9.645971037574931
Se 14.060591052289492 14.68709101455849 13.214336322700923
Se 17.810313916627603 8.110776572007419 10.918007334165202
Se 16.05675434831471 10.296503204754053 13.495451711668549
Se 12.347621345556275 15.257571237348735 16.522171994757695
Se 16.661716983064302 7.9738411096026365 12.80186679845765
Se 12.260877377504045 9.847927054527599 13.357730601602373
Se 14.178594075353464 7.366504675304441 11.788538759238394
Se 9.605713530573105 12.447327663627114 12.720224713876203
Se 11.316319718285223 11.942036669030916 14.187380281488108
Se 14.155703331430422 9.764547458715578 14.739262435114528
Se 14.237544979558077 15.900770017361491 15.235564152977972
Se 17.014825066749953 18.937242943009995 16.483660610590167
Se 10.768282783595316 16.982131162778863 16.210958213369526
Se 15.628976187850048 17.47338971245014 18.035742846617914
Se 10.910434722946937 18.37921402669251 18.105767915419126
Se 16.23312576742726 20.988194470724686 16.763952978020708
Se 14.445056417007999 19.08301422837936 19.15675540679759
Se 12.711728296674275 19.85924642702553 17.715876592826405
