28
Energy = -94.32205055 eV
Se 15.154693004990149 10.361127200924907 12.340022517082012
Se 14.293141460899376 11.658972708558567 10.758171791998409
Se 14.765999639488893 13.875787873565052 11.82685967424784
Se 12.62810026686744 9.459581925445919 5.744032627593356
Se 10.700921872008577 6.2327378817044385 11.740444077387478
Se 9.954464969124896 4.640094833522136 10.195590915416613
Se 13.909204980850973 7.758562162866562 7.1474990373833185
Se 11.791846417133202 10.230943225928215 13.137297687333872
Se 13.681636464392666 8.643992340743056 9.188989994474483
Se 12.00945374560942 10.88123866473759 7.337725586615746
Se 11.885954997762411 16.25079158819826 11.28361825902963
Se 12.235857231596231 11.735750547463473 14.827931968518872
Se 14.02644584679631 15.589438339429757 10.453695717838787
Se 10.4361321073009 14.363989176532096 13.776035391851682
Se 8.7891631494922 15.918867101639105 13.781177886044587
Se 9.731943825062176 12.396409544008213 15.319768659846362
Se 9.665580728154712 13.726592569744755 9.306794262785663
Se 8.913281263338751 7.024514979308396 13.102712716200001
Se 11.652250667653663 11.495204410331464 11.198600242725472
Se 10.272559159734694 15.931218727888755 9.562458427435493
Se 10.767926497894694 9.070124228864191 9.204020427272054
Se 8.886872136778761 5.918299460449646 8.471872120900205
Se 10.55254551565181 7.24993774026831 7.543804389540583
Se 7.256700328542935 15.156053085733852 11.876024268670196
Se 8.498121667620913 10.942121614424682 14.189597810110994
Se 7.436226400089588 7.843731686354677 11.447666670753838
Se 8.46913085253949 9.598401433439102 10.290022798448394
Se 8.175791705241574 13.194456519011554 11.26613158198876
