20
Energy = -69.28469563 eV
Se 11.624990226806974 5.178511645124502 6.634141921544416
Se 9.411237620284853 5.407952626602513 7.3942309086321085
Se 6.2835712936264745 12.704728724058114 9.345184967389969
Se 5.514068498319203 10.700166268075074 8.352310652248018
Se 8.774700516513152 7.607938790376806 6.784675348578915
Se 12.390569038828692 9.510960989845842 9.005754774904942
Se 7.906676364511077 13.635269047661088 7.890935091746868
Se 13.108824951591316 5.80827276630878 8.365815408763915
Se 13.825777505721693 8.000104717305035 7.887439435043856
Se 13.279241747630442 9.66951846763965 11.193597714263298
Se 10.073628247508733 12.90964308228284 8.449641790263508
Se 6.530564376722123 8.911314320617635 9.519470491087901
Se 8.780180017554994 8.86353308702994 8.784053485717495
Se 10.799028728331903 14.352547459130106 10.18750658773574
Se 12.117726784654199 8.144129449498855 12.567581562757855
Se 7.84395421788574 10.958188817918714 11.966061051671439
Se 10.728270011438028 9.437298903485951 13.993059033763684
Se 10.85577137702329 13.005146193681071 12.117121680739915
Se 8.446010107733176 9.22396611086239 13.520319779843168
Se 8.658916317321236 12.92451648250205 12.994806263309783
