24
Energy = -81.43455329 eV
Se 13.873767272035717 13.284720181640129 10.92477269031066
Se 13.264323032447605 11.953944676886376 6.086826895779719
Se 13.028271454695897 15.448310803389086 11.043640903063054
Se 15.129770329841755 13.084441171335385 13.140130458750257
Se 15.200062152890272 11.512765791410862 7.327730350727176
Se 15.988798412501069 11.032534346458377 13.163089347215731
Se 12.225239762797454 14.866643279673935 15.089658959584476
Se 10.734334490625304 15.39410536926634 11.492067396275141
Se 13.374552167738827 12.930651288259543 15.02391788321671
Se 10.065064827346168 14.26795094837982 13.768521740291408
Se 10.799565350944526 11.731938479753863 10.897559439529042
Se 11.45230509172809 11.291641801851947 7.439451366235844
Se 11.576283006557887 8.874407678838686 7.261303936087438
Se 15.372469514810088 9.10939178914788 7.071263600145324
Se 10.440620677459018 11.959824780984087 13.227724648096164
Se 14.879635363141363 8.22725864480735 9.106487197756852
Se 8.636549831120156 11.227811398071948 10.038395938034746
Se 7.23089001076884 12.397169534209267 15.573363073806885
Se 12.377329110101641 8.100524496210365 9.245441776720963
Se 9.380246452229706 13.132452126692801 16.100937626290282
Se 8.350949807387874 8.919030388587945 10.48796651026607
Se 8.310062901275415 8.79888800730478 14.247484005450666
Se 7.137171209054508 10.034970973811067 15.849233486212698
Se 6.904086691311941 8.647389597980252 12.305019559967743
