24
Energy = -81.30134974 eV
Se 11.470284522154593 11.29342344398873 5.40930016994618
Se 9.340404190669837 9.520557094173974 9.489633154977048
Se 11.784346397285812 11.914609160397395 7.670210170698203
Se 11.68043723681093 8.946044719259033 5.320459314484656
Se 12.208608046729378 15.894152620145524 12.479940488969302
Se 8.70976805721324 14.967662856233522 12.437862846792145
Se 9.610288753140233 7.550736049034514 8.334027672100392
Se 9.657505562524182 13.043845749941159 11.375363120495576
Se 14.01323607757373 11.284929660248178 8.172414913675148
Se 12.769202537770694 11.90146458950693 12.862915664565353
Se 14.131892721694443 13.505131389675316 14.127791069646406
Se 9.704943909294085 7.842690336717758 5.84085672921311
Se 7.987786182986429 11.398982135737075 11.206940126971425
Se 11.556045256688401 16.146706988113163 14.569059122311781
Se 11.774588582368642 6.415353672880223 9.07275564976327
Se 9.209794206163473 14.943625340871327 14.66704483846311
Se 13.948597553380164 9.475043055270463 9.677679595681065
Se 13.676199031071922 7.501467405797736 8.349992773253252
Se 13.148127807848512 9.788747963994926 13.585218881910745
Se 7.807276733149433 10.196606467400517 13.335407785664463
Se 10.27656579479279 11.705771089107902 15.16370527738914
Se 12.949476320693403 14.295430272297699 15.879898101306141
Se 9.276277915414722 8.484673205987244 13.44448667335561
Se 10.987583050526437 9.61244434355972 15.137497523912636
