28
Energy = -93.73842112 eV
Se 7.182660943252902 10.12270980822025 14.818456928896177
Se 15.529175737915754 12.67895847833624 17.082081651886806
Se 13.27470961393629 18.470282618568177 10.647757261400416
Se 17.288190010256027 9.04026450756806 11.753940460942445
Se 15.90437090176187 12.31241495740096 12.329192582230219
Se 7.547258116997868 13.458352553409984 13.385543297884777
Se 11.18844165585178 18.027703861518198 11.81763816679935
Se 8.170409193173784 11.49242484491477 8.14487965896829
Se 9.40474958017741 13.151170901108717 14.549051309638283
Se 16.411377168319458 10.712046628454589 16.59259382756585
Se 6.2509540856564625 10.467286023262407 11.211104643335629
Se 14.450620543819943 16.44693219395911 10.780840583686143
Se 13.585766633988749 15.161413316981502 9.00375417955113
Se 7.402078244036104 9.058436447970967 12.67130806376671
Se 14.207138704445958 8.305386545388155 13.386568196979876
Se 9.5520623181536 17.8470983570224 10.300809474170858
Se 13.034607942997443 9.961748668609653 16.660784497460455
Se 16.957560638492016 10.250748352206536 9.587636708070555
Se 12.992385878467061 12.175096733197707 17.12925705063291
Se 12.868064721959298 11.547780754406913 9.685314099673178
Se 9.275700432570176 10.792954443436184 15.462539234809977
Se 17.19463251512477 12.41852232528578 10.327743374801592
Se 12.016379657609253 13.70768283850167 10.051465897955648
Se 17.588958203168367 10.831623013859597 13.174932254680892
Se 9.873780478708866 9.868266308596585 8.060171368141962
Se 7.8196772224498305 12.076365787402501 10.430023749664128
Se 11.91821342416388 10.94784776339346 7.598327320455304
Se 12.781420843465575 9.833725897964362 14.17451766202389
