27
Energy = -92.06469058 eV
Se 18.55004450663418 10.16879922985896 11.503203405767458
Se 17.839732053628385 8.34851105912474 9.873478760488881
Se 12.511040109472786 10.765615779486913 16.53788823506427
Se 13.955197683764492 8.960597132528626 12.790334111809
Se 15.375367568020243 10.780856022242238 13.469153332515923
Se 16.640345733660794 11.43694166393547 11.563918613596295
Se 15.774858340396356 8.859134223133399 9.267858639141467
Se 11.103685721661186 9.452924147334912 15.04774222549528
Se 11.214861985924163 12.509215941527085 17.36446936482925
Se 11.965940106054026 9.736983955329453 12.032487775934618
Se 11.567070045514752 14.507263478655325 16.129512605135023
Se 12.620860583922026 11.10196622732943 8.99558490715852
Se 9.040020360369924 9.422116876653563 16.181348878046972
Se 10.503816396641863 10.6690959087356 8.056416837833028
Se 7.312916131633018 10.226481080809885 9.813148611891389
Se 7.819257435643092 8.968937308434004 11.75716326400139
Se 13.69368734066979 12.394531733658312 7.294913020943714
Se 7.776184330880172 11.040890397854815 14.997328959559116
Se 8.886328543207629 11.902674571966708 9.32402011419016
Se 10.131882964538228 13.79630406112832 12.720226541424408
Se 9.663101569247443 14.844009541205512 14.785548198725309
Se 6.465374719259435 9.735241074229334 13.534434728624477
Se 13.588160522205085 14.665460419198991 7.90460799171957
Se 11.749172338923609 15.671135849532478 6.8223766533222365
Se 9.852783820207526 15.267638659479285 8.181464061623068
Se 11.488676961114326 15.294950040669073 11.506929089305318
Se 10.1091846821251 16.606353184664457 10.10587835798857
