24
Energy = -80.95954472 eV
Se 16.683241503950764 11.186215706052383 10.047655769943734
Se 16.224440894047046 8.93794837700149 11.057702631993324
Se 15.637764877768205 10.91897855655468 8.014380221113313
Se 14.586873363273666 10.859803541222467 14.575274314402055
Se 15.048682166584985 7.969583563955086 9.333104444618982
Se 14.680902906972712 13.12014956832511 14.092599191166219
Se 14.207136692614146 11.715208013982698 18.335628442647046
Se 12.415776561397344 13.442701056887756 18.472613828022137
Se 13.636982889864159 9.79977501172946 8.70779303384103
Se 12.851642261386566 12.70535205092581 10.904902759746173
Se 10.788168645760326 10.095432752721788 12.56605030436601
Se 12.78381252617355 13.980282076394406 12.914651300477841
Se 8.831906267292664 11.359497098859386 7.3135504741730974
Se 10.658648335241287 12.91605223222646 15.497826476777055
Se 6.97683577043579 13.117144259334708 7.874446110936156
Se 9.139873885723903 14.479521902284171 8.453033248915228
Se 13.426505349050542 10.36479539790771 16.664372091658972
Se 9.863021918610873 12.298279235714357 5.553194701884981
Se 10.083862548584346 14.7215643477605 6.430486217116279
Se 10.764717664544131 11.684057604246304 10.730099377947704
Se 10.514134329876432 12.311918169964251 17.916940209831345
Se 8.689662075896527 10.325344247739583 13.483189397422734
Se 6.149023786278414 12.464765782497805 9.825231336881217
Se 8.650815246493355 12.573071396297648 14.480729149154088
