28
Energy = -93.86694846 eV
Se 10.372375916654553 12.970121541853759 15.464629704538478
Se 12.730624913820474 13.0207020784498 16.075578364329008
Se 10.422738855682303 15.505988931214569 15.15496132021796
Se 10.055560561439105 11.749596352919514 13.345756063016236
Se 16.321566912626206 9.739265126683765 13.393572544295576
Se 8.451931716309998 16.191382728177157 14.415715665480306
Se 13.73143339303411 14.404887963134742 14.547271558853696
Se 13.149444558408529 12.640624839503452 12.257364547973395
Se 13.653841253526968 7.098278508097911 13.631373411278135
Se 12.073499740298626 14.79224090851473 11.804181007850756
Se 7.789666154218227 11.216186585076303 13.663650068540097
Se 14.34936146704697 8.77222457921899 12.311941225067503
Se 18.00759839489677 9.559621987844972 11.78052562448355
Se 8.616161877691512 15.140662087978841 10.35892455305744
Se 9.630968044102586 7.9531975316306385 11.564347924502854
Se 6.615557857235915 13.121690572412843 12.850306289199066
Se 12.716700834691215 11.326641057232916 10.293902876947543
Se 18.4945449042341 11.721687153806172 10.95452088793276
Se 10.845568547867515 14.530986105295522 9.818793371576138
Se 9.042649927513098 9.979502426160318 10.5891990619675
Se 7.1233173005286 13.31130347094494 10.559016472329105
Se 8.19695596293491 6.384416626468201 10.20611808855558
Se 7.217852279472529 7.895168144035108 8.754867310786201
Se 13.724355204162588 12.55538873168039 8.480438154326013
Se 17.536925957383506 12.089000737126115 8.832050669799568
Se 10.20859302016309 10.122436662963233 8.547289744586282
Se 15.693391503806753 13.556516646701946 9.191240951630087
Se 8.839404900105363 8.499959033719467 7.1940949460875165
