25
Energy = -77.98752448 eV
Se 10.290672313044048 11.799064959517729 6.202840182025335
Se 7.611354828240638 13.072556693577743 6.910968658789649
Se 7.994190783257226 10.11705498305879 7.807703048701295
Se 11.516433266757794 11.587761405535574 8.058538646934029
Se 11.09786030552354 14.376084781940685 8.823436317673863
Se 8.219777532676456 14.034622851339062 9.063683670622535
Se 9.432235921896936 10.067027935975299 9.497985875969231
Se 7.88159239401162 12.104948649141695 10.992508452864556
Se 11.19097771593684 14.810295635198873 11.019383450205542
Se 13.669570340936364 13.256122358198919 11.348520735643369
Se 13.047778871127901 11.055554268338952 11.657114126730793
Se 9.248433927671647 12.983316154966012 12.648775700049923
Se 10.355919656904446 10.930086701065997 12.985979370163012
Se 13.727991845088685 15.010737308817738 13.538053530811036
Se 16.058412402069898 14.693530643674775 13.708005936154638
Se 13.431710764650385 10.056895782076232 14.317242786177712
Se 16.912615864918376 11.923994736766645 13.788981938638221
Se 11.595016153196774 11.165339161621029 15.423942627752464
Se 12.205341522378637 14.009208078920581 15.675431992117923
Se 18.697878224413948 12.191862094409625 15.112306824489485
Se 15.184687827653535 10.961754653478321 16.042435451003044
Se 15.873474348810866 15.03258642547844 16.63361280761103
Se 13.690904528989622 13.040922039131413 17.206485926377127
Se 17.65889051867392 14.080938026175103 17.551051092361526
Se 17.08521250358509 11.316668034009801 17.66394521254851
