28
Energy = -93.9989832 eV
Se 19.285388713579163 15.740692306502273 12.935718743273588
Se 17.790249864187615 16.568764014747355 14.339748557894337
Se 12.414012191942259 10.82341699198773 8.259103966444016
Se 17.181297190910836 12.91605799210054 12.095888037809965
Se 15.679766438428 17.011965403034665 13.021268142890527
Se 13.983430624234161 13.408121311130659 10.549611695602666
Se 10.997577677280455 11.810751483250192 6.645945719561531
Se 17.951002486460407 12.883993730267507 14.34394637110997
Se 14.27060869169796 12.259450391018063 8.478683510378731
Se 16.81956040414075 14.435708367096154 15.569845807743446
Se 10.375278921093333 14.85164984935064 11.378550459264323
Se 11.80753755967827 16.0173722298431 10.125685529515893
Se 14.973936850827085 11.981452443870523 12.163401346990689
Se 14.217252367521217 17.377762208248985 14.838088300152824
Se 13.297937604947816 15.427300976643119 15.527636305988306
Se 9.538012778125305 13.408024361234997 7.55631925474715
Se 15.047642027971666 10.791302725834024 17.733002268814868
Se 12.286185564275948 11.983132523181784 15.668418723294026
Se 14.177461895676103 12.734063762072582 18.292018658617657
Se 11.170428479810228 12.565407287964712 11.870935630448969
Se 13.875922400625392 10.402337322816546 15.321574247730519
Se 6.840397082689043 12.6378646183709 10.229207823058331
Se 7.508028829707856 12.237449925940457 8.02173832792322
Se 11.656592662478499 10.673199690214595 19.070917980982248
Se 10.558485386621467 10.889423405697755 16.943318792189256
Se 13.252034336437065 9.087247040629805 18.813631263670068
Se 9.193610593741445 12.126073952810588 13.087384611665708
Se 7.763004051025836 10.95159743334371 11.621023698299542
