25
Energy = -86.33565239 eV
Se 6.495654960875098 11.404468129040492 7.001397569860458
Se 11.22857957287623 12.590447924981905 6.083158433537635
Se 13.346638992526152 12.092618995448523 6.9759973869836704
Se 12.484254215270107 8.566086128533701 7.939758689190038
Se 5.358463996492973 10.211585170073539 8.711327178951985
Se 6.731351008709262 13.62207267446988 7.773401838702321
Se 10.357516666710934 14.506289452877734 7.1603884659967
Se 10.162822387958022 8.383539248456662 8.303911084415123
Se 13.109792049665522 10.663793196341235 8.853760724602322
Se 9.970420693934459 6.825468283227566 10.070204869259495
Se 8.854800410634551 13.757536581077622 8.818486515463567
Se 7.012807442069958 9.626323091240064 10.263957960344165
Se 14.420479284855984 7.98219580395958 11.410640998561668
Se 11.205828583372607 12.275945445298433 11.437705069918813
Se 6.906791591952778 11.731696136402403 11.513257832230343
Se 9.99370900402981 13.35039053105541 13.205898936349008
Se 13.4435678735637 12.803838758082039 11.978144037819703
Se 14.151454429191059 6.254978365838706 12.919682362941998
Se 9.355921144495088 7.880685585490812 12.089565704475818
Se 15.73204668828644 9.729064465540883 12.368683990368202
Se 6.8590274545686505 11.419971321073023 13.784509638837175
Se 9.189938108398042 11.627838520770311 14.53044022303762
Se 14.27555157515894 11.192086520544212 13.506176800705335
Se 11.301635180089551 8.732437423698144 13.196849862272172
Se 12.339792857954958 7.0574884201186245 14.391539998815151
