25
Energy = -85.83402341 eV
Se 9.540577104908088 11.278378149519986 7.803395516386485
Se 7.45732956827579 10.247763701653767 7.46910411368925
Se 14.970025454309976 11.596154392491249 7.520747364257901
Se 13.696875473443152 15.0636292919454 9.146453437515932
Se 6.498280635550902 10.326744537127931 9.666395013467783
Se 12.570870785784146 8.801835554068953 8.00465123932776
Se 14.587772927274777 9.563506700074322 8.84774114893687
Se 10.853534654090984 9.915704713031413 9.269877530118597
Se 16.594687801732317 12.813193014731867 8.594799797802315
Se 15.498298766754203 14.155640035918644 10.29965360573167
Se 12.066538062047876 13.348502847108392 9.476901273492174
Se 8.061969196570425 11.978880770141233 10.487720694790827
Se 8.736705143671017 7.865199759164694 10.98166658789886
Se 10.306520767366854 14.33291132822064 10.728548057344316
Se 10.531269631774805 6.431143074861664 11.574241199269695
Se 6.862555392795976 12.451047611838975 12.53473046179987
Se 6.9380683224059165 7.230483036553403 12.39969435832894
Se 13.487276980063898 10.572051652689042 12.168138428548875
Se 13.723970413984151 8.297756900225908 12.784748215250605
Se 10.840362328118903 14.488280448867748 13.040531371553179
Se 10.717785669014324 12.325287232616985 13.971312776365123
Se 11.65138400996692 7.3930235494703105 13.427854995468481
Se 5.569089537842102 10.584165390837095 13.116127594398593
Se 12.976967868798932 11.699391221110135 14.194388205897624
Se 6.872242421209599 8.850284003486623 14.101535930114522
