25
Energy = -86.34483693 eV
Se 12.214300052755458 12.34234444477537 6.355878231694996
Se 12.060803777674836 14.749839958938415 9.398563847481716
Se 12.94950896966199 10.270613278234766 7.118293620434797
Se 6.23722763344343 12.652964164858394 9.082602364454027
Se 10.806926836088431 13.299787144018678 8.034403824342537
Se 8.935953046681924 12.291970717322387 11.772631158250388
Se 14.66239042614604 12.992503766853382 11.710930029944253
Se 12.407223505430803 13.516551544093545 11.4039666925526
Se 10.867467127483971 9.015658368141084 6.878764934519431
Se 7.960642572929597 13.79341818083462 10.204277760869795
Se 7.1293174074902135 11.1376435344509 7.508408990445974
Se 15.26058637482666 11.125599238365153 10.34048905003508
Se 10.010607946710117 5.701162339149353 10.682248873273968
Se 10.406321804121049 7.5255144397893305 13.920582792969437
Se 11.961223157846925 6.4666486256700475 9.587101211786486
Se 6.067441237172945 8.168078257424577 9.769530474998339
Se 9.121677747445874 7.5144584027174615 11.918536357114103
Se 6.63092860083953 9.633441960300887 13.25905737553417
Se 13.860916332123825 8.444653974522668 12.637816594815945
Se 11.989844126074544 9.268822018321226 13.816406752873672
Se 11.561646476822222 6.831425511882589 7.2653866582067765
Se 5.065929775758497 9.456509545454226 11.494993215798361
Se 7.897497407701912 9.348355360686261 8.867573416394908
Se 13.594348667679373 9.488537318532606 10.502368610292868
Se 7.280453400810893 11.904682316383322 13.410371572636778
