22
Energy = -73.62804785 eV
Se 15.227986867212849 8.897480063667846 9.244026495448958
Se 13.967255840190578 8.116607425008176 11.66734729446341
Se 14.795885756777594 9.139146694024706 13.4621422170652
Se 14.039984924668136 7.552258105496099 7.934508635291516
Se 12.194485900215001 12.509905035486 15.087185663191441
Se 14.324307020162994 11.24252832179866 8.796979368582113
Se 13.10952950518606 10.9487007320449 6.860095707915018
Se 11.089931327746177 7.945536773901986 9.251033754292447
Se 11.425664733812443 10.464051189538916 14.516348027853914
Se 11.939164869844234 9.312442459725652 11.00374611823586
Se 13.159352785961262 13.515842663728883 13.077790711972725
Se 11.549045672855756 12.971343317224298 11.475426744317213
Se 9.152768532226451 10.129146816056412 6.792084450644382
Se 8.771579434032093 7.848661377187835 9.728195088127933
Se 8.985700508689659 11.087577919668409 13.707539957233454
Se 10.86459979750948 11.739314267524085 7.0998622446426465
Se 8.076817790183183 9.99351773546946 8.87823909614151
Se 6.668071063478976 11.19614813584676 11.889479190152453
Se 8.942586771121496 13.342837412474951 14.051408633423168
Se 9.678114115269961 14.30779492272386 11.932619270530928
Se 6.624099359914844 13.345366390678617 11.151273095951817
Se 6.060562527519681 14.736126373211938 12.82310542487915
