29
Energy = -96.38764923 eV
Se 19.833419256105277 12.959492745786758 10.597253782548345
Se 20.334404699386067 11.244288160520044 12.434854612535213
Se 16.920855169740765 15.308024472089743 10.905249321178042
Se 18.128388432257843 12.09494177620786 9.467556642669061
Se 18.463224414170583 9.947578972049605 12.29491861884333
Se 16.025986964715845 16.572341088526393 12.524934582131594
Se 17.020267021849307 11.119980757413542 13.803928910041094
Se 15.375158278052622 13.298149149901539 10.823600578701004
Se 14.546885480908815 12.992107077268987 12.935309430016895
Se 14.114671906674335 16.433632703996974 9.29488810081193
Se 13.933384646410536 17.447094992401944 11.259786914812253
Se 12.48801509463499 15.719482753679966 16.499298358806698
Se 12.386792493401218 14.27204444899792 13.090675925747165
Se 12.189843944446608 15.727441744842626 18.71289551853745
Se 10.256124877729548 16.676615262372557 15.867180526545669
Se 15.9734333609435 9.152526557690537 14.857868033214059
Se 16.597023645521038 7.362970694176784 13.683599719176025
Se 9.928203053787945 16.93384432731113 13.59893387434565
Se 11.824907492301415 13.326312631589001 15.092078866543934
Se 8.973063638423001 14.634646636956129 10.665370386007858
Se 10.114590076107952 12.555989695372865 10.446315784341687
Se 8.348132992366882 15.246104685471177 12.840145172179502
Se 10.50922620798857 11.043447663092161 14.215258101143684
Se 8.428009938714943 11.240815253534542 15.590638356798546
Se 8.504200387501587 10.953968049751786 9.769778001049515
Se 11.611206229677931 9.248245229922478 14.955603147949502
Se 8.386090127229512 9.375984235879047 11.506891760664628
Se 6.934410139411765 11.804781119380014 13.906026289867162
Se 6.4291226933702035 9.781312260705358 12.789103602815025
