29
Energy = -97.61550128 eV
Se 16.044982878776214 11.262949228507638 12.467219200215933
Se 17.283257262696907 12.455483735783245 15.651126111691747
Se 16.147451329864563 10.603241784846873 14.82447293703874
Se 12.916672508712773 9.248456324831512 7.08856381296696
Se 14.333319791513713 10.099496988670596 11.490400957020514
Se 15.739369121113974 13.962608493871778 16.667267016069804
Se 14.637238412047676 14.986063644343512 14.871256950925108
Se 13.542802849230192 6.35146364923335 9.65826515403376
Se 12.919532978173175 12.157221535316124 8.162027563364434
Se 12.350313380765915 7.090343558490446 7.780276744438265
Se 10.016622683622817 6.1506813658876585 10.806428854789806
Se 12.060506992931105 6.862858727989032 11.527463832089277
Se 12.271433187011779 11.488169845522718 11.827934774552235
Se 12.799383074042364 13.498619338452622 14.549660149906229
Se 10.939467394755829 10.199235097632014 13.233785033417126
Se 12.12849604202391 14.35751118241624 8.601462821630017
Se 10.798792092384987 14.578681759973957 15.099997021728385
Se 9.123252086719136 8.073372077036668 9.465309495602641
Se 10.603794754541232 9.953690327577744 10.603441342477627
Se 9.830562888308446 14.210568546551665 11.352538509672053
Se 6.876064868343408 8.384391529803876 10.27250255670742
Se 10.912449921013133 10.80614241380861 8.013313760405715
Se 6.675279136578314 9.73270095634551 12.185510305338243
Se 10.19175556598363 15.770059970077527 13.130865476436673
Se 10.099948796191976 14.308847154340388 7.383304130092235
Se 6.22356574943069 11.91403868291079 11.402140406891322
Se 9.162929609317787 12.659101756151777 8.773364602812126
Se 7.479669294373612 13.933161415428641 12.226429445029298
Se 6.024953771969562 15.139068647226765 11.021926680624873
