22
Energy = -74.05914471 eV
Se 17.385915386053487 15.966523148969845 12.922517834233958
Se 14.876264437465348 13.252670767962359 12.109746678146896
Se 14.800910461972547 7.578137074483573 10.970641382763025
Se 15.191754789389554 15.537431488523428 12.896275535328096
Se 13.499925381041354 8.679237476664106 12.600782841320608
Se 13.640481756165995 7.310140928727928 8.945369334234151
Se 14.516338563061916 11.937138084959015 14.029192700823069
Se 13.53714606614023 9.380005022598603 7.779964162408201
Se 11.702897056960525 7.134251680330197 13.137907768248187
Se 12.249521109155312 11.327092425683395 14.231689977074813
Se 11.226502125925215 9.66835376689079 7.461337127300673
Se 11.667837513997792 14.754267704964805 11.556475887887522
Se 10.062129493738325 13.147427811878545 8.468937414795441
Se 11.903131302154025 14.396001244279384 9.182419540485519
Se 9.790343684355921 8.24636838281849 12.788489245910212
Se 11.416692680935185 12.434488661333583 16.190714194609125
Se 9.972274815921514 16.229964246784277 11.91524488053541
Se 10.278777771968446 10.922104338912382 9.232695652214847
Se 9.083382034265505 12.726741098742924 15.797528623557573
Se 8.14070642693953 14.49000189265314 12.646182896257342
Se 8.446981590727276 14.844990838904886 15.254304833051687
Se 9.048856167103082 12.499047074120252 12.354346452804684
