28
Energy = -96.19912081 eV
Se 15.837180819657856 7.613045977104692 9.59900930238497
Se 17.43471873381657 11.141605580671495 12.627158780034627
Se 17.16643314280204 13.45560396272966 12.946130338128972
Se 14.511276975666107 7.322855993954841 11.533264517266991
Se 15.815862511295952 9.975508405741005 13.895702851037916
Se 15.882613499685704 14.297660436910515 11.139059461258338
Se 12.15176309217736 12.3222590938523 13.909838628618957
Se 14.112362590962626 9.647779635726167 6.884439424477292
Se 13.874715944388855 15.131597964637846 12.044722514802427
Se 14.468907187340456 7.454705340111937 7.685429570690505
Se 14.029082118924123 9.452616209882427 12.439653024733683
Se 12.136610613901762 13.55459281679131 11.862261795883219
Se 11.14551696658151 13.632891834371316 15.504775392632157
Se 11.994132023760447 10.374193590553897 7.635474005824429
Se 9.479364014259309 7.860287498907467 6.290613309302369
Se 10.449436822817859 9.981888067870242 5.900429653363923
Se 8.475606721856117 12.433856888210915 13.100542648040715
Se 8.715959773289839 9.851043556628827 13.288502345605039
Se 10.301426879882433 9.018526012613107 11.949727549137165
Se 6.82593846352614 9.29126701653097 11.761236947245271
Se 8.093823851585737 8.199847795825956 8.16939059438006
Se 8.719532926110107 13.086393104111176 15.250106797094466
Se 5.874351814325508 12.42293900865764 8.365518465199772
Se 5.631795022406798 10.817666415779785 6.685740640049916
Se 4.773808634944728 10.056837441474395 12.539484340717543
Se 3.8439185572802352 12.461987831442395 9.637456312922554
Se 5.873521672732121 8.597523765106569 7.487194220520304
Se 4.611564513527368 12.335575742821208 11.838095720653904
