25
Energy = -84.2072471 eV
Se 12.87435030945296 12.384927492188332 7.095070237928901
Se 11.40016455674771 13.966557062498696 7.893680153558739
Se 14.1161220154832 13.862613247060489 5.664153372412548
Se 13.27761775182937 11.967437731009053 10.523647473042914
Se 15.05726021121885 17.180401050600405 9.786732309684135
Se 13.050047472313521 15.844564245468373 8.667000259977618
Se 15.493561826300155 11.238020122884912 10.768752711214894
Se 14.982960224299486 15.04103712552915 7.499343525255832
Se 16.63224204075397 12.68008430098366 12.270271235004461
Se 10.917555324654831 13.345459198952458 13.130946621600218
Se 17.43993245656849 14.626907716543059 11.243983323789745
Se 15.764082087244933 16.253932813667628 11.776909214059911
Se 11.989185522227519 15.46858836778297 13.353043974972124
Se 12.441458668746392 11.622173789399378 12.76735811093379
Se 15.127528195253728 11.262980738462293 15.957952942239269
Se 15.74142849222742 13.309567761109054 16.701468609551522
Se 13.636688731102847 15.426621070501982 15.048024050773812
Se 10.549751639714342 12.606551573006211 16.248457541035393
Se 11.862255166954066 9.554000356732027 17.102139588076827
Se 14.190757828236233 9.93847281879037 17.703378810710465
Se 12.858487945751026 16.05822433758181 17.173781786091165
Se 13.017163740383976 14.011668586643731 18.47444696300199
Se 9.662978798359228 12.367532342649477 18.2757974344221
Se 10.60608662316467 9.960799446990064 18.933388651791997
Se 11.156875447543698 13.867419779497197 19.786814175402103
