22
Energy = -73.73672087 eV
Se 11.06521860973491 14.540288052999886 11.440232227639518
Se 10.379191382756197 10.643991411441123 9.034489296164212
Se 12.537084870952253 13.40929432427634 14.70962676114423
Se 8.759959272711411 12.557831464826227 14.740703924100591
Se 13.855447375772917 10.778366454045093 16.46780225841856
Se 11.836024003173033 9.208397107925334 11.942156374415303
Se 14.40190662503439 15.825041473248065 11.567107084977705
Se 17.13299929496753 12.521052006423377 10.240915377008394
Se 14.448636167380196 12.74115880212019 19.878370773493256
Se 15.73224232948567 15.986997844381088 9.546048745596638
Se 13.496337230855563 14.226085022843693 18.250226765152586
Se 12.891391058725619 11.86131558416941 18.165113122794455
Se 8.52283065388669 11.99022462053433 12.415860114502673
Se 12.18410422856373 11.303751478497142 10.090575929479716
Se 10.03388223094377 8.567120385100411 10.871216676506917
Se 15.822262216461043 14.589148756956284 12.974283391680034
Se 8.757219014364354 14.100827491437924 11.400654986588682
Se 14.760548283744402 14.581342797551429 8.03988874799407
Se 15.749177693560664 12.30967245358205 8.445312550667612
Se 15.72561826260219 12.375229177631706 12.205570597921264
Se 11.378530642865186 15.154975700494765 13.761084927159693
Se 10.815554693334672 11.694772056610903 15.359206591496005
