21
Energy = -71.1414194 eV
Se 9.172202602077755 15.125757986702734 13.87046523632478
Se 7.715679144363515 14.574223535964979 10.586977855081177
Se 10.787337162729855 13.486886073077752 13.492420936069653
Se 7.211686503306742 14.23361953977566 12.877975156632223
Se 11.30423548293034 13.84662279812968 11.053046563256613
Se 7.9730961900001605 8.702315973500403 13.009108793973564
Se 9.212553235638564 12.856612264061129 10.063294978952865
Se 12.879549481321495 12.30321880770139 10.68183207711897
Se 6.574311941898695 10.34760420528854 12.0978731552438
Se 9.872135571487116 8.601717665921582 11.545964744183713
Se 5.624875782462655 9.284812724074088 10.19045504140575
Se 9.733848968337439 6.613914381835556 10.41005203326884
Se 12.52362201987048 9.594763953053377 8.278058420452117
Se 13.780592794506308 8.56152592589343 10.737330111545024
Se 15.45699737843519 9.990404991718238 8.70235624285163
Se 6.593303219929493 10.2740296244589 8.333559794736939
Se 8.80525724176875 9.284005180465574 7.959770623922572
Se 14.21597114760586 6.663622183360021 9.7434671070163
Se 15.827567985796653 8.079589427921603 7.708841994543571
Se 8.505053984559874 7.032188810650986 8.285869149417557
Se 12.935829023361736 7.709758932015491 7.242471860334757
