20
Energy = -65.63325815 eV
Se 9.155439704829023 8.270413830971108 8.087951397556914
Se 14.603703795865954 12.012426472313845 7.829124143682523
Se 7.660226605006535 11.712414828902515 8.647170501268477
Se 5.458901163838699 11.509169311619939 8.96057876820391
Se 12.747884075524318 12.83838040566429 8.669410997949617
Se 14.556137074939475 9.504516824728395 8.748485476685946
Se 16.437703910924224 13.455719824628899 9.253668452153518
Se 8.714359386433708 9.707773384748482 9.734722594389403
Se 14.93980329925024 14.58145405760508 10.483586382671199
Se 12.582820491958788 9.580495874166383 9.828948590229482
Se 13.10396938846941 9.45582636935075 12.23986141755587
Se 15.042209817194639 13.596972492398864 12.748503309570008
Se 12.030297329132974 12.779395105738592 13.492365147988366
Se 11.16327466692257 10.170476680345615 13.21173178427627
Se 13.550009890638615 14.965815336320217 13.837861654967735
Se 11.643981302379117 10.780759462504301 16.7151981574523
Se 10.091355929381958 13.401852688431498 14.551802264196821
Se 12.958940507861339 12.954519239149242 17.00419998518587
Se 9.61707149130958 11.667084957908525 16.391650901878716
Se 11.358278227332487 14.470900911697493 16.97954613133102
