21
Energy = -69.35467168 eV
Se 18.326443626000923 9.666625997193147 8.656181593583304
Se 14.701024944780896 10.202964506136526 7.585583241006985
Se 16.216053480334285 9.624636069931187 9.397416538856096
Se 14.828157932698481 12.53786219600051 7.315551140291963
Se 12.467394930856338 9.385814078204767 10.894223336895335
Se 10.799799174415453 9.435021875335666 9.262965226072085
Se 13.940072229633147 14.371496235667891 10.542171927407692
Se 12.137517023926089 8.643002306013559 14.588017168194094
Se 10.41689145655541 12.073861771692872 14.478519021373048
Se 11.204462145591759 13.755672909739936 13.230143965821679
Se 13.031825923776784 13.526671180773857 8.431894824612444
Se 9.401618925956933 11.272078865725438 9.811675110872457
Se 11.492260472640343 7.905508378212076 12.585855545979772
Se 12.450446579127577 15.94948160735633 11.083064367608086
Se 7.3983803092893785 10.42752954998356 10.700599914385286
Se 7.789155507347469 9.836998637908566 12.967397124958946
Se 7.971000110216771 11.778755255976177 14.256250734944896
Se 13.999893839068205 14.794823441153847 16.22853634605682
Se 9.434235522121877 13.764742897912704 16.573198448551754
Se 10.221291559518349 15.550275447680123 15.485509220598422
Se 12.370339162608166 16.236622889709693 16.669205437217386
