23
Energy = -76.75196138 eV
Se 8.915386613455599 14.878416530346266 9.706049370022674
Se 10.85952922353292 16.012309723256365 9.970429178852667
Se 13.88788448224927 14.869200293977654 7.9087456240072695
Se 9.6953664647087 12.523977380868244 9.318831630396812
Se 11.351883267525604 15.837391617166622 12.396040468068618
Se 9.37387049421909 9.411971620384067 12.80592460627402
Se 11.75737180275956 12.556862961100599 10.335264647466493
Se 13.372026798238812 12.778180281805039 14.335909830217018
Se 13.455862514821009 12.704189502447788 8.626913792441439
Se 15.724874190811706 15.782373685109084 9.203499493012862
Se 9.73999816523165 10.359004932395985 15.010628253427022
Se 10.30306290980532 7.330365857277145 12.76197970046604
Se 12.158370315409128 17.882954543613423 12.864076296709262
Se 14.702442046264391 15.05803264977124 12.524176142558101
Se 15.135347893329742 17.83119609830587 9.981138398341923
Se 14.756305670522234 17.27103739316104 12.532576129037862
Se 13.313705796798363 10.639865611465327 15.078765045746003
Se 12.73824349046865 7.637723126174431 12.312389218750624
Se 10.764996695985332 7.1052353792245855 16.43563473275895
Se 13.060135291479959 9.862925621798729 12.681979625647063
Se 9.030378641715592 8.544578380091584 16.38252915290082
Se 15.783335697007203 10.17301145780131 15.63546034329084
Se 15.790421645753367 8.74298118571732 17.336454106294074
