27
Energy = -89.4029163 eV
Se 13.839948843672925 14.681062288651942 14.019763456194601
Se 17.580290157090673 13.518235991687165 14.625258878734385
Se 15.305394707174171 11.295370217058963 12.408818668537812
Se 15.486086337177285 12.680502260751231 14.465036662349759
Se 12.840106471694872 11.432982149163008 5.962504045039664
Se 9.224968885269261 13.956412444007587 7.6651198438969335
Se 7.522351970700909 13.293438667933263 10.66313748554794
Se 12.777283705262944 13.60722896023098 8.773006837060413
Se 12.13070035311508 9.718266688042982 7.274815777503184
Se 10.024691647922666 13.59775904306262 14.127188715210591
Se 8.749986953751588 10.186155111463567 14.337710110903101
Se 11.400109989300477 13.877347228296388 6.788289700454884
Se 11.998367992010758 13.84372985119278 12.822236172961984
Se 13.16471330505189 9.817716626334308 9.56351431514107
Se 11.23881267504391 6.4060566867379265 12.16461653447182
Se 12.061782715824737 11.82564896308946 10.094794864256606
Se 13.470570476581083 10.132917678313476 12.991380495816443
Se 11.666474454553638 7.982550148559411 13.822777064083484
Se 9.675379852750387 8.216743192963289 15.162520628175953
Se 10.719158845557129 7.262115660737142 9.910411182749808
Se 10.160668949423432 11.7458676223074 15.503322399882634
Se 8.407320417964096 10.997309726685389 11.039342783576377
Se 8.972097793616 10.45843970258831 8.154916549647742
Se 9.405230305868212 14.477646933745772 10.117021111626478
Se 8.78379776705601 6.733829334638824 8.756771696965354
Se 7.466913537647469 8.822480530880298 8.233582575608771
Se 6.60457295076214 9.695297822557091 11.047472671269084
