26
Energy = -88.80292649 eV
Se 11.688841103377142 6.588946453370848 11.2534948379512
Se 13.383335630419676 10.02623598699303 11.860282564759947
Se 15.495194347797698 9.359866877646686 11.26779018382147
Se 10.902794633408712 7.7362817713096845 13.077446833521062
Se 10.298214099005317 7.29806020418489 9.302367574094028
Se 13.665176880504124 10.10205075928768 15.099895290037622
Se 7.21354265830132 7.781034206389163 13.284979213026187
Se 9.193340151521863 12.217761495015274 13.986134944447635
Se 14.000837761057008 12.287031179037387 15.058377402453228
Se 8.767801655222849 15.125690620615995 9.508432983236649
Se 8.754270850975603 8.777444475558955 10.091479799042785
Se 9.94940335815218 15.892597982187175 7.624774213513222
Se 10.482545907813813 11.894698383278328 15.959711485674696
Se 13.66546793400192 16.164579086738623 7.529824078917037
Se 9.38051358671912 16.244813359814746 11.476692758041063
Se 11.928279913211545 14.576410274988653 7.5338109771618935
Se 10.640087829317237 12.786005249048271 12.20504810743982
Se 11.26508150657392 15.052225265334227 12.306015812755033
Se 11.270903483165899 9.743790713089249 15.935334887612395
Se 9.030015922672742 6.435155564147651 13.910377837691428
Se 16.213236062407326 11.95999771813383 11.499665714961333
Se 14.3409994224872 16.879513561077392 9.677335207477293
Se 6.938505786128291 7.4505901634563205 10.983092521047633
Se 16.355781758723882 15.734776437061543 10.198560667495272
Se 13.981725764910172 12.401451316222472 12.002511100733534
Se 16.090903878750364 14.505122048130865 12.163081386839862
