25
Energy = -86.19020182 eV
Se 11.181288478704042 7.7745120052003065 5.912101720353501
Se 11.804044389205972 9.7045725857829 7.153673413754545
Se 14.165209351750917 9.7378919590789 7.186968641600625
Se 6.641353105634888 8.28431320628244 6.679394176473495
Se 6.355013713571356 12.046238996059445 6.13468957796861
Se 7.7816688578098 10.271565246284664 6.853245607013013
Se 10.01482175099608 6.369295049311259 7.370357968833533
Se 5.328721670021687 8.185432829119133 8.819761181438727
Se 9.73355826899999 13.75046258664113 10.130698280546513
Se 15.070757457042669 8.284290624002733 8.790783956392241
Se 5.0613395030357635 12.626607252000193 8.015637155206779
Se 11.707647852183117 5.24561486665437 8.627173213587664
Se 11.022560720925444 5.566378360131738 10.850742305726122
Se 6.257754732271641 9.866734000646472 10.062852023666577
Se 10.998354939134353 11.819820852308855 10.474096686272302
Se 6.1792595472200045 14.318081193856417 9.238119424194226
Se 14.740055682494463 9.409191778630234 10.870854933353648
Se 7.492516444998314 13.41040374303111 10.959309627042144
Se 8.12980141510627 8.863864561924965 11.244412867252219
Se 11.819931236457622 12.221718991418406 12.682071159063561
Se 11.423517200000166 7.756769673187397 11.634426654915014
Se 13.724688921485324 7.820847823003481 12.252947815123035
Se 8.634822687333546 11.018280994240813 14.337912514476292
Se 7.691593248800327 8.995718832467459 13.528662044097583
Se 10.95942213706472 10.571095300983885 14.10881036389613
