23
Energy = -77.70230556 eV
Se 16.657061087646234 13.635379661204407 10.868243503051794
Se 18.92777780607807 13.999825444769911 12.766567992436672
Se 20.01895406257033 12.391150960317617 11.769280731030635
Se 11.873302366362658 10.00142328706 7.788716468087493
Se 16.72650862953125 12.13184770139993 13.416689591979566
Se 11.867524751982167 12.859627475211925 10.634201118214262
Se 17.75953352531792 12.0249809855686 9.875150337779663
Se 17.799634567172586 10.496691298864642 12.447191093877205
Se 12.413208052743908 9.257269481534019 11.454047999402649
Se 8.948709587917312 8.514896476716995 12.30987445916879
Se 8.735079248873534 8.711840333538149 10.11604151747838
Se 11.333664310949018 8.396949343830524 9.203919994789869
Se 10.575136534868976 13.38141919027823 14.91449533143322
Se 6.133058148961031 13.305883169491846 14.285523540297191
Se 8.8974066897225 11.820954195740795 12.024659948795506
Se 13.476843932211581 11.036050703915398 10.537313217906156
Se 12.6899597069147 14.085917112664253 14.269055519498412
Se 7.304624772053151 13.579782473144514 16.20045294862428
Se 8.399868321489262 11.29902040111471 9.861111349587526
Se 12.763314069368345 14.584863296500139 11.917433505663734
Se 9.050560692568048 15.36488995588091 14.987067509109334
Se 6.974378089314394 11.244368455015511 13.355580630950689
Se 8.051216829619431 15.527558768763733 13.020981450790988
