21
Energy = -71.3432072 eV
Se 13.507997054031447 8.244601446869492 6.439370048699117
Se 13.452052891027714 10.240068617150344 7.673297027248675
Se 11.42608736819253 10.258523953776407 8.911789628112624
Se 11.612522884232833 14.22522509262404 7.397857955022236
Se 13.923200347388846 6.4122209147996685 7.869238181426375
Se 9.710323761900884 10.615789467158612 7.326728131081104
Se 9.644893067222476 7.0002096113768655 6.000236368823057
Se 11.857143609653786 6.182848759290946 9.001836876520114
Se 8.41962318202499 8.609372826181874 7.20047920265109
Se 9.033508094373596 13.747467307867188 8.53839878975284
Se 7.427638115135327 8.397158273493902 10.817771263715507
Se 9.718668148380752 10.81804939909295 12.065742979624776
Se 10.257709519353547 5.292628158165981 7.5265996801974815
Se 5.4286472697781525 9.678444100723173 11.93922281846496
Se 12.37941123678708 14.632177465037206 9.405433733405776
Se 9.899604457106665 14.15088917213813 10.513025548855769
Se 8.32297593487729 7.33726969788758 12.55743173902097
Se 9.988291853985643 9.125138380684172 13.489823634527356
Se 5.629373358867621 9.071066865801116 14.066657743592055
Se 7.688943326738278 12.09950649664727 13.155806928095762
Se 7.31808137969841 10.868309071629398 14.96918928055692
