26
Energy = -86.80386994 eV
Se 17.251013561790145 15.540568093354079 12.404189172138521
Se 16.480660870627126 14.58609678137613 16.041214173483237
Se 17.882679615110547 13.452615386059167 12.863501025744183
Se 16.27203766055409 16.349144297550325 14.694553015705486
Se 15.75524436399858 12.065493277534658 12.495496442993783
Se 14.352051125177336 13.637166696116811 11.634386340406827
Se 14.225314118956273 13.470969505928615 16.293592875649654
Se 13.993170132556113 7.766354231750896 11.650918034633058
Se 14.44003985019501 13.409285986905978 9.213690287706113
Se 14.076976739393547 8.115882121783539 15.004515674512891
Se 11.769549278783238 6.477200713671779 11.88256085838574
Se 12.838210340455884 14.99536691916392 15.240646487055077
Se 13.272861481403597 10.095032808700331 14.452369656435359
Se 13.287271545466682 9.870220398419587 11.772759617988996
Se 11.17841774213098 13.274078397551467 14.24579741097522
Se 12.215780141101197 13.385481519918043 8.489226955386956
Se 11.352140831668299 11.240863182229468 7.980657566913223
Se 9.70734169543139 15.237098262095264 14.752576770320408
Se 10.511057621967884 12.596925358783254 11.944951062704321
Se 9.054219273465751 18.3321807594453 11.470840363197405
Se 8.785351560985934 16.13508556985505 11.171862166619507
Se 10.35622336073625 8.208015562528134 12.294376015166456
Se 9.50878179633828 10.9516122625683 9.51133073342815
Se 8.005293876064384 15.036779622117962 13.243057274434118
Se 9.185269484392288 11.510160913253875 13.537043948191451
Se 9.309098037750314 8.713923340725433 10.156636438053798
