27
Energy = -91.53057629 eV
Se 14.076741295395346 12.373954536637589 12.019915391560334
Se 12.364765156096666 13.642491595924694 12.712810659060311
Se 14.311622405671141 10.309333671384806 13.504270320999817
Se 14.679848197176957 10.33252183037198 8.737915583908881
Se 14.808088151788759 8.044881464108308 9.433432506410211
Se 13.020652176589557 11.402903305252213 9.957959535152673
Se 11.830533278666406 12.455131729297113 7.11365943455537
Se 10.014664450243188 8.378245706983671 4.684737421753354
Se 9.554881454379407 12.52223081095656 10.572878276802184
Se 12.176831084990445 9.479129609337305 13.731917359599455
Se 10.08524256180092 14.01384805839281 8.525977634306653
Se 12.667227272828947 6.225989241760455 6.780002129971399
Se 10.424315712759086 6.6009949258101965 6.2007792074577734
Se 11.340708825853413 10.322049473050097 15.802978942339191
Se 12.801688404888218 6.930396596509531 9.070624186275474
Se 10.038758058250492 12.199939361865209 15.269799780144606
Se 9.010039487194915 10.179940980453942 5.8344662150533475
Se 10.40909570113451 12.087087442771614 5.385955834875304
Se 8.877208971703269 9.073344454122307 9.355259923605068
Se 7.86281006315926 11.213740666183991 9.746265579137464
Se 8.312084350121037 13.841095151821396 7.230327250761518
Se 9.146946618366464 8.356184700252179 11.600196658421169
Se 6.660956378997936 11.342401730719033 13.647328115604607
Se 7.754327241472859 11.668986465210907 15.68181818767468
Se 4.531779655253818 10.084518845007482 11.383893178711086
Se 7.208386663893049 7.355795949532787 12.355970307646075
Se 5.559884336147474 9.150598675970135 13.139310752262807
