29
Energy = -98.24244958 eV
Se 10.390495538455381 19.414398363113207 11.098986733285301
Se 11.541631414268721 18.225000601415953 9.380668865766168
Se 13.700091890312285 16.843125105664466 11.50877556866249
Se 11.28360329074199 18.389659779540466 13.092348300719506
Se 10.659750707101642 16.107972840592314 9.374957267156509
Se 10.313096956156564 16.32170855247851 13.157156807364663
Se 12.179860024161192 15.261574436827674 11.41654769363691
Se 9.387322790371577 13.188809559639697 10.247314891624214
Se 7.95327433473258 14.17530718925036 12.670684003461952
Se 10.629528835167937 12.028308575011474 11.661060765160672
Se 9.952761869978216 8.47740236856266 12.271815460159075
Se 13.227896786378638 11.701667236372922 14.551651051102763
Se 15.347540752692142 7.402828818114574 12.899080042662682
Se 14.443281357070704 6.023048012365685 9.550048314824844
Se 15.948377023674599 9.678025165913901 12.762899389682483
Se 13.740379841950364 9.706155310156099 9.30605466345321
Se 7.079798086017002 9.735806376728974 10.27623421938608
Se 10.324966104914004 9.944850213972227 8.492824443375682
Se 9.341181271638114 12.907543854092545 13.824558609211817
Se 15.407216527989803 10.758762728530845 14.773242551715246
Se 7.999044660700707 7.765300485884453 11.196885167869752
Se 13.527100946588828 7.052311742799646 11.34392070557051
Se 10.91997798402421 7.605649047419172 8.327796543812697
Se 12.389775958187835 7.439403897578843 6.596137136984065
Se 8.013291220228249 9.835649859936629 8.081922979359478
Se 11.938008290059198 10.744381207058233 16.26575474960513
Se 14.499966550470138 8.153788080762574 7.920739358655819
Se 9.147784437416865 8.79448897711505 14.542454387084366
Se 11.160351232486803 8.569083028118873 15.688568050463347
