27
Energy = -90.85022819 eV
Se 15.222707256453289 6.068348856248993 10.405641567551593
Se 13.522240845168188 6.917292205380915 11.552977442135708
Se 14.473344883701907 7.178871854741021 13.979265885615208
Se 13.67544755967553 11.628598846050561 9.954065738646678
Se 14.90842451566343 12.689577433703867 8.391886746858395
Se 14.073461499352252 12.732060400553696 12.112420292707382
Se 12.476386631449406 4.839093795037932 12.758009852032211
Se 12.637190229292095 7.596705349903869 15.203534973060439
Se 10.863879044877667 9.701057393064858 11.463766900357824
Se 11.148157622457166 11.777912019102018 14.189043386408317
Se 12.869109697969039 14.15497178973262 7.390952128571379
Se 12.103576192970184 13.61927933478296 12.922439285733214
Se 12.047033406909106 12.271653747881441 5.598048093013985
Se 11.408031440124745 13.80303461188145 8.99579000330361
Se 11.076211280228042 5.7578693596991934 14.252285802596795
Se 10.819087252768501 11.11869135924581 7.0854815921682155
Se 8.422022143915902 11.573517330983323 6.82719058738483
Se 8.863484377521461 11.906714741915833 13.808976627550978
Se 8.220458369899795 14.996696239403395 8.701135449413965
Se 8.106688128341764 13.864921285025689 6.631693916095845
Se 7.969166537229903 8.097519021748631 12.38604157833114
Se 8.266633388946873 7.270203175216104 10.349724067381036
Se 8.188297896010175 10.782803519730168 11.774094894994066
Se 10.456111291934093 8.353805266732834 9.688246588325208
Se 6.372116350342361 14.34931488143034 11.851044413853364
Se 6.011975375363166 14.990131682355019 9.628112614100228
Se 5.997714227735923 12.044617536456943 12.12294393866922
