26
Energy = -87.97921522 eV
Se 12.23448625900171 5.498204893468333 12.839918682237776
Se 12.662028683073276 7.761580330947199 12.557816698901863
Se 10.015645964668808 5.25455511587781 13.73228117570884
Se 10.239836033657975 11.27038211010288 13.279402440970994
Se 9.342562632575204 9.564430557207185 14.639832185634258
Se 15.224767040153894 8.108280560245275 9.645601644074866
Se 12.33042592508294 7.9466476759645825 10.137380588369565
Se 15.215614247736298 9.095871519524565 7.596919032754068
Se 8.737736908307209 6.52673209829425 12.2242662553387
Se 14.259937888079666 14.394974028618954 13.640808561927614
Se 15.467266766646329 11.449681072779816 7.790213080960849
Se 12.189893908756316 15.16259356508455 14.521228363197135
Se 7.751598466949869 8.190187655972267 13.598449016358595
Se 14.198506265777873 18.35356987652625 11.338693970365412
Se 13.254924405472757 12.13487722314627 8.507068520587511
Se 13.72609387549177 12.626716309417942 12.237268528917461
Se 10.76413614362102 9.5698198785182 9.571549004545169
Se 8.517518467349982 8.598639253987931 9.18730363622808
Se 8.533273870035735 12.926382959181227 13.185173739792413
Se 12.618398913542885 17.558986960229827 10.014494084476283
Se 6.4438852003851945 11.715345541968981 10.204509802810007
Se 7.503308211372531 10.552220700667363 8.432435779348989
Se 8.047079072556452 13.317725637385724 10.929483230748357
Se 13.550117214071044 13.784447739765467 10.07761569282576
Se 11.656440061847723 17.281047229764773 13.571269722749845
Se 10.663516017187844 16.942073839079317 11.532919534976141
