23
Energy = -76.80691482 eV
Se 14.557224976485621 9.871274134989294 14.039470542417762
Se 15.638792869981234 11.738470706938138 9.73269229843573
Se 13.965147331439624 11.882035925733922 11.274346281602497
Se 15.502852365228154 9.718630121054069 8.592195936096545
Se 13.099085667657695 10.268055248306183 15.908807295159235
Se 13.65645662186066 7.989244846883901 12.941544455704408
Se 12.366678518931742 12.423739696108079 15.501061171972928
Se 11.557141721536622 9.672509013127176 8.018056196278756
Se 13.680434851884021 12.61207621190918 6.826464919666106
Se 13.77906857012152 10.413136595746513 6.792947497538915
Se 11.090915008907459 11.977361076248302 13.43149590271349
Se 11.897354165753153 8.542866797411627 11.467624767105123
Se 10.917622609994758 11.762772611273551 8.758325320058281
Se 9.376126818936365 13.44717125111733 13.237039357318052
Se 7.383049489391861 12.144399892524545 14.165866807900505
Se 10.055533055643735 7.445603023069922 12.586553210308356
Se 7.87030695450424 10.76631082108932 9.943473826652012
Se 8.847777019258409 14.777628622579039 10.265582631325938
Se 9.567271038026917 12.672767276510141 7.1241053508618535
Se 8.169011193482952 8.784455993791985 12.632151377272994
Se 7.307597161250857 12.001313193588517 8.178280680693563
Se 8.276234117203595 10.13883468167039 14.691527779061857
Se 6.894124662935568 14.385980432710365 9.288876988030506
