25
Energy = -86.31489159 eV
Se 10.103810523030427 8.128713331073989 5.896437465581053
Se 13.27692978799678 10.28504194116084 5.779434221048448
Se 10.794480296262922 6.003057225443553 6.661881363163956
Se 5.6993543981769035 10.727223641697718 8.001869567560128
Se 15.02162431835032 9.294800971190682 6.998439619632323
Se 11.25939321985704 9.893133406496524 6.954912744164185
Se 8.094188555049195 13.695866897470134 8.26003946854041
Se 6.220410601098417 12.692242741565941 9.271803739975276
Se 7.610838184271707 9.39607200093877 8.038353204434753
Se 15.808449701397397 11.027210244196958 8.43725963713771
Se 10.341917100870164 5.834951658049147 8.97454530828297
Se 10.005772988393018 12.855393455232145 9.358169158944087
Se 8.004417215574362 5.9137383369174055 9.31618084011428
Se 13.654223902970083 11.29158774708097 11.743340456950678
Se 7.693916498558107 8.110324425101721 10.089737672929841
Se 15.638912542963187 10.403685120890373 10.676455119473102
Se 10.246926775853394 14.23243330569062 11.270629527063583
Se 6.520327896407157 10.997911346446324 12.169583271541667
Se 10.883277926288192 8.61827288247807 11.762674194174792
Se 9.539389337654967 12.906896227790142 13.086352677312233
Se 6.420681449095585 9.469853324241424 14.005522099789399
Se 7.177221699581674 13.02506856264649 13.178585384394017
Se 12.845109221623837 9.489083028866148 12.946089999701838
Se 9.825337597677182 7.672492738196235 13.607215379686707
Se 8.61492696122453 9.336784139363761 14.816326578629647
