24
Energy = -79.40114547 eV
Se 10.719077921327203 13.630177767950913 17.707199005898836
Se 13.883052289760732 14.038584585767474 13.330846563074719
Se 15.172495313280901 16.05174205431879 11.738541742788877
Se 16.530514169889475 13.551011927028986 17.184272675838862
Se 12.286159385431024 12.19979615890836 8.08152128258329
Se 14.114853503462287 11.547274633620065 10.80234863317839
Se 14.915401189250757 18.109571067254226 12.658888084731554
Se 13.456662424083655 9.728632401276787 11.900778916967202
Se 12.264435798149304 14.333294353945957 8.758551170032238
Se 17.190063138052622 10.171132881156154 12.697527059360493
Se 11.79682732204574 12.783401216618515 13.214481757306942
Se 13.790440670056412 15.324954932177791 15.362882973420202
Se 11.523441118559239 12.35420950998396 5.673243116803608
Se 15.50890738909504 8.631319760216973 12.990152051015668
Se 12.27133067052438 10.714511751786532 14.020376705369554
Se 7.857450266637155 13.763620838428443 15.402717953980098
Se 14.147841249488195 13.585134007591265 16.909395593613354
Se 17.591924461092223 13.203882194027436 15.135495006830244
Se 10.47411687198374 10.417162965452658 5.310673994635005
Se 10.367645938060036 15.567517632045588 16.494427832078404
Se 15.926204325411446 18.36026905211234 14.64270248649243
Se 7.9935209070749424 15.74219840338476 16.724785038224642
Se 18.034308029725665 10.896187138222414 14.802781590397826
Se 8.821994257480325 12.239172382413376 16.836403290069814
