26
Energy = -88.43223428 eV
Se 10.61774029829899 8.300530467940687 8.187567935992803
Se 11.885781732093584 11.878062576520882 7.359643630583724
Se 12.370734279939693 13.238112589738023 11.234964373961398
Se 8.789351336563918 7.940676724865255 13.257163628110513
Se 9.546048498206956 12.82587716178542 14.50522457160566
Se 13.884651518974758 14.81700914416094 16.97746931121289
Se 12.256843364604977 13.063128989422397 16.90885058995027
Se 16.45479189396111 12.699017900601785 9.63883627017
Se 12.215122186453657 9.482828684130421 7.011011778742056
Se 14.683057334266753 13.005685970648349 11.66641062089881
Se 8.12696477403781 13.62812871923711 12.750857438081809
Se 8.679417669607218 11.692709435699204 9.477266216739947
Se 15.889953020853909 11.095138578357622 8.12283752936389
Se 13.080206182413832 10.518409322424032 14.168361284055308
Se 9.78234757984395 9.026278793065806 15.10623501662472
Se 15.006046653678736 10.874314974655473 12.944117348015933
Se 11.375536463080948 8.519810959372522 10.465718392084447
Se 8.491409009716612 10.958530393571808 15.522072587622517
Se 13.621762107238602 16.168831178867922 13.344173867368811
Se 9.414784823227498 9.390415887458508 11.480438067004304
Se 14.560360827878226 11.917619828479983 6.452458403874621
Se 9.261749959633764 13.73089513234262 10.698004434434374
Se 13.441229914668602 11.088961747891158 16.476059674642904
Se 9.45361330926908 12.186163308630613 7.340324621458754
Se 14.863798322941012 14.790249358820008 14.855699701156233
Se 11.685260029473707 14.999753724316736 12.843958298697316
