28
Energy = -93.91088015 eV
Se 18.160335229914075 10.548952329532558 10.957908514385718
Se 16.974372562200884 12.182151178520108 8.747638828491356
Se 18.305087925059205 12.356749610606167 12.174136009367116
Se 12.41118538563711 6.851785714391685 14.13302775345899
Se 10.93991142755834 8.283042169621494 10.933740336502613
Se 15.22581494211822 10.964216777433855 10.72196854358826
Se 12.919427637565361 7.596420198671293 12.031131721347903
Se 9.66933332070745 9.786063813438522 13.201044303422561
Se 9.605673533248773 10.896331670507754 9.503355012538034
Se 15.366165013907404 12.735825726846473 12.0215848186765
Se 11.191398543729505 9.62785254223584 17.114470015291403
Se 17.210680263904173 13.984115104359393 9.961957514406178
Se 13.243860628822848 8.84208704036454 15.60663604969222
Se 11.042186931266286 10.937859386153761 11.587680322362141
Se 13.557123354450274 10.51841252788492 14.192058034481917
Se 10.661886113132926 13.274857052189473 12.6133703078995
Se 12.331852317241596 14.345064452373094 11.297248181431723
Se 10.495450653802077 16.66855491854577 8.82973941126027
Se 10.887797168930728 11.664273293958694 16.1764925705717
Se 7.910656860299663 14.021244018007891 8.12315882426288
Se 7.783243771278573 12.292270885402482 9.76537292261952
Se 8.96177311679696 11.453872503993159 14.712165105316489
Se 14.277626793943579 15.874184964948983 13.57457130921211
Se 11.456571561365507 16.52156294134127 10.96905676872824
Se 13.58699849204133 17.950408513240518 18.471770616407884
Se 8.208138365207171 16.134757586902012 9.090288882012663
Se 13.724366232293608 15.36525966028182 15.702714493905376
Se 12.617193239218524 17.44420363444321 16.52725483214436
