29
Energy = -80.55576585 eV
Se 16.640788907446716 16.971073594454744 14.206697590875242
Se 15.893776600954709 17.340992373457848 16.446113047605305
Se 15.978787324817102 14.497192317296781 14.216700351398034
Se 15.091944076113316 14.921174598656886 16.786357805240307
Se 15.701946539765585 8.927702204166032 7.888307418592504
Se 13.601316810506171 15.32861868088507 14.66843280211038
Se 13.51591134291581 8.761177904345137 9.248304537077571
Se 14.260457363120851 11.490403597927866 15.70639909443903
Se 15.750416089437952 11.638813765032868 8.06292939957818
Se 12.940130370507902 12.756083070772386 12.0598399851878
Se 12.687681036386728 13.043214329726244 14.564965571794028
Se 13.160158297241615 9.472001744772639 14.827565975695586
Se 14.231066735235572 10.567462754163975 6.188225107267653
Se 14.567427643543617 8.959126875944953 11.43307970854599
Se 13.083570801157373 11.308671836997146 8.497819340254122
Se 11.074771088741716 9.190015313108859 16.140627269346236
Se 10.239912445707981 11.421842931921798 16.94234439694041
Se 10.553565839736157 12.664666139562227 11.191457568469806
Se 12.860003542893152 10.143567485819128 12.418312468232848
Se 10.314345150899227 13.317637694969697 15.282973879211038
Se 10.565025287123715 10.07837472757205 11.09955317963492
Se 10.977977572222597 15.056982131051313 7.472648515175646
Se 8.226492027092515 9.97537697632718 16.54778058147403
Se 8.661861125205391 15.952772842936147 8.900837749713407
Se 9.056392701522634 8.653386507551879 14.547097091378102
Se 9.013090944722768 12.725813045400116 13.258297636897307
Se 8.643243565278322 15.76020120599578 5.955578601122141
Se 8.685368780864303 13.400260642093707 7.710991568126327
Se 8.751377140703543 10.210138405369543 12.741813873734147
