29
Energy = -98.01227278 eV
Se 13.91256707636788 6.707307434667833 13.719792893387401
Se 13.536555104578868 8.21104950568854 16.805701390117825
Se 12.321953371407695 6.735352258454423 15.504307770137665
Se 13.419160738925033 8.923833483548982 13.131802834743215
Se 13.749541649206359 10.154961824639546 15.170969533484474
Se 14.303870694628138 13.591825445630402 17.81876721962515
Se 16.55816680687993 13.690653699363862 18.6268748990101
Se 13.482016604217993 15.756198090679998 18.29651968397183
Se 17.970868116818462 12.730645527231099 17.045497846953776
Se 13.559833323363673 17.255446346073143 16.506999573287686
Se 9.842337052216662 11.667221295050725 7.453358733642481
Se 11.737771909635946 11.4400349669681 14.374640580706266
Se 8.018183608790356 13.22558436458787 7.657538257749111
Se 11.864159327682612 13.638348052185501 14.905909340853675
Se 18.00175332263967 13.436279634744801 13.399000552954927
Se 15.388590989811451 13.529323374279151 10.892614117738853
Se 9.706156659692411 10.584696801669482 10.590408571894756
Se 18.64682920709479 14.370632949508787 15.409559872287748
Se 11.663651525034279 12.797336983074391 8.199477025258902
Se 15.724874635872771 14.27049535088 13.068802936030469
Se 11.11451749581419 12.272699859911095 10.805375699477457
Se 11.36102866792526 16.92202342194293 15.506960157700599
Se 14.710797304973141 17.057355192154585 9.955292900451035
Se 16.05427460847744 15.202053614142319 9.327222241042083
Se 11.643470647737876 17.244693968576605 13.248007782520833
Se 7.6902995337166375 13.253526403569893 10.026359142063479
Se 9.496911073317872 14.352575756489928 10.93568152935954
Se 12.538459104486993 16.187964375139025 10.067767202825834
Se 12.469240983871758 15.151832573139728 12.283019071877044
