29
Energy = -96.99705156 eV
Se 17.00342173581087 8.351767262970961 13.12000020280084
Se 9.35439766796522 13.780812625969451 12.702118179754994
Se 9.77745011211388 16.109277822576775 15.280450335650054
Se 16.362464162265013 15.21442746563546 12.767516813832309
Se 16.297485441211894 9.403670728433841 11.260062046386146
Se 12.901989489878586 8.736350104419166 14.604137006276016
Se 5.922002244178366 12.83465737981868 11.487221525697382
Se 11.966233390877456 10.837638686816616 14.27792728145955
Se 7.07310806584509 13.610041847618891 13.54562939297723
Se 15.755797111705096 11.84509287136089 13.784073955737254
Se 13.90661198458332 8.935410673215848 10.760443851669962
Se 10.972240675208685 16.91552487636928 8.266591325522112
Se 9.056590340439904 13.497409664901255 10.358113605218156
Se 16.572351865432168 14.192899696820444 9.84508971322592
Se 18.068218332722257 12.690223107711464 10.5360865708027
Se 10.942039110563577 7.396762331680856 14.661118886814005
Se 8.151022801268343 13.003243152644052 16.25660594862577
Se 16.498671419725067 10.077602330078086 14.963728191459248
Se 10.259610652777289 13.601189434736456 15.957969009545511
Se 14.154557833818988 9.960846312041177 8.696392664755486
Se 7.5798645410023795 16.046704174752165 15.467707672328304
Se 17.653785197089803 13.474073501810537 13.249629309831306
Se 12.674003930762506 15.384315269835925 9.158926066964163
Se 13.215101093110388 12.191164680591312 8.860802589825763
Se 14.365998460965956 13.324264752891025 10.570850075415239
Se 10.834045660767243 16.072573673399074 10.49135716123874
Se 10.543243212841494 8.00688626178541 12.377894751477514
Se 7.6349489159835136 11.572699694023882 10.504215256996758
Se 10.12890007326133 10.266882154539356 12.664986157847983
