35
Energy = -117.35604588 eV
Se 9.259300637419111 14.358418800876505 13.617585857271274
Se 14.190129973962549 17.160618866652786 11.128827417051653
Se 16.759302201675382 12.400597517266284 16.52771783653224
Se 14.276309119159992 10.121103246000853 8.728424571198374
Se 18.585449476350533 12.81977849515271 9.074980218296615
Se 11.532249002515728 14.951554759435176 9.098324037260074
Se 14.53087166194855 12.248718286194833 17.02821066696065
Se 12.590026492619046 9.566441583868428 15.04921512088065
Se 16.58541065836218 9.551222114755856 8.684444716925071
Se 11.47835727279076 13.413150953467879 13.727289606303334
Se 14.051701754250143 13.422256083342162 6.643282260643563
Se 7.266334125357288 10.688383957874736 14.643604621983448
Se 16.6908434629442 12.507327519348339 13.926448786842059
Se 8.247090556317804 11.541204546813445 12.81024669983918
Se 8.396915762539747 12.699975659704169 17.971933005063708
Se 11.887020425655962 14.229288388862585 6.740013697884223
Se 13.923133453981663 9.984746314312478 17.182478662754946
Se 11.634973322220686 12.29853107842863 11.683994449722501
Se 10.712935037511679 10.310351835518324 16.682295618881447
Se 18.54509442358192 15.071036194125604 11.9393235427395
Se 16.109358161434 17.370532624372643 9.902728852750426
Se 17.037420789383575 14.98062995497902 13.6710337931726
Se 13.816341261803649 11.046425126101617 6.6258478541722265
Se 10.421041393332041 14.199651485308085 17.413069391595986
Se 17.763061317596733 10.919317209744596 10.18730782010384
Se 17.319594118190935 14.794895923630788 9.886302740183135
Se 11.314712447989777 14.177088796887672 19.455632432330074
Se 6.8473303058339425 12.638112310673169 16.332275314758444
Se 9.15825777907589 16.28069142219427 16.796852915036155
Se 13.05402883498184 13.629870236345699 10.296057891979949
Se 12.365133299412173 7.406013298019216 14.641626009708371
Se 14.55702853139333 12.063074431372657 13.365435369135277
Se 8.79123283326681 9.25229690023879 16.071189801750354
Se 12.33400738832841 17.441093004579965 9.842487818964212
Se 9.966435270712761 16.454033627450233 14.621943153225203
