33
Energy = -110.85868315 eV
Se 10.184221268776385 13.898132015716044 17.404104494652
Se 11.572843031563997 9.157792060309848 17.311723295090026
Se 8.22081082188819 14.659646877703702 16.242084769013232
Se 18.138229183870695 16.37639475689456 11.963040011878295
Se 9.376621500620415 9.263868939471195 13.080886733114804
Se 17.30817453292816 8.000842283233846 8.540612962824753
Se 12.023459042716109 12.588508218818914 8.97169520527851
Se 8.62472753098234 11.257917438287569 10.01961699859736
Se 17.581876397558204 15.522846364129236 14.048559931385439
Se 11.555938505874764 18.032602720054435 11.683696099886012
Se 14.115341058010996 7.962311118249195 10.612509579032686
Se 17.01544192536233 11.438599740429009 10.067982974631295
Se 15.989931438372526 17.023149169374268 15.027517458709893
Se 10.315394595096025 12.805414525521805 10.569427897032673
Se 12.30763130700228 8.38980526216237 15.22763702456699
Se 12.649046841447129 12.32038319192152 19.121425708086605
Se 16.466789174205527 15.225327722220191 10.567094632799945
Se 14.99160814596248 7.058347725719149 8.775959258516155
Se 8.322890137146668 16.79538791610273 13.208596847765314
Se 9.425181033521147 9.14143612415682 10.753263080169372
Se 8.668030475509367 14.566515776111839 13.930970246190615
Se 15.01459114275731 11.698689352090708 11.25310645500297
Se 17.648151068053533 9.156464149882265 10.48866445632138
Se 11.626059632549966 9.967066655893115 13.609503315932207
Se 12.271650430019326 12.89423045783674 14.879865481870084
Se 13.356454050328276 10.764851363498662 9.824442630004182
Se 16.747571645062827 16.017370805381344 8.505020601366258
Se 10.190819330000657 18.091032909427884 13.72086695691337
Se 13.878390532208767 16.424388063099283 14.284320353632076
Se 13.4567772236719 10.50329789681086 18.085011048395973
Se 12.71511621201482 19.936703913967726 11.741445981044272
Se 11.747690735866115 15.547615011776925 17.618664588360627
Se 13.481933942610803 14.502453367305385 15.850076815495052
