30
Energy = -103.77376738 eV
Se 8.077471029405553 8.585824176176102 7.006035138726348
Se 7.286023376623177 10.769987429764754 6.6151655447192725
Se 10.427401844284656 8.720617183330324 7.228875496236303
Se 9.75832972259749 15.405319730903935 7.329957660974969
Se 11.59973864306902 6.273032497061586 9.87412036142401
Se 7.724543484334256 15.187256559393056 8.476092169057912
Se 14.363465967750729 11.465431239210346 8.507094701661348
Se 6.369057737123157 11.684711811051432 8.599400082451629
Se 10.860130838786159 8.48801874071002 9.538583429940228
Se 15.835101870732629 8.602146716749472 10.460001495791126
Se 11.095743779936894 16.676065700305074 8.83474799045201
Se 12.789505872783245 11.916596434236393 10.188813516399694
Se 9.75808914474984 4.804351093250195 9.996019031464819
Se 7.939070275957232 13.115252507108254 9.621298623553498
Se 16.35625502404159 10.726262639961806 9.563914877164544
Se 11.191140068451036 15.354838761151704 10.78433842760355
Se 13.173454652849363 14.099691770906142 11.078232320151345
Se 8.868468324104198 5.029882085485943 12.174238453635963
Se 7.130988603743169 8.399547446757254 11.479559344931998
Se 6.785539089293484 6.104456205996088 11.90075261672054
Se 16.061058722939325 8.901470856576514 12.810276634415748
Se 15.388289626751593 12.418834976601701 13.180308038594813
Se 10.465653101338587 11.444942482831634 13.047083146003855
Se 9.918480900121818 13.550095349844009 13.98855305531505
Se 13.274755830790577 14.987696738759762 15.079726510818128
Se 14.292492513893723 10.288629560128124 13.42806897142134
Se 7.144004283081632 9.576417306407322 13.526070584905503
Se 15.070690805487818 13.460818943242746 15.261472786964909
Se 9.382127643680946 9.733561665927029 14.261931858014316
Se 11.307601196371492 13.922915365245087 15.853941105559418
