37
Energy = -123.12125627 eV
Se 10.142792646331612 5.886583631438381 13.49735582937031
Se 13.849614581216604 3.321616756662799 8.957090730324353
Se 6.625286386826693 6.37096773598186 11.898327607952261
Se 9.06667178834029 6.407586479939592 11.572763489043378
Se 10.006372561349046 8.47079903851542 14.601397046999029
Se 13.605753268076427 5.445895884931877 9.57644070407961
Se 5.182621471371621 8.78102816831909 8.67597483793462
Se 5.760855948856827 8.494830564482717 12.42727858332541
Se 7.286400793340323 9.741466990989574 16.980416731788267
Se 15.486511500440136 7.01998080300741 8.902123346964105
Se 11.926333750275415 9.247894030942748 13.587214098432153
Se 15.17130444410327 7.250259542174971 6.270930583963228
Se 6.099835227959619 9.931450589986076 10.624021439998552
Se 9.107119785475856 10.575177623347697 16.025282132963365
Se 8.306525670870588 7.2870539138346215 8.207835621352157
Se 10.175498846721739 8.787433226400738 10.249930718437033
Se 6.4173910572769985 12.865192768440338 14.127008477060448
Se 6.056877484987108 10.156015940792473 7.12309602912029
Se 8.131290189983392 11.575969505874237 13.655492756011483
Se 10.966821241271951 10.418156945037307 11.718132025328519
Se 9.907659815230673 10.887042465525457 8.09865262519635
Se 14.391294745294978 8.809736749776281 9.662530072655077
Se 13.422580065273864 8.676495796765737 6.404740424770989
Se 7.421512757763068 16.070943166904158 11.392704541227092
Se 8.375266787107096 15.263364171028453 13.626818758152352
Se 8.637190044458299 14.997214933355728 9.811973869213341
Se 11.280839192401837 11.313448293269534 4.494384239721381
Se 12.379381830352289 12.835710064869293 9.544802493626365
Se 9.895960306058692 13.737338317932858 13.137715745001637
Se 9.770703093319058 12.231422549812034 6.100663786081152
Se 14.230833297526951 11.97431547735843 12.7128977040379
Se 14.122664031010506 10.910973065367225 6.858092937052443
Se 13.48313691259717 12.059161883506055 4.854797461013273
Se 10.71541416882725 16.289170257157597 9.632391781511489
Se 13.780554830765611 13.690730239033886 11.401591173550855
Se 12.030211011407603 14.837328149928663 8.367018658883826
Se 8.515039612823097 9.112365424602906 6.952232085149033
