33
Energy = -112.35855439 eV
Se 16.124516670346935 12.0988090333542 9.198549775082778
Se 7.176566846745513 15.477951796854944 11.25540035402863
Se 8.135021963664713 11.963295017675721 15.582505648998378
Se 10.339646429089678 13.117210691229115 8.126709430490651
Se 15.176215710383474 9.594834479134057 14.080702314257907
Se 16.470465012967658 9.90867079815456 10.54298995432354
Se 8.68831166040343 9.958168412698347 12.331158173164427
Se 8.489371735710476 12.557843595844062 13.346082454181376
Se 11.170894911804668 15.5662800851588 17.95775016357784
Se 14.782405510651307 16.54619864056319 17.083157524575167
Se 12.839517046337939 9.038859000905342 6.818991332668807
Se 16.048270033799653 14.901648938198598 15.90384651009321
Se 14.89607050155324 14.539421598267745 13.933124017019226
Se 10.283874950352601 11.896437967696396 16.60498900592202
Se 13.587015369891123 7.777951574321909 14.158532314747323
Se 14.592127868050325 8.590691267832316 10.135492653401064
Se 11.451159994705693 8.65391696832894 14.38934658585776
Se 10.674325534819987 15.437505207602392 7.858027863815111
Se 13.282897290195612 11.337045662900758 6.493950600857783
Se 15.99106698895685 14.727725999208968 8.521840508293918
Se 14.019776230003243 12.05899877763543 16.665784952660587
Se 15.704797712656166 10.258032704371276 16.2132041762298
Se 10.308892053009872 13.422018983468762 18.415763058949977
Se 10.850617447390295 16.229986109086752 10.077601005629843
Se 13.270209606856662 12.735191667762036 14.66101121660797
Se 13.42526483958394 15.590227083331555 18.744753426713036
Se 15.96487216180165 15.171297606223721 10.759889596984294
Se 15.951662344721097 12.795566236789961 11.44649850509514
Se 14.744586473412793 8.079825206101681 7.806920685957228
Se 10.849570501356245 9.320000928302802 12.111405734256186
Se 8.779650590955189 17.157346593467047 10.6938556433386
Se 7.339550496662244 14.852009420439703 13.473404706513872
Se 12.520432129881913 12.291954065938974 8.520544850393351
