32
Energy = -107.050084 eV
Se 15.475564592653745 16.15135927040279 13.05246559863876
Se 15.166563073138628 11.702943330437671 11.691181795778702
Se 12.755187521075667 8.755126498142696 15.87408327010646
Se 6.655016564355569 8.900153633933416 11.278070103868567
Se 10.829100546761294 7.210686597330467 8.499913308920258
Se 8.56962801793327 14.563120646916698 9.017372986569434
Se 14.89970352260086 9.235885104636372 15.51487379175946
Se 10.36617405525919 6.624201388586639 14.168199795133297
Se 14.115434833256723 7.4190669610485465 10.27240219852443
Se 16.709758868870775 14.776671658769223 7.167743488261548
Se 9.83845957674375 10.370585301572515 13.835188593165729
Se 8.357340866747977 7.570775864188038 14.586158280258267
Se 14.694444885082458 17.979690011562923 16.20843637221454
Se 13.755594399996951 15.92346961289178 16.972783140902244
Se 16.474796024303327 12.494150423911844 9.978470178177243
Se 12.8442042865788 16.811329104107145 10.58158016051931
Se 8.160419102814608 12.277027080649678 9.739772981219605
Se 6.755907612911613 7.119975847673053 12.83914249725973
Se 17.237829909798155 17.546769588005432 13.559313680782383
Se 11.569352089311911 9.015300760377006 13.586089571811934
Se 9.066182292463763 8.707844358630341 8.183044308974106
Se 16.994122424621633 17.726643193762172 15.987236450188322
Se 12.981978570257901 14.622432568306317 15.167733808277235
Se 9.241731786958088 15.544177342244579 11.037322081152999
Se 14.288663338295029 12.620347988327163 15.188278456231291
Se 12.108149569243144 8.388078328904186 10.223529018972714
Se 11.509035177816486 14.963139253294894 11.30848412985848
Se 16.105225447048156 12.69197984190721 13.717355529163235
Se 13.646675784039296 17.70165692536537 12.578482840256072
Se 15.466381170088573 14.543787061341638 9.004541927843617
Se 7.097298977973757 7.863122767701511 9.196441591969242
Se 5.954291655056044 11.868718229128184 9.67452460729828
