37
Energy = -123.08731728 eV
Se 13.169027459376611 16.407819927461116 17.621925252529376
Se 7.386341751064627 13.468280009436391 15.329533167480188
Se 17.21563686881965 10.824611018061864 14.730251388989519
Se 20.78049351134286 9.647926565151186 14.57390598422078
Se 18.90714173719727 12.596758537854127 16.086855261384454
Se 19.07052351659501 14.934027587267257 18.666312381160093
Se 16.71316793515457 21.42633282127674 12.554266673319818
Se 16.541919042351296 16.804924261782133 9.876049894459824
Se 12.755841159773523 13.41738625261754 19.914040875566375
Se 14.006393190551758 17.84009158971019 7.387624480121089
Se 14.398367372100914 17.418329673759413 14.556910798045177
Se 20.725083786085097 16.61553058373482 19.6080925894215
Se 20.58985342707607 11.903450814259427 14.248090599004522
Se 20.713969155119134 13.99356370043674 17.286262314074442
Se 15.162272997828293 15.493910832266906 8.800915317139811
Se 14.181910472816046 18.218987227385888 11.077728802925765
Se 15.833469821834457 20.613885267031794 15.957802010058064
Se 9.476287145551828 15.302997053576485 17.66636995965767
Se 15.320602435068245 19.160551378539818 8.534536379296291
Se 17.56267289041389 18.31117434106355 20.30126072557801
Se 8.540610160044066 11.16937821078501 15.359628798917333
Se 16.682374130274358 20.40694453701812 19.571643614305778
Se 13.782815443513089 15.66197443864418 19.764315107335275
Se 0.312044019665409 15.941774948804449 18.389707799755524
Se 10.88941385530685 17.136539011543665 17.78327608859331
Se 13.82358214747054 11.589924280439092 16.739879986227635
Se 16.836220190929588 13.58307140840446 17.5196091563678
Se 17.581635638732337 20.991091257546564 17.46849734713171
Se 16.343244450375852 18.375674463852295 15.110935722858917
Se 16.617107176805735 16.548105607478515 19.12745053528882
Se 10.702729054715617 11.596698698668526 15.104030071018663
Se 17.323124691675492 19.30543131890106 12.65195621012745
Se 15.261186748352047 13.17119828309312 15.757939792705448
Se 12.845839898294678 16.85250678973178 10.009600340507971
Se 12.085029446505686 12.90476643411641 17.739257335013946
Se 9.14990898003454 14.875667641610864 15.254741378617
Se 18.45928866113033 8.906885186740125 14.522566862312583
