33
Energy = -109.24255032 eV
Se 14.51907950687244 11.833371433983 12.587952767079061
Se 13.027981413122028 7.19747608220747 7.574132755718734
Se 11.568395100401714 12.684857801981757 18.02429967803346
Se 16.311268133818544 7.9753968923382255 11.073461434952831
Se 14.251407368184587 16.310082253443685 11.641928326211588
Se 7.795921016608107 14.684948526395477 12.032303327681491
Se 12.069599474506614 10.37980628912411 17.529130694947447
Se 11.625023101745965 6.9850574207546465 9.442842028343101
Se 10.972539586424489 15.126148769233275 9.78102717454425
Se 9.023470505891893 11.968252876214715 9.008623202353576
Se 14.242488311609256 9.221973706750012 8.081919762846944
Se 8.587319958638934 17.6542576424898 14.053259078569548
Se 16.17404290208183 15.106754240073197 11.696756912561233
Se 16.356765668586633 8.572523694821047 8.637659980570222
Se 10.837014718231904 12.5226814722752 11.143187871571914
Se 15.607669001578628 12.961190394650327 10.801277399241052
Se 14.393254480494107 16.89256397884688 9.052279930118976
Se 12.639255696666332 15.136241811096927 8.282320914416875
Se 9.608964734905499 10.067601647954048 17.003552999012772
Se 14.370986787839772 10.699694226335401 16.300388501208374
Se 13.778054390600245 13.525541889702044 18.23352152954704
Se 12.994385317958406 6.199606875926081 11.17969602910177
Se 8.684599576347159 12.10824116726515 17.164948224345235
Se 8.145372385611854 15.845322525474831 15.260164352361915
Se 14.1529875303267 8.246483655219096 11.760476195786973
Se 11.081653731387785 11.1675876533276 8.544977666004373
Se 9.589333453229948 13.571066318533761 13.120689265569641
Se 12.545783283711824 13.079698107869673 12.933749283175256
Se 8.491980022124658 16.83377772256892 11.64310015052026
Se 10.293789640092406 9.97805513273906 11.854846218412387
Se 14.365453954161488 12.98832305681385 15.987195580016893
Se 16.355282430324706 16.05398302995099 8.468305823236117
Se 9.265599597600406 10.148154485326248 13.826747723625
