36
Energy = -122.32804293 eV
Se 13.46255081599322 15.045156194504036 11.936275195405894
Se 6.040641177842536 13.394043708638463 11.64407690103342
Se 9.772838242341674 10.69797673504733 8.657390956363681
Se 13.360874077679785 8.989899422881047 7.731880418710639
Se 10.16445103666873 9.047809962115664 15.367473833235675
Se 8.954524128403788 14.503487029087339 9.40222791560009
Se 10.869356564018831 8.132356356912917 10.669343736191268
Se 8.171544576259135 12.333316752217463 14.538563152510536
Se 15.340404160403853 12.728664891634285 9.328042253054825
Se 6.868165978097396 14.09927555130501 13.792438538501758
Se 6.824470495343591 7.379535902984205 11.42044851729422
Se 10.296119152868771 6.413462621181365 12.135428007001309
Se 7.474864899683237 9.43669640641903 12.642237586035856
Se 14.71803391117787 7.812788082236509 11.126007561716687
Se 12.889572595067373 11.126799243386014 11.353250140078032
Se 13.20421698955167 12.488947327427928 6.053611255694719
Se 14.568098846811221 9.869700941608818 12.346670934046099
Se 10.696613616795036 10.230542550608426 12.09305834379899
Se 10.57685709069182 12.681396131309784 13.973761263129848
Se 9.685511223996686 12.058261335115498 10.706709712872563
Se 12.145668088287318 6.246201564608172 13.59639687258324
Se 15.29548728445753 8.357201549820138 8.91647326429237
Se 7.030129187202999 7.544002036884213 9.106938535479186
Se 10.076883677175973 7.305592125116324 6.64473168303998
Se 7.759244722386419 8.534132105442605 14.769496493075785
Se 15.022255056349827 13.504698929987484 7.086297325150455
Se 11.576778839077951 11.640148123531857 15.747086540049764
Se 8.674372925936636 6.090009960819067 8.15784620141005
Se 9.529076253204932 12.235476816177398 6.905101937142019
Se 11.296258728383014 13.79412319062464 6.71086921043398
Se 6.717605342091242 15.004952568966724 10.10132317189691
Se 9.865934278292022 15.861335297520823 11.268271488166661
Se 11.994697552183107 16.58633807415607 10.784799571182257
Se 12.384730387255424 6.962171138681541 6.856311499036411
Se 15.341357403888077 14.743930051018333 10.585949366115349
Se 11.193754848675248 6.963512929092345 15.687154864125796
