31
Energy = -104.24339607 eV
Se 10.736056863516922 8.41559091847015 11.237530381692194
Se 17.318176328240472 16.93044503485572 11.095866188809131
Se 12.14480517070816 15.401991630480216 10.066949337266955
Se 18.12443850520831 10.638807400759909 12.985337951269146
Se 17.509818477474905 12.323647177549779 11.350843186616023
Se 12.301607102976497 11.183113171628591 14.25462055105729
Se 13.831027590676165 14.514956820754742 19.130736956816648
Se 15.88627906871733 11.330852043094797 10.022803751826551
Se 10.844372050919176 12.537117338544265 18.17821101363428
Se 9.830372732228533 15.076722485544233 13.29097839893951
Se 10.141149029142365 11.447428598403677 13.267287025362034
Se 15.087791865772642 15.111510748404314 17.198688331734463
Se 6.224935665428177 12.12138576183267 10.732657591987284
Se 9.450385557319462 9.173185267013787 13.075186637783556
Se 13.595341407639742 10.415740066381542 12.417491202941381
Se 7.501330784315746 14.858796886074938 13.247161617777
Se 10.238464159344014 16.134130169978516 11.148786031842652
Se 17.372293663055924 10.357645012847033 8.296350528538202
Se 15.960802121212705 11.515997805479305 16.07166731788787
Se 16.269605843792746 15.263053994922277 10.116281114420213
Se 11.80551602142328 13.513328285832804 8.61219173230757
Se 11.572516286936136 14.825894802551984 18.652272895803357
Se 9.434307490989431 12.567893321689896 16.42675681695179
Se 12.886123662058008 8.168222330561642 12.193021257418165
Se 9.794007897237982 14.057033501492349 7.519943551716137
Se 8.202121757934933 11.174879984933082 9.766639886417048
Se 6.8767423407359365 12.57821266220511 12.937998678601996
Se 18.073398154265025 11.780599997777076 15.017751934149072
Se 16.059162820719465 9.412319120134867 6.770497494341776
Se 14.677834314479831 13.442480040895019 15.590342634892233
Se 8.549299010417831 12.02710136379289 7.627231744085956
