39
Energy = -131.29668973 eV
Se 13.57280328564496 6.684575201028322 9.982826311150582
Se 6.96411258440056 12.523595967877762 7.293601298201856
Se 8.439040900972133 5.976163127246876 12.990159246168423
Se 8.6289300307621 13.859720136783181 14.08711288825498
Se 9.765789083566915 8.929984591502818 10.876789422977868
Se 5.8987636065460265 9.466933205267097 9.381212658998974
Se 12.924883577588478 15.088427311015952 13.268899736011544
Se 13.125793030948838 11.447277000363606 6.564441518882373
Se 10.697064715879602 15.266935980099595 6.20753776036193
Se 13.199893237739156 9.105731058342093 10.423093857593548
Se 15.533549985471137 9.38353949518192 10.37653923732967
Se 14.611004049198689 12.036984930025826 15.923142771925406
Se 11.33813291521921 15.827544177135506 8.249169513149498
Se 9.658986628991576 14.558408738977954 10.560842991458614
Se 14.406831795909076 6.201904614505272 12.06232988814558
Se 7.668651029784656 7.131851723129225 14.751074315141748
Se 12.31532658580296 12.579703222337093 15.870374996596746
Se 10.950460818327677 6.365478796717165 13.148556097095385
Se 10.286473824203911 9.853374088975876 14.113103443735167
Se 16.14938338196559 8.13692026413853 12.423719327187692
Se 7.870548729350279 12.127548230105011 5.160046575962966
Se 11.672123532114128 11.19001908844017 4.730538024977391
Se 9.517885781824953 10.427151334043225 5.31655145579732
Se 12.551924760319922 11.818520731494642 11.501535034113395
Se 8.909351174531862 11.09248039520168 10.613801558669143
Se 13.852799087666078 13.756230664035208 6.450499629633657
Se 15.225364675935143 14.55057199472996 13.296522342311395
Se 5.305441757174045 10.838749145706185 7.550182166315467
Se 10.97393722473212 12.32724032593064 9.957982173461641
Se 13.642102639343012 14.702565587766601 8.50224997124873
Se 7.761766088977427 14.12028953178571 11.864456241588657
Se 10.947401455460344 7.758059318832136 14.98922459732301
Se 7.025780096206625 7.47827092715072 8.793731470316631
Se 7.843565347369619 9.861168194441445 14.269240549822598
Se 15.234435688170812 9.1255434224885 14.239965251348098
Se 12.34131630129821 14.941406150751845 15.555823815362952
Se 15.229133733618616 12.154161437297693 13.620810994575322
Se 7.480463454017277 12.174908063758986 15.168949089584032
Se 9.341106576888954 7.9923849658294515 8.725684951142744
