39
Energy = -119.03288406 eV
Se 16.93801788463639 7.196695638412529 9.411770736603302
Se 13.945944750734714 8.477019799716842 7.806286580377779
Se 11.078541114482581 15.171160202651219 7.9016961256075025
Se 15.316496116079835 6.216759448991731 8.560891902608052
Se 15.959535543025012 14.348465672242552 9.164403853615463
Se 16.173512244663698 9.910610682114834 9.17923247230369
Se 10.141450290584368 13.15704847803753 9.217539950651634
Se 9.931406660992375 10.53400000549354 10.015282661438448
Se 13.385267811633755 13.81824251915347 8.398848851667537
Se 15.856503943561052 12.216847708371262 10.699025835862377
Se 8.438542816464457 10.820301032083119 11.802973406541179
Se 11.890648669597363 8.753664297573254 9.283371957525393
Se 11.464855062847551 16.175205416413867 10.251708795651297
Se 14.887258050580137 7.615950998212549 11.335270460588013
Se 6.102186717656186 12.025376281439721 11.10271537004862
Se 7.9879937385364155 13.648298875615092 10.395502179822929
Se 14.968583750213242 15.489997796355214 11.27438821383566
Se 12.972491504467746 17.50500741877729 11.463921169116093
Se 12.80005812641479 11.898716242620726 9.717356177131972
Se 7.757748686496762 15.200389084588243 12.856720147991188
Se 13.198362477105308 11.941961542995587 12.178488170144668
Se 10.773414933983872 12.150992315634285 13.446598015952798
Se 13.09002825040267 8.868152932929961 12.009209637639934
Se 6.84293802179659 13.269300214145733 13.225404159174335
Se 9.00853839296912 8.884804012959025 13.25205383783021
Se 14.825726373698691 14.050411963545397 13.424295930386982
Se 16.347864766030053 11.902614304882908 13.102028080370529
Se 12.652718771613696 16.27151288450281 13.779879055309557
Se 10.487744537500195 14.336245762706508 12.265193772280533
Se 11.159289157964677 7.561942111171985 13.697934330340184
Se 10.29025426307669 16.071969310609013 14.48628194151617
Se 14.785506247409401 9.537380160866286 14.065688771266636
Se 8.652777889680058 11.672895847452239 15.379575819530688
Se 11.04687528816842 9.080978987443732 15.38949898801544
Se 14.179146192790435 15.430758301549679 15.84630879620975
Se 13.248131355649528 10.773433967784264 15.459238347186313
Se 8.16482572501 9.534411652273898 16.234264472721314
Se 12.62565384320175 13.773210129401553 16.086500609713532
Se 9.743942426295039 13.828048396294502 15.95343281343641
