35
Energy = -117.73189384 eV
Se 12.729572666400994 13.798983915652617 13.031858583836188
Se 11.040038882586547 9.319549830776381 13.88496418780021
Se 9.720451061629943 7.481965823810034 13.045517331689464
Se 6.163127016307072 12.70815225888468 9.206873818187157
Se 14.519614790267589 12.5879524582446 6.697906979939166
Se 10.455214745424607 13.812137101031658 7.618488210672793
Se 11.41892105445159 14.188260826160459 18.620961885590948
Se 14.276579368565502 10.491536524576329 7.75248776512844
Se 7.8380421567605625 14.713231097598614 14.858920884826249
Se 16.29910570454291 13.701697874959043 11.689629222044097
Se 15.671384006945406 10.364809511491194 11.064432894595779
Se 11.734371950532566 11.364749796426842 16.110319781153503
Se 14.216899480742256 14.3507910794535 8.246424038231137
Se 16.76270939031011 13.23892869111106 15.364841124435666
Se 16.333561412812703 16.88721403836038 13.782148043383355
Se 16.20043190317627 16.19866608122967 11.641528969463028
Se 7.939988682741511 14.719397194770261 17.194760736904037
Se 6.829335892970457 10.722582729308458 8.474329198947437
Se 10.50524501829024 13.302907011554835 12.452362191806216
Se 12.123758905905177 13.961542719084887 9.292187988324098
Se 10.421669445177463 11.53943707151511 7.103567141177489
Se 16.877849272483154 10.98176027182354 16.016451512497714
Se 9.75817020201642 8.273189211016906 8.628379946652705
Se 12.776393187920696 16.22252782720922 12.832419881086704
Se 16.292429579354962 9.865974400946541 8.75037980526524
Se 13.376684252909797 9.793233800624412 16.794585884821423
Se 17.08069636949047 9.203424405172836 12.352244965035565
Se 9.924760933876982 15.842157859553764 17.854026844927596
Se 8.978450124120219 9.731093711600163 12.762418699836786
Se 15.046149710310573 9.785867257993363 15.101060604523859
Se 17.933827845173145 13.357625061228386 13.295596592490881
Se 12.621278057806679 13.522083755265365 16.7054418207645
Se 9.356889706265834 10.409341903999396 9.0929829160974
Se 13.917735626284605 16.999202608207998 14.6333277495936
Se 9.03133759761843 12.730700291530407 14.21884780044181
