31
Energy = -103.38764357 eV
Se 7.135630339261261 14.148415158730646 9.263100450128553
Se 7.6571123244380175 11.302445475782692 6.821147896639417
Se 15.91546556031738 12.328278494222314 14.427362179033539
Se 10.37101370227542 16.12845442331981 13.17478322192742
Se 9.252144571249943 13.354945019708397 10.585349986658537
Se 12.48906587802208 10.566133121479718 14.124976406806931
Se 13.554450521504577 10.554283887379064 9.534738923321926
Se 12.845380163037941 16.367450677054332 12.395619457287822
Se 9.918810783893862 8.895194000531115 11.91120015252169
Se 12.661265155699676 10.871007705393287 7.403683556923379
Se 7.731455496634803 10.230147776252386 11.921119431551858
Se 16.711078717665753 15.612111126166612 13.022311342466024
Se 16.202320844820644 13.398042877484889 16.434646221133235
Se 11.906076814064406 12.958629913917903 11.28444241907786
Se 16.73276070041116 9.10032925402969 10.800204559288082
Se 18.158958629811753 10.457372193729793 16.857483057293862
Se 12.63682602988828 15.020505638321815 10.485739163820636
Se 12.838553218613555 13.835154714341604 17.967320698846315
Se 17.425332353663503 10.306723371073247 14.776985448259609
Se 14.741665771226554 12.453628243874178 18.067283003167628
Se 10.951374002073443 9.2683000003307 7.016261026433402
Se 8.28454677787886 12.335316796443713 12.610114801948653
Se 9.137436103039732 15.73404947664436 11.30501308069466
Se 9.088572057545418 6.860721936042973 11.555576095165533
Se 15.544421230362264 16.996246565440565 11.746031817537883
Se 8.210234120469313 13.566043860639413 7.267918216930112
Se 10.738187084610503 9.046663047158479 14.279086066010933
Se 11.562780247653848 12.72627822869884 14.562402513922747
Se 11.118697316553286 12.629154177095069 16.893911816513363
Se 15.276576513035973 8.830389052424069 9.128165282306343
Se 9.008878682541345 9.924655498553044 8.183093418647106
