30
Energy = -103.5347993 eV
Se 9.160845575456129 7.4658446318108505 5.505223752050309
Se 11.694270512030394 14.579435037384146 6.068787589338887
Se 12.885773571730473 14.013549401242182 7.923518333669924
Se 10.52724321378486 8.962009238557641 6.7019728254342805
Se 9.416678391204375 14.944063638922236 6.9945349795903535
Se 5.691517829709847 6.7685694242035765 6.941320483059814
Se 12.580119956685417 7.766519066700315 6.955021008110999
Se 7.942300381431691 6.051040158036287 6.963139148917487
Se 12.461462885761156 11.636707813763095 8.358519516094495
Se 5.1245811415383375 10.136872631840253 8.596322893113815
Se 7.104386545301487 10.870496479808892 9.62911232274331
Se 9.760396010227673 15.605639378260825 9.17194601553887
Se 5.09313370352692 7.796730609532931 8.978768481718001
Se 13.038313603648417 7.481067475189908 9.227064559191295
Se 14.608712620439654 10.88506204155918 8.918500027990659
Se 11.91813975549491 5.457191446251431 9.919599456127926
Se 8.402536392051571 6.775555491664871 10.736366504940897
Se 9.547449239496856 13.594192072829172 10.475978602009592
Se 14.948007044521525 11.395170516721835 11.216921223720256
Se 6.47013695028625 11.742313250120908 11.745504429952605
Se 11.68283255337246 12.990872465687312 11.297851444535098
Se 5.640769803922725 10.007072302467378 13.095760761824367
Se 10.569386403673263 6.1017301593641555 11.67743450685056
Se 12.541887897031224 9.072623997654672 13.286969422517588
Se 14.735296287050309 9.411525446540429 12.493623334685662
Se 7.229637099525436 6.656282054050201 12.737519717046489
Se 10.71551509110195 12.011477685884755 14.727718687765384
Se 7.438218608187071 8.715101487082233 13.915080546741063
Se 11.774863053463045 13.762291223803718 13.548643028093409
Se 12.351668831699236 10.399074326418935 15.24735734998074
