32
Energy = -107.42265462 eV
Se 11.884379388236487 5.972308756322727 10.983745001675457
Se 16.582094063382833 14.601392774453474 7.858545759030196
Se 16.942283883430864 14.655051661548415 17.82618513447238
Se 15.988222991875364 12.322470822541288 7.928763018806594
Se 12.429607134399111 15.990428893966232 13.436510232017532
Se 10.846793415742813 15.648422135922306 16.69836295741334
Se 14.759071353042573 15.94056872730367 8.544418078324213
Se 13.6957709832979 6.218485333907235 12.301117395283478
Se 9.74844141876815 12.59088299959863 14.907814031429567
Se 14.73782515398488 11.708087851129465 17.11012784171349
Se 14.3102634612728 15.805851487213134 15.049456483835703
Se 13.450764500399723 14.169606578763368 19.328788700882697
Se 13.372181628811042 19.925595489127172 12.798709690536066
Se 11.674474967426548 13.69647833064825 18.097686755172415
Se 14.361699202564829 9.013698320319914 11.100372515994708
Se 15.246677713678569 19.382896529379813 15.943882699319694
Se 19.167717215618826 14.804526861677486 17.912486840509118
Se 12.699226497454113 12.18440359398233 16.160671021715824
Se 12.35282663230636 9.33123434750471 9.941870696818635
Se 15.61532903458431 18.92026349761008 13.800996096409607
Se 8.920805565823287 14.498703584811079 16.034711619294498
Se 10.645309030600542 9.511043150108494 11.63764826832918
Se 9.945727514946128 6.6079693439550375 11.953084363137817
Se 15.194105326030991 11.253539641777582 11.536594514993034
Se 10.503315439055187 13.179540442547475 12.696721325899237
Se 16.89392612099952 11.451127368967747 9.941353106620836
Se 12.431661735793801 20.737617911853047 14.620073778844505
Se 14.044973622888758 17.229931751712225 16.781824274095186
Se 9.448611990365912 11.558273276146965 11.346506600914713
Se 13.651221935960582 14.754020428290884 11.900261742058678
Se 15.133610436260403 16.3389379792047 10.825112127777302
Se 16.427500759507907 13.017047881738792 16.085168630541805
