38
Energy = -125.01674396 eV
Se 13.09256025312148 15.709552583123774 20.808955368613905
Se 14.13362447774052 14.533408720596244 16.69372787348962
Se 14.255904264594124 17.336964313069572 23.773715339153235
Se 14.068671225887451 22.728761428190307 12.693400571649349
Se 13.802020891340817 14.422544205067208 9.793506447668294
Se 12.268242497456278 21.277857816597976 17.088709804965458
Se 13.891459609803029 11.419510114518623 11.921856940722169
Se 16.156346439897995 13.657450025105565 20.61719783526308
Se 15.620027590029737 13.098323356677563 12.11179216107689
Se 16.191283442917268 12.34437077273627 14.378886490954402
Se 20.38504314033133 17.903885094101604 17.684996423173924
Se 14.774426157646529 19.535165303710603 14.684061295059426
Se 17.38521636096138 17.826048392846598 19.75947105991482
Se 11.371916465833626 20.696346320909946 14.152951803949508
Se 13.744992772205563 13.438492463370652 20.549646523772083
Se 17.015900249177662 12.350830073451323 18.977752902739063
Se 14.676431199011986 16.923415414774926 19.47661034631094
Se 12.625988877562111 22.82628827893791 14.537383886747092
Se 12.52574228801534 12.668082373844364 10.370937103283623
Se 13.145085856447729 18.215021618053594 1.3567625304465705
Se 15.79534460930271 21.36325212154459 13.631029485447176
Se 20.578532525376243 16.0645955021557 19.202519728131705
Se 14.073445489800186 16.81764870747897 17.125170814666077
Se 19.287218314975192 19.20336814565737 19.29002477367217
Se 18.303037829435905 15.6018027989667 19.215744726481926
Se 18.317910112212605 16.946812913646923 11.727346351279843
Se 17.97010224591107 14.710145659590479 11.696195615544614
Se 19.238274186195948 9.290072854566771 16.80133076302497
Se 14.352390342454314 20.33118425715522 16.931000461124903
Se 20.21210448053437 10.950542047226703 18.199671192651582
Se 11.386995237404301 20.459412581532536 11.892317390026827
Se 16.401988320850155 14.0164196400921 15.984161537946466
Se 20.799129134367174 7.616422734565429 16.984163237493277
Se 16.41409833143664 18.342456482934786 11.405262912221962
Se 21.984832654686006 11.068008711497507 16.569936870622364
Se 12.804473494560595 18.63397728355291 10.718411557664817
Se 22.894230540098825 8.9750790487555 16.79502927708861
Se 14.228534880511928 17.180332430229598 11.706998345355492
