37
Energy = -117.51521058 eV
Se 20.439785717579703 20.874274957595052 16.499787349067937
Se 21.293756334450592 18.614496373991848 12.994312585489576
Se 13.915720140656825 17.625478998054778 10.857067230675964
Se 17.404617723074885 8.307459505662687 20.379998230182174
Se 16.738539567421654 19.7450607403637 11.50142549569788
Se 19.316960316840788 21.822306589395026 14.838446112752145
Se 12.799122064433348 21.31978810009781 12.08420530056199
Se 16.264395102297815 7.2128205310612 18.546872290898225
Se 9.786036355808731 16.228351192456923 18.222791957237074
Se 0.3459608676433876 21.820819165191097 20.38345463838654
Se 10.288531498202568 18.000572239022475 13.588262771274577
Se 17.142647233260234 14.123716519183695 20.55998643090092
Se 18.72865237527307 10.872920561607675 21.662995982825837
Se 21.838431827488805 22.15128522046365 19.29225275566206
Se 11.227105089642583 19.640175595542512 11.85296868620465
Se 15.686376274920498 17.369401052898787 9.28488762216493
Se 14.869065807728733 12.803996008515355 20.146100588014875
Se 12.203919853376439 13.187944338733587 19.061699994308768
Se 14.659578383505025 8.491787676278033 16.166469471138285
Se 22.25450066166708 18.948144890613694 14.897738167842697
Se 17.994519134886723 12.897132418408233 22.332897360602043
Se 19.2106789319693 17.99922151689516 10.863693912047173
Se 0.21250568069390283 19.502373181168693 17.501274658834262
Se 14.198725507550243 10.670366487751705 16.539227461455607
Se 1.5657530281095149 19.975687108400134 19.202163308941852
Se 11.083522053727245 14.565993018725505 11.740911453097347
Se 14.737624750103441 20.910504224116842 10.781439857185516
Se 15.243992757843504 11.04328281680281 21.530147214741223
Se 12.000128857567777 16.411764620235243 10.39143887801201
Se 11.064749680699647 14.844226419689708 14.061702382315802
Se 17.8188165139518 16.446758319578624 9.897675983901243
Se 9.359889779096747 18.31861971870888 15.586283206401129
Se 18.050933880500857 21.189353197020445 12.737096486917734
Se 12.319669514090563 12.62591387093692 14.176855623926318
Se 11.011161559918513 14.427780335807185 17.500087422527923
Se 16.150946812223037 9.848768283407194 19.47913041567151
Se 11.89834880798737 10.997081874194643 15.78716743648944
