33
Energy = -108.2225074 eV
Se 10.173732856357745 18.393324170390688 10.241774124706279
Se 16.82905901417709 8.112819769630558 10.242313149836072
Se 11.45457727283145 17.705281759420792 11.887542982483597
Se 12.622888130410768 12.916643709599848 12.418561912962742
Se 15.518184029110827 13.955126677379294 16.630040090390654
Se 15.138250175543678 17.301062106804334 13.011393773191855
Se 7.634931841982884 6.487841909770655 13.122187251771102
Se 10.692078366367964 10.591447951441266 13.703423873498888
Se 16.425297682996582 15.24454736388653 13.102354419329766
Se 14.8143219799675 10.934859592451572 15.542633557482095
Se 10.075173093391564 12.686722778771344 14.539671117087064
Se 9.679815814627268 15.083161015427105 11.567513430844038
Se 15.099194603231624 19.13991568045885 16.25387313928791
Se 8.71148485030374 16.287055030094717 9.99389398653125
Se 14.641393729871101 7.77663575247269 12.172928999223892
Se 16.369788924503307 18.935174649844623 13.98958109770241
Se 15.575137745953336 9.406886482783923 9.001053103711536
Se 16.479151219015304 10.115766579024854 12.526158631190407
Se 11.894777685615239 13.26711170677638 10.280219787808623
Se 15.186768912571145 11.288838449550452 11.192027663556098
Se 11.409849257732892 11.38007810168401 9.168426870663694
Se 11.251373027208516 14.512633825383949 17.73688468854291
Se 13.394412040235355 17.75311109378233 16.14468462648117
Se 16.471667694275517 15.217265213878928 8.451132857465996
Se 12.080650812449514 13.411197572529979 15.987665061478202
Se 17.18011586899078 14.89015030076416 15.312759479840636
Se 13.312153003267815 9.01280344164804 10.940120273343299
Se 7.5470245503446955 8.570994122018918 13.922373799301985
Se 9.624267935078393 9.016765388503737 15.109502568025505
Se 15.038078102134284 14.887935587493015 10.089434213868035
Se 14.84537266419132 15.963998384890534 18.074903286191727
Se 12.925130554361754 11.056785567704775 16.73198128775602
Se 16.554432033070334 17.375023082997235 18.108792409990976
