32
Energy = -108.85056364 eV
Se 17.35513014540096 9.511610679829086 12.346024063901515
Se 16.107642019105658 14.230221721493962 16.05822706995842
Se 10.419568952643278 12.499978196750122 15.857858730251715
Se 16.014002224308353 8.843050293761522 14.17785131214933
Se 13.86309230238759 6.8339003239263665 8.950875104742687
Se 13.330937136119998 12.99356709533043 10.918001511503086
Se 13.707334450268343 17.343431420418707 12.41695675425508
Se 16.037446802162417 7.4955130176841225 9.4460036011723
Se 15.222735477793387 17.428991150207302 15.02591388732262
Se 9.796098535956643 16.97698872905223 14.20500238287772
Se 9.156950152220547 16.224852644711053 10.66274972613491
Se 15.049492341517507 10.75149032853631 15.160740756884492
Se 12.961438877353023 5.550971197524278 10.779567792415303
Se 10.892741748767428 8.372035886321466 12.21469231164646
Se 16.043119984473822 9.691536490926875 10.410763837444291
Se 15.612323183076056 15.521909987927312 13.82775756570604
Se 12.877930401000288 10.783155373262888 14.174623008619532
Se 10.903141302555275 15.995693554977892 12.377332608140494
Se 15.147426203741695 19.15438364326711 9.875427868531597
Se 10.770863306387406 6.366358215983786 10.975662399781033
Se 10.595598160907961 7.940919790303181 14.53448223755185
Se 9.967517484104098 14.996545927423952 8.89168207203168
Se 9.041995290661616 11.279038141637308 14.355235028024923
Se 12.98340064517005 18.467643297136185 10.22919428885089
Se 15.72318362702657 16.13253834343487 17.244468859055218
Se 8.202261718811434 15.416362129160886 15.018239778829809
Se 15.907682511527874 18.03155464967375 12.064183838668352
Se 11.89123487881888 11.825881023586083 9.432796128742249
Se 9.046168580955058 14.179201601441077 16.832473153001363
Se 9.730826930347435 12.710042857286858 9.605390410731161
Se 8.595088456059687 9.083423099994013 15.086113617386868
Se 12.49970035368757 12.868577030337976 13.116811077788281
