33
Energy = -111.23888475 eV
Se 9.458305386689007 11.866308496527585 8.331351482212579
Se 14.028984910345502 13.144393510862582 4.703592546945137
Se 17.27016489664287 11.47516768055586 13.919584251999304
Se 16.835869502190807 12.16440773055317 16.18398799449057
Se 10.209270807969386 16.471508685441357 13.32867785112818
Se 12.646170362746767 11.043012496172974 10.368773177585929
Se 15.340245414343276 13.753025869280076 6.371678881557548
Se 13.73527334469142 14.39105475772176 8.262786623271458
Se 14.945355708424309 13.503082698260581 16.12776191232532
Se 11.532051125968902 12.828990702247529 13.317489770501991
Se 14.777250178041758 15.77132234680836 13.287960903675279
Se 11.786132979801486 14.415631816053173 7.064919716333893
Se 10.412606020881736 10.430004780928812 10.000094180081136
Se 15.392013642477165 10.485854771406018 12.976595522947934
Se 11.994360885004852 8.682204189845091 17.41112432172523
Se 10.90452371766388 18.27104466930939 14.510225732282985
Se 17.025059013517797 16.041733549706898 12.72714185937008
Se 17.84119050210796 17.60165705006367 14.427392065320323
Se 13.152241531781382 7.610921125458952 13.844571292629672
Se 12.93194590251694 19.14422183474168 13.287610137581929
Se 8.731878012562008 10.555151425277648 17.54187140369257
Se 8.408935998936538 14.238553059339836 17.666844283561417
Se 11.828042868476738 12.631237022112634 18.044314734266653
Se 19.661273925699874 18.545393702503677 13.553597831193489
Se 15.380671936611757 8.107103751385075 13.338873875491856
Se 13.530731914867173 17.387026002592 11.957366312149267
Se 11.074388949986052 12.162338229018824 6.672034798575128
Se 11.686108689163065 14.809491372791978 14.464083904653773
Se 9.77797353569833 8.90237414106816 16.36309085952492
Se 12.860965867815205 13.192883414280391 11.279906993845902
Se 9.67430323606468 12.740918059591525 16.61609627736211
Se 12.773774284789015 6.922023952249568 16.105646365258796
Se 13.45231728130977 11.638854034825954 16.774458847237614
