30
Energy = -103.34218976 eV
Se 7.062513414871325 8.130573274931114 5.689761392113613
Se 6.0717025319104625 10.28060566441326 5.554950357121472
Se 8.999921274237307 12.522113194938386 5.941636505898053
Se 8.799298472196659 14.762782926006516 6.227996598347974
Se 7.190331405287382 11.498124731906495 7.205443165077653
Se 12.468701647737518 12.137039706257804 8.157001651006897
Se 5.508727928231208 6.7674003510427205 6.824593904811835
Se 11.844277609656174 7.32474177175288 8.919246044306256
Se 14.304601746908602 13.10047639493862 9.297640833737633
Se 14.686871972891916 9.417358664455959 10.514144005850067
Se 10.088875432128717 15.187361313179997 8.36122177287141
Se 5.4103702548454455 7.342821382494668 9.103560129481297
Se 9.973670418889094 8.816389028159161 9.082289101915764
Se 13.116410271429697 7.548328345015664 10.826787878086266
Se 10.516440756603737 13.082938502797743 9.14903374437563
Se 7.240910434445345 6.319419551557928 10.19939764193581
Se 8.632643010857231 8.107148540002651 10.874673872678633
Se 11.485024258894908 15.835050946245786 11.979916080116242
Se 13.844996221782743 12.718011235365143 11.592449781779182
Se 10.294058791095768 11.52331743081871 12.968244429764466
Se 8.774739821873975 13.309941558602139 12.74131745962503
Se 16.170605579466468 8.562242134172555 12.065833719845626
Se 13.596606375480874 14.898839840114679 12.481349195224658
Se 9.942888975854437 15.162225380974183 13.632767519269763
Se 9.035218753201763 8.488711103512241 14.936718256754299
Se 10.847744470429525 7.23714642837935 13.96548483491199
Se 10.034755151248849 10.595283054450105 15.145853882890128
Se 15.699232589924586 9.625489120101268 14.199903236418754
Se 13.416963475299184 9.742445113612716 14.590684639683493
Se 12.606262687910162 7.621039045391653 15.435464099692926
