31
Energy = -105.80518447 eV
Se 10.305142518346663 11.573954190616934 13.407562227163357
Se 17.938379955258043 15.831607600035085 10.845584262656754
Se 14.366819219192118 11.673976684592667 9.2545642084559
Se 16.042027205298677 12.783480317035112 13.212897781388108
Se 15.177245513548522 14.131424705761324 18.206728864956577
Se 12.320367210150877 14.80780523428931 13.303464660380701
Se 9.478153276443726 10.329156028049567 8.976732049431055
Se 10.865662953004984 16.382702439886636 12.261288748579846
Se 14.181862506593845 16.935156685201306 11.521511397416313
Se 11.457693520668702 9.442838894019609 10.002285786758254
Se 11.691188219172531 19.201601783353333 14.67389959305429
Se 16.19579977006204 16.547125051621645 12.396937634700894
Se 10.894985489485004 13.490333985914496 14.664809947662368
Se 10.372065147550588 8.518166314661984 15.48284697784391
Se 17.406646309710005 11.916869310762246 11.493685346660602
Se 7.690748024439782 9.157876609759938 9.885922443867566
Se 20.24603348717605 18.010200262860778 13.104542068893785
Se 14.044177606862682 14.899115363946235 16.261815107774638
Se 15.63369012664266 11.267846073849606 14.971093648831493
Se 14.592535504144982 17.204259432241134 16.07514644198898
Se 17.32791934389819 11.41313631337012 16.610102458023075
Se 9.22019581073528 7.217891006754641 13.881340737187797
Se 18.54306897041127 18.02980857682814 11.689775495014665
Se 7.105387185916632 8.189141247136702 13.475413036513306
Se 12.557631565373875 11.383396973346438 10.779699234535524
Se 10.008151847246777 17.66558016197368 14.03647148445369
Se 11.764863017816191 9.845966033083787 14.139864964790048
Se 16.093104804137663 10.403731532783604 10.228426277123484
Se 12.653115836150365 18.415551697632242 16.67688312459388
Se 7.249617009292992 10.06458604345445 12.069313368965469
Se 17.319083542353567 13.660454490710116 17.36577802732725
