33
Energy = -108.68176925 eV
Se 14.609774084614527 10.984851283732507 11.661659698497417
Se 13.768883077104766 13.411139437506495 6.910965121649169
Se 15.08798065502379 7.8114556147777225 9.605927412175541
Se 18.00561371410343 10.137372365776287 6.847414687821626
Se 10.219716760128854 14.810473472558511 11.323505677616422
Se 14.774957196863719 15.212271116550186 10.113502988336643
Se 9.476871055003313 11.561465975255103 9.580571217477404
Se 9.27816826870845 11.407650251412518 17.427374417373535
Se 10.882797667965422 8.351851047796773 14.408289935882514
Se 15.018247905421589 12.198409731879911 17.732209843512216
Se 15.755341306491902 8.824651253647753 11.482151913108165
Se 11.931520970538282 13.173251500805053 18.478925985967653
Se 12.198968242826853 14.49989344136027 16.65867184650702
Se 15.71999886845253 16.87781108759218 12.974998054951422
Se 8.30674201177132 17.558773437196088 12.684125455242823
Se 12.83880234722121 11.474438245387908 7.949258566389522
Se 9.473874314757907 18.461641947436632 11.040669551427932
Se 8.211336150262039 9.431407919091773 16.872877149128186
Se 13.687097021360604 11.013472783028321 13.837966948105814
Se 15.985158559279748 13.36097000704345 9.889940292080484
Se 8.550912113780326 13.665951539231829 10.030806875559021
Se 11.140703073841838 8.112710954228945 16.636399747732185
Se 17.07009200175979 15.982741432106362 14.542592118394241
Se 13.209069406347904 15.284977243880496 8.117540754927086
Se 11.657121942819296 10.8949480156705 17.635591105905075
Se 10.91742424461803 16.582147706458723 10.05290921726592
Se 14.700194466425916 13.70517044192191 16.127224411293568
Se 17.681636782047622 12.275353553603418 6.459238793857187
Se 11.375293401420823 10.628379489709669 13.695420845416143
Se 10.532623233797477 11.414274112120543 7.464228546290974
Se 8.140525594141868 9.649681956789117 14.425234393691314
Se 15.946271042231045 15.82135742226479 16.621579204018214
Se 6.670939090148421 8.243710783460461 13.534883793680489
