39
Energy = -104.56707536 eV
Se 10.21814800241843 12.010459683254389 6.815943090868209
Se 13.001144715967962 8.855392859765004 7.356486655404071
Se 8.239395572553512 12.397837224336639 8.22276872756139
Se 11.009454392655078 10.021577154378233 8.197256598397313
Se 13.805844583977379 13.135114058563662 8.758713990884651
Se 8.914047922637494 8.681873283169105 8.745106452208956
Se 11.399625822879829 13.12089950188893 8.640169953337049
Se 14.238269666095094 10.69701326966083 8.451092599342832
Se 6.823352765196057 10.240838439686664 8.520647678245172
Se 11.75480004858686 16.273337385056134 10.632409458777522
Se 13.631469244477195 8.068983066441463 9.687232225738104
Se 7.435524318746752 14.67400080779331 8.983801859141602
Se 8.907218693731572 10.876787706295355 10.226886983064183
Se 11.345500805527815 10.5605617729209 10.711936791643748
Se 13.531679281536151 11.506847277762809 10.929535962297729
Se 6.184312525862959 10.897267816950803 10.955456366874857
Se 14.686053523335024 13.862227000650309 11.09396680393596
Se 15.508576979481228 7.529576993453809 11.138746546001745
Se 9.817782515071581 14.851323520477795 9.581274672787256
Se 10.510079015973853 12.780872213266553 11.209062954191934
Se 11.65004908555333 8.101848700290274 11.154778103436461
Se 9.929029562158915 15.315563100862086 12.21283234165054
Se 9.296374205216594 8.261910050437212 11.207817622232065
Se 15.636759894213526 9.88473223181903 10.499523722631318
Se 12.497328611824923 14.28170025024892 12.038351933203376
Se 7.8831692095562325 10.282412854731346 12.720057070370284
Se 7.419648113748827 13.104036381324487 10.933710497597271
Se 15.73807033286979 11.662211194253715 12.303541376215307
Se 12.618529269338284 8.19300881652907 13.474220487918515
Se 11.759647480366429 10.92832999415343 13.201963347026663
Se 8.783421336409509 12.612460471530941 13.053366308567016
Se 8.343302967111219 8.012727386674534 13.47115450803496
Se 14.986458729200217 7.840341726416822 13.665721577642783
Se 14.366804391176546 10.179687325945556 13.73084266128556
Se 11.91983147442698 13.291110160952972 14.18937820714024
Se 10.409218630842647 8.9622178739887 14.427405978254928
Se 13.23810315597803 11.57521297663256 15.599668136503672
Se 9.669411525105707 13.27974962862888 15.292627802896076
Se 10.687701163548553 10.98308737416547 15.759681482047542
