38
Energy = -127.39417262 eV
Se 9.332318297134211 18.584772843282888 13.177275377307824
Se 17.741789207990887 19.256817584752604 16.18725623780033
Se 14.336724226043444 10.592663902379792 15.022588938213428
Se 15.527406846992198 18.69120766517626 14.222293686028241
Se 12.549315009937065 13.992654185950293 18.665131520755697
Se 16.07772066962161 12.036724832195757 19.63822584231514
Se 17.02029211662127 19.011153218094364 9.33674119321469
Se 10.385060941685852 14.042984670011865 15.481043488336075
Se 14.52607807481158 16.193460919823757 9.396203602120346
Se 15.025367830471579 18.35992490127374 8.333698800995592
Se 16.63313267378771 8.997609044923065 17.328967880895398
Se 16.00906440558624 20.841526632379452 13.17926408991424
Se 18.222728133993424 9.127195498419898 12.529100620346762
Se 10.40649157202214 13.323514420189808 17.66383219283017
Se 16.99040700457123 8.557605147324006 10.753239152454459
Se 16.061378761007145 15.407053320784973 19.641765110378163
Se 17.652274272990287 21.17996294387563 14.984442579672578
Se 11.075689627181765 19.14050452760713 16.657138341839072
Se 9.178474086573884 16.286218429495253 12.831893672028128
Se 18.027923947724908 10.748308027408157 19.71161792895015
Se 14.052366779282979 13.533239866304033 16.974258216503113
Se 15.228516745033787 17.63054575061317 19.602663602990855
Se 12.36670373753607 17.315648263902954 17.313528641811153
Se 18.404196706593464 15.742321046194421 20.306147092697444
Se 12.484496663536765 12.877974091901294 12.588767791120747
Se 10.862005314915999 15.996350917267083 11.087551884596557
Se 15.503555231060425 16.272714667554542 11.459451475007992
Se 19.639546709337765 12.250638025452869 20.67553225327026
Se 14.642767098043368 18.245012754254617 17.40530832123156
Se 15.033143656818734 11.315289510000177 17.432726036366095
Se 16.575699401035273 20.877014204668328 10.654679347520416
Se 19.704474387624458 7.621289823569486 13.259147428634192
Se 15.981538249270562 8.941469722257965 15.129486251543355
Se 13.996850113111975 17.53216336624286 12.902435113737953
Se 11.062139294487226 12.05332542340313 14.246480885853687
Se 10.992154144657807 13.6814463729665 10.916717322550475
Se 11.30175969896505 19.298247935994656 14.298453292128679
Se 19.699995712009905 14.156422576148447 19.229300538497036
