31
Energy = -105.87273995 eV
Se 16.935497244577903 9.113763888372548 13.036279357718763
Se 15.972249615464007 14.518513847097358 16.13586600850234
Se 15.485638548305312 13.127248206487508 8.650330140114747
Se 20.20155279757252 9.682362818758484 11.460241265308893
Se 15.949598663552392 7.627372051989677 14.520704690967731
Se 13.83707181865569 17.492991329048632 10.673373634496047
Se 6.435078748367625 12.875059299492662 11.488910100899368
Se 13.307435840861293 15.203178778131965 10.854129945602633
Se 10.331696546910013 16.052416084651984 16.70076621965911
Se 19.324911527826284 8.558431851509242 13.178411211314565
Se 12.302520585458259 11.418291808541259 12.749010485581591
Se 8.999272442104916 10.051349392990108 11.384215702967623
Se 10.227834415628308 10.486088350217118 13.353648212321295
Se 10.20818429695616 18.290569629722988 13.596580596387227
Se 13.627520981606297 9.841118224715322 9.587721582615167
Se 7.117649430217747 14.331446395214277 13.215059393435142
Se 14.048468900233596 9.95870207389925 16.90274941936097
Se 15.422018967065856 14.147792365050634 10.809685244268087
Se 11.653456378005659 17.06112436974749 14.985240180584679
Se 15.914236360230268 8.684789897273323 16.706890054634034
Se 13.94623454933016 18.213726136752797 12.926610847314135
Se 12.498311442624324 13.096583455126417 17.4111582947686
Se 8.383399383319503 12.103182892641671 10.407631572024718
Se 9.492952114475091 16.967900291885428 11.763597009731155
Se 13.600414032586132 9.609033833771875 11.938803837868052
Se 7.234992146103076 16.477917873115825 12.234785247020355
Se 10.560851790809792 13.762193506398203 16.229460031639654
Se 15.723433591742781 10.843586078209686 9.128614927676603
Se 16.102055350999105 17.72323322457694 13.77990913887287
Se 14.327900173124 12.781361890007878 15.915169039190268
Se 16.44713977491314 15.390682417285534 13.977947528925547
