33
Energy = -111.2579537 eV
Se 14.253319639739134 9.689324253627097 16.42787061277279
Se 10.184920770574424 11.949715058043775 9.809670557066177
Se 17.933093422774945 8.054754008070043 13.563112831556197
Se 17.141545693452468 16.51476172933941 13.41341339991465
Se 17.612229312020894 7.846326830399264 15.920576927266566
Se 10.790355214867038 9.066427569825484 13.724964205747575
Se 13.795750004313028 11.91839942724816 8.534131446991719
Se 11.949458657110108 11.606277297558695 11.212859192890813
Se 19.097377938169483 10.079637478724507 13.38216305686735
Se 8.32731756370444 12.219588331742653 13.341503916894592
Se 11.437014469488679 13.17654955178099 17.353200784365445
Se 9.098156826550941 14.997324586004405 10.399718114764465
Se 8.443337295310693 9.910954796739814 13.252524787773654
Se 18.417900216491667 14.137356109144365 10.782444802731693
Se 16.623731345861405 9.820270365433249 16.67941122275127
Se 11.538104802264595 14.833247361022272 7.556095882284456
Se 17.168786181145418 16.097893897347856 11.07385116244568
Se 13.626118900917486 11.284846755306935 14.816744426928482
Se 17.32107487583609 11.645933491994974 13.326227454688967
Se 12.011828366100357 16.59070524405018 15.211145212381027
Se 13.363073919066176 13.331274407620313 16.007885013593807
Se 12.537205418421264 18.801865038194425 15.111461598422144
Se 16.997615068219012 12.259634663709937 11.070410253314162
Se 14.81444841613083 16.334399710107096 14.041743796167388
Se 12.074766197226129 9.279372549259364 11.567598565675386
Se 8.338800404482518 17.295932848049713 10.828015988395123
Se 6.759356993799074 17.066214791393765 12.398111558639904
Se 9.275699259943814 14.996353383700537 8.039165232021025
Se 10.418664977665548 6.876850829060629 13.872080275041393
Se 7.968716562373713 12.791690742699982 15.638221595472428
Se 9.66923041663907 14.300721633517448 16.225857852777626
Se 14.61416458146696 18.69929298700767 13.902230211162374
Se 11.822842166182289 12.333753307690857 7.624965448483804
