32
Energy = -106.76466166 eV
Se 10.546475780213804 11.864826369626533 9.242757422589738
Se 12.868091226370256 9.469045539277221 15.039654411171083
Se 15.884833949638573 13.758100507407026 8.63988847220706
Se 11.969302112073716 18.35965332942001 12.213644800304104
Se 6.614393933688033 10.307163552717535 13.961528945613773
Se 13.585352029257164 13.914301870385014 8.26745984736849
Se 16.181244230085625 11.411007590162345 13.40249231745318
Se 15.92265024744719 18.010880430953886 12.435077873575889
Se 7.1621596894138095 12.10081250385627 11.093189052146673
Se 13.906222046861854 9.064120122999775 11.374675265890172
Se 16.996369196911903 17.097304570701585 14.257379412487401
Se 17.870269367373584 6.291936765912859 14.728040196789836
Se 12.67306659404374 11.6756318091889 8.30957463265103
Se 8.809612129504485 7.302638251241633 12.783121291754297
Se 15.913628299215883 15.013987424632463 14.736247826664389
Se 10.309431769089967 13.83517286256616 12.376916575221276
Se 10.778805675983008 8.287116615148738 12.012701887488348
Se 11.55878807104656 16.884237768188182 10.2687211883971
Se 7.803021635367112 13.725478264022842 12.453717793720456
Se 12.199471992425357 15.708420184447059 15.140578273450062
Se 16.638006200242874 14.239674645415914 10.857839416514526
Se 10.136995189150085 18.065702889287923 9.02915950510329
Se 12.735479375749184 7.836468120688604 13.536714730763858
Se 13.594707419766351 17.260496672248376 13.44715577688809
Se 7.882224522342251 8.478082890221742 14.628021936083377
Se 10.663066023646463 11.660364986839625 11.659842443548639
Se 14.111416396586128 15.198961880974649 16.306845656807774
Se 16.089950365301522 7.566837409413019 14.952177457944217
Se 10.117579282911604 11.317483720166317 14.939502686231828
Se 17.512748683821833 12.183645468696437 11.615673523876286
Se 14.018470288677365 11.076902299110348 12.39892041152593
Se 8.01608459264041 12.103461000929244 14.96069728461552
