30
Energy = -103.24372358 eV
Se 7.2648631838639846 8.46261069656299 5.011085070092158
Se 9.131144978482784 9.871391577692346 5.16704203581242
Se 11.284685704288474 13.633483607195647 6.418978614691343
Se 12.835034625386399 10.142397934618678 6.567480100626377
Se 11.415816994768809 8.434963638575455 7.235532619357443
Se 7.830549899108289 6.644219437667971 6.427005761101784
Se 8.898685047985062 13.29447578438302 6.869466845297242
Se 8.889867740249198 11.022167994303496 7.280214107386193
Se 12.352391969799196 12.158326128975974 7.844722415682074
Se 6.386987336365089 6.711281736443181 8.289036978571025
Se 6.8837738715956736 11.740017648093787 10.139946079338696
Se 11.89047174343904 5.616854503615876 9.760368579774324
Se 14.686452011585631 12.363785506941834 10.474462275445353
Se 11.270944978872231 13.536541515593344 11.252380952428172
Se 12.708411301396632 7.732921292199644 9.20456121765815
Se 13.477686115622467 14.300902636479531 11.106219903512645
Se 5.658952258009731 9.69113256845464 10.356565028311794
Se 9.73023535219924 5.5361236391656305 10.745794831791454
Se 7.191464406681137 7.887393862000224 10.209797179966783
Se 11.216047981812853 9.371511008488229 11.805079133066558
Se 15.723430060332205 11.467162593958783 12.404026198201176
Se 6.133492308944964 13.037776056673351 11.95411073185353
Se 11.001054440350671 12.895380057181093 13.553660853871692
Se 13.140596503998527 8.648275790985723 13.023225290356713
Se 9.818283307222348 5.976129330217688 13.1103851702868
Se 14.041567907411325 10.658117740708272 13.85050845266597
Se 9.617525619281567 9.85068626201031 13.404869859075061
Se 9.097540013250505 14.1255582436119 14.21304801240429
Se 7.262174631378358 12.655101771668885 14.011345651770528
Se 8.330881565814153 7.704323295027683 13.480093909098459
