30
Energy = -102.05709616 eV
Se 7.712705443313297 14.07447280842445 7.502065960667309
Se 12.377147438884025 11.316348650842095 6.419865999788613
Se 9.630112122375493 15.407075220180474 7.293201110956098
Se 8.765652610880764 10.296114723351755 7.106726364006188
Se 6.5897146423583655 9.176878895092068 7.583605658406323
Se 13.022582180524102 9.295682641006355 7.4097674357084955
Se 8.67996393241249 12.113951912856903 8.523715597900557
Se 10.75941581941563 7.824725039214935 8.818914954169708
Se 12.011978952793358 12.717424919460822 8.384571166400233
Se 10.037904191986117 16.25891554029099 9.475368200629102
Se 8.981760684487918 6.470759761430795 9.930775765051765
Se 14.243941779630795 10.164462137482422 9.432076872893685
Se 12.401122385358695 6.089292073036225 8.938861851082661
Se 14.332840888954593 12.435328310425916 8.90060046491743
Se 5.975065504630563 10.100407443736856 9.610568690967344
Se 14.143743814980201 6.850815974551289 10.265916026144497
Se 12.506905997339432 10.46851821537993 12.108771885378225
Se 9.906341892693364 5.920167333313962 11.965940449342847
Se 6.559646842650721 8.82519088765589 11.646496393883739
Se 11.127776065571538 14.585611061807471 10.693474531499728
Se 5.369231505977901 10.973896519349326 12.533743608206168
Se 9.122504159054063 13.378657854726304 11.932709885940444
Se 15.027655024176642 8.073656129847905 13.55191012413438
Se 7.0828472806401415 12.0947273977767 13.515315716557916
Se 13.296154008554316 6.972438619822506 12.588033347024409
Se 14.652832427207926 10.493208247683325 12.903148168941716
Se 8.870691938841597 7.40234513411197 13.624868619862532
Se 8.696927003875233 9.531704383207618 12.714415425296387
Se 11.031715266452213 10.840839039974533 14.029766066265807
Se 10.371876954624783 13.135141884604867 13.883562418622123
