39
Energy = -131.64320831 eV
Se 13.246350449554772 8.756941211969513 6.457458648603865
Se 11.433914022695529 9.37039250052051 7.660427633235393
Se 9.349735236627687 13.5758505249378 6.433245250030129
Se 11.584427644248114 13.743930700334758 7.127520558982002
Se 15.118016842596704 9.878373479583916 8.438278648082502
Se 8.192229564836392 11.99211694385438 7.909817717148751
Se 15.488515874882077 7.397585580751931 8.449115671458589
Se 10.345440193233436 7.2519144393958515 8.52991489750564
Se 11.785313537293183 15.907940489091727 7.9716301598188615
Se 5.951471558393786 10.644702991175523 9.707087001295312
Se 9.182780563586261 16.988751592419778 10.688859705812275
Se 16.720990762426645 10.783764004035715 9.978990234259417
Se 12.096441362629834 5.814988377029019 8.943136642792084
Se 8.957293293545362 12.514139242348667 10.081024287051845
Se 10.127540300391285 10.551340387830063 10.734324816860319
Se 17.247093025777385 6.976368453879026 9.813106573098686
Se 13.880133910432756 13.394299418401586 10.462879315995039
Se 12.349792092417976 10.45411211192131 9.843114202483806
Se 10.929149199719198 15.634903344130745 10.350931707355272
Se 12.51895321613847 5.873007765542857 11.278402950068838
Se 16.158160160336088 6.614161027821627 12.04999701465585
Se 14.643247204393486 15.56976832202766 11.01997658987102
Se 6.7634483792492475 8.732220519721368 10.588786222315338
Se 11.197436265528241 8.038392497870852 14.78108389948513
Se 7.722937701776321 14.809485513202167 12.939942970636862
Se 12.714645764499327 16.63566651732771 11.815049901564839
Se 14.11018067488443 7.604836616851039 11.7612005462029
Se 10.535317172615455 12.698130275444083 13.388723535078402
Se 5.836362714091251 13.455354144066147 13.645092936478644
Se 15.963182297361909 10.639161163736967 12.176166122596667
Se 13.853064199908735 11.852783720160266 12.237016244383172
Se 6.181829069279592 8.528501268474603 12.925154563272667
Se 11.959826414027859 9.76902455688147 15.963142716231255
Se 10.886400703076616 14.324928358720108 14.870674390767267
Se 8.725440197355015 15.808463585557709 14.726278920891216
Se 7.694209079574711 10.006756141282821 13.970842090134042
Se 10.65285270591524 13.086274771137434 17.197672320236023
Se 6.454449820678664 11.706618089485545 15.060835048914468
Se 9.906825313555855 11.079447840610642 16.4884958338799
