35
Energy = -117.76689444 eV
Se 16.149816482793312 10.638521894141634 10.457384229715153
Se 13.061857007934911 12.042350107746234 9.194435432918981
Se 10.54913238433541 18.129931958586514 15.880531350056346
Se 16.484927860169762 12.371161512612979 21.123682220627266
Se 17.278946463048733 10.494850386766611 12.377560521737417
Se 14.815281169472156 11.500771198738839 19.69276668318124
Se 9.671921958594687 19.786058238447747 17.111746660589013
Se 12.950780319764919 17.393470298690442 8.834579313245214
Se 10.47062257202232 11.451833698431042 12.210590291794944
Se 15.303400391390861 16.477205149842664 14.150466420828943
Se 11.694902620079654 12.540562429424595 13.96583419737887
Se 18.193413039217322 14.510686590058585 15.6620191194361
Se 14.20820022556676 9.83964950911553 14.931757740267456
Se 10.66407898414939 14.924337857307574 17.812675944464733
Se 12.01918945006959 16.794411435656 17.257229738967855
Se 12.146323792867372 10.8224931691376 15.5109161028788
Se 16.90779814267629 17.394845145462327 8.93514807865469
Se 15.945825194070947 10.977630376407568 16.068064024896337
Se 11.925373560672522 10.221605491273639 10.959086390411034
Se 12.548372986017522 14.56364907532792 6.295255968552719
Se 9.546498410904126 15.443213258255776 19.7409475112167
Se 12.720195972903896 15.77851960484156 10.356541089862928
Se 18.972770811469672 14.732457657826588 19.464451018905706
Se 15.868723802146235 14.463307804435434 15.29052409848182
Se 14.879788515476474 12.739926149809289 10.509263941712886
Se 15.961286592090953 10.023858638684603 18.229723241282663
Se 16.933930350437926 14.641461655878818 20.700496485902544
Se 13.883378430577363 16.424746913262148 6.713259555897719
Se 15.120783553564252 18.863753705901903 8.917529925554508
Se 15.492237800609608 16.087611984898345 11.860925374628133
Se 13.73908521397255 12.630163322744565 6.861087433000761
Se 11.409903658329442 15.153919531134056 21.42864315346762
Se 18.58891308699502 15.955240367109493 17.50273043039945
Se 17.617413460212845 17.15447705131031 11.141963058203178
Se 13.233924210130148 14.734130527964378 20.24145391917522
