30
Energy = -101.39364877 eV
Se 10.161923677515556 15.304787475558786 7.304494885629233
Se 11.475252070382014 14.692888778286841 9.119333067118472
Se 12.905674892721743 12.985491931914831 8.214517519504215
Se 8.02805121995989 14.299180961811318 7.4858607382815
Se 6.960750939386671 15.807808728723009 9.090714604054869
Se 8.56039370987616 12.230521347198483 9.465587485006893
Se 8.602159704322279 16.78547051067841 10.261664193543739
Se 13.13398677576617 11.304619894468185 9.83862470156081
Se 11.842560713404376 9.35335983310572 9.455272845577806
Se 6.917046555672755 13.009090322790898 10.785472933090103
Se 7.75044701451842 14.41698015804235 12.580664738365137
Se 10.988823626122922 9.390794043273278 13.095501195969737
Se 10.00650030449413 9.431783599600697 10.945672873858863
Se 11.325557545357814 11.721407608733989 13.4558363705665
Se 9.867296110601112 12.489108867548236 15.111566269917239
Se 16.530470336646577 10.900983046169289 13.023378562556426
Se 15.18135796070892 12.89377385745891 13.39850938737252
Se 7.663250542962295 12.761399905017367 14.258605148363927
Se 14.15089526541785 8.916412728567765 14.420287804318239
Se 16.33522599052455 14.733350609732193 12.474876390944619
Se 16.39390965053308 16.640243392989404 13.943549076420211
Se 17.703377853889577 10.219549433235333 14.829597887515215
Se 14.737676173546964 10.678347898350848 17.488954433743015
Se 15.70967643874282 8.856804870598799 16.000343404249215
Se 18.44820032177245 17.137805991837357 14.808171912124013
Se 17.104436367154616 13.133905456104033 16.805567335665113
Se 16.008540686540538 15.843044058925832 17.389283693930807
Se 16.360310617417824 11.696879622763326 18.73823824549235
Se 19.184752873054762 13.853099786585187 16.99461318442773
Se 18.06848382322921 16.618095042173692 17.32222887307516
