37
Energy = -124.77002504 eV
Se 7.460445864573508 11.956636751794784 15.016759584950538
Se 9.100609273695111 10.219144971854298 14.932459316953976
Se 5.686653460673791 9.011765640636707 11.702918488017527
Se 8.44398118389115 8.633203587645914 13.433949990752852
Se 6.918516187492656 6.892248603439662 10.969866124816248
Se 5.232294332913926 12.438512532984953 12.334827266597905
Se 12.06238015274199 6.582739809541699 11.997709516045465
Se 5.603087100757693 5.912423373892948 9.444043815078107
Se 11.476483964050509 4.269595860847377 11.581560737677584
Se 7.630757574393494 12.611131218657286 12.721491919679856
Se 12.956823336747746 9.259472514277327 13.05248098512089
Se 9.684590454152184 9.600742992486948 11.147409546177883
Se 13.314803543420107 6.8470739047979885 9.954763713587376
Se 13.67551813413381 12.213753732250717 7.711682091131667
Se 11.491973318099614 10.792384520235766 12.168762962317832
Se 4.760925974055757 12.931721127390169 10.188052318864273
Se 14.361404272363618 8.97759221604744 10.329189653535506
Se 9.321244301391989 4.298755507594392 10.63916424922948
Se 8.301716047809755 13.558681230899273 7.9067772565441805
Se 8.704909084216819 11.441239234446018 10.090662650027696
Se 11.611441142823903 11.849076391498802 8.81348260611469
Se 10.271694289862701 6.451631536244516 7.6270208212659325
Se 3.8916177766226507 9.078636400396826 10.256655246349052
Se 4.196113660341676 10.775730226120109 8.550129209546723
Se 15.5765008467946 9.092639922356506 8.260631321143128
Se 10.454544893938992 13.210305125509018 7.102594936416101
Se 9.52726813824479 4.352205353547347 8.260145458870404
Se 6.517448387837095 6.903194580513654 7.202315363849161
Se 14.183613241821755 10.160585498221348 6.6423514552973675
Se 9.343687808056178 10.059411535155855 4.6463893361214
Se 11.412265375149406 8.660296092567531 4.808651275296499
Se 8.385003824270841 7.961108749516287 7.945000597823509
Se 10.862152392181597 6.944090216738881 3.3633483174451433
Se 8.63847233888833 6.5418531649304175 4.166874537863723
Se 8.052225702340795 8.676253029177536 3.309546487341092
Se 6.656380075707285 12.465250577814517 6.470708974910892
Se 6.1592532518435466 10.297712976270134 7.178422575539335
