34
Energy = -114.76964504 eV
Se 11.5907473686283 9.053056736905148 16.426957431774003
Se 19.608544451184596 12.566327877815105 16.705535243525773
Se 19.964902245225943 11.66494661544401 13.029400046529421
Se 9.816029692128614 11.194353926765913 8.182721424017688
Se 14.749221333856484 16.296953930879624 9.034738511930177
Se 13.36169048955486 17.01372789327625 15.543718538654458
Se 12.410914495415549 17.273767493340664 8.83529611752574
Se 13.235693134264507 9.741788991466196 14.881904599995801
Se 19.303137407962716 13.723773259314077 12.079551785549631
Se 13.155232095090486 15.268700112203861 17.22170313008244
Se 11.98074855669215 11.482163696546687 8.951473029652927
Se 14.663930680567773 14.13954324231483 8.533178603211448
Se 11.127879401315958 17.810315247396545 15.903711111704956
Se 15.317825004301804 16.158263631288442 11.692976476866361
Se 11.847842126980915 9.804117706447927 12.882007274899573
Se 10.882771663600142 15.756403623657404 9.599709134534791
Se 18.38579759117761 14.591406169924575 16.77827959700089
Se 16.546896887305255 14.127244789864184 18.15967719328809
Se 8.188645720862098 14.091332617393494 13.2463613446737
Se 8.425979126426737 11.88866441729527 13.937888716680545
Se 10.992590145395683 8.13390920786085 7.7842540974413295
Se 10.238464353478477 16.64723039101513 11.772964375979035
Se 12.21906368364065 7.9180165523522374 11.723385490714799
Se 18.673875045125467 11.281997897421485 14.9659004640589
Se 8.028731779515264 11.959226788928024 16.284406688106973
Se 9.351605758859646 9.082829466071574 9.204309565986962
Se 11.165868580728517 19.582767488720275 17.28224240477899
Se 11.226844547255837 10.72280180073284 18.038913994660284
Se 17.550031478358065 13.381612677922817 10.560585947717719
Se 10.145371686423147 12.604769984964863 17.08796062202178
Se 10.43982305439117 15.031958360013592 13.409871363124669
Se 15.49304998619927 13.913783300144559 11.724863267891262
Se 12.902922853371502 9.216008751852002 8.547611222767344
Se 14.680807385106865 13.5928987422566 16.748530006978548
