34
Energy = -116.10328413 eV
Se 11.434074898883297 14.981952186131327 8.039786127791961
Se 15.426626806109272 18.10028349300938 16.294737707719708
Se 11.199352997476318 9.888589039250233 10.972169623767456
Se 12.175007899930268 9.339190586439804 18.396324027800265
Se 9.20941468109388 12.45501778750145 9.78299635457302
Se 9.592870308384038 16.748266973955133 10.72299001227844
Se 10.998127718071201 19.377599536035277 15.114633593238803
Se 14.57240971158983 11.621300127568416 14.643562642284568
Se 11.501154662423268 12.944812781473168 9.215936179690745
Se 11.705706341921848 16.632582104294613 9.733346949261476
Se 15.463287766022885 14.11649523469884 10.391644189051327
Se 9.715375069899913 15.125836382495283 12.489433165958042
Se 14.373590897256056 9.281103167451864 17.538897120910974
Se 9.002537051874127 16.260008587963974 14.411382961817566
Se 11.769977220164726 11.628240558198677 18.673218519832684
Se 10.803397953333997 17.092638568709205 15.695042508043946
Se 17.69712797314988 17.878674150816806 15.763837649626444
Se 10.877089985670876 11.01162164734149 15.047330722853088
Se 9.854682478754336 8.847693959045356 9.545152806142449
Se 15.934609619402933 7.484286225432498 9.713665847004187
Se 15.060710850274322 15.042642163550665 12.524595691049692
Se 14.57725372714537 11.932525603692007 10.588270224798217
Se 12.980683394201417 19.57366173972502 13.848058613339528
Se 14.180695586061951 6.989445468505764 13.008204731528485
Se 17.988047168448627 17.03098087632476 13.570782942440992
Se 12.413166671887227 12.18725660893853 13.7184118730256
Se 10.1662332367904 12.166051314551156 16.954625931241793
Se 15.970749089479913 6.297942457281616 11.814118378665505
Se 17.146363475028085 14.83106791101404 13.628008562960488
Se 14.402260708736826 9.318128919741708 15.156104376386175
Se 17.37492653612019 9.29118237979884 10.158658993451768
Se 16.184395808497072 10.61335627529793 11.72580369373785
Se 14.597908028496862 20.16494208283049 15.45088452116546
Se 8.588467834477003 10.745448612416066 8.408678330192435
