33
Energy = -111.0900697 eV
Se 11.227000164943371 12.12956514878501 10.347481164571116
Se 16.48341751907884 11.55037399702839 12.431144843296854
Se 18.826186384422225 12.757096187780853 12.630792949277993
Se 15.540633196043364 12.009733300813291 14.746189380280434
Se 16.50788345959416 19.07415642885186 13.976574017519388
Se 9.848744234712159 16.544188496223917 12.611672270505835
Se 7.993289082629872 16.586628676560036 11.156641349811846
Se 15.91026578790442 17.420056738931137 12.114858842088012
Se 10.99755742885272 7.479085550551611 10.669379662414737
Se 10.28502851748887 14.326643760933871 13.347994751590193
Se 12.335426071812485 11.864433049862308 16.325613763445393
Se 13.091951982463517 15.366598024207425 17.148899123172008
Se 15.202626854618805 17.666800477186644 17.292018359359197
Se 12.477541866419807 9.07041955789124 11.552448224704767
Se 14.250348436016031 8.567537472433807 15.488409172294261
Se 9.595971925597928 14.149047808717665 17.26030044862026
Se 14.772355678676783 7.006107329954149 13.819193244541443
Se 18.226066259746585 16.485615558748265 12.541798878408828
Se 16.12319480245238 10.01603634080398 15.789141294755725
Se 8.462741163899695 14.108514458269259 8.382628580529719
Se 13.861800040137425 13.148788325794134 17.609366279169368
Se 8.966124512214238 16.34675170814824 9.032759764288993
Se 15.402970344982124 12.833314524121954 10.969496709285398
Se 10.382967749357523 11.953655371686521 17.67525878568689
Se 11.11905485707472 15.459294484145822 18.499147494905312
Se 14.215153267484562 16.01851541239019 12.483962164938193
Se 9.044748624279814 8.718183002846025 7.676822701701812
Se 12.14617844426162 13.585455811339662 12.15948341623307
Se 11.06267783868008 7.975159267840254 8.282020414531612
Se 18.51918938677447 14.536972612642925 11.238274832378956
Se 16.9691881138563 17.76369475148125 15.87659318313443
Se 8.989380200742247 12.713984574116925 10.21490179059439
Se 14.646550096995016 8.156999905586284 11.74390093066084
