34
Energy = -112.80862757 eV
Se 11.923299282056528 10.301652403949646 10.754994855122012
Se 12.421358899154166 8.187294187222335 15.683347985380845
Se 9.441953324732166 7.195404850008118 14.558372050810826
Se 12.941466933585998 11.278404650103655 7.760800075655836
Se 11.031284963754072 16.39336937959956 15.93747811398914
Se 7.156308018749868 9.70352855836939 14.608115854445447
Se 11.653996902383518 16.96502438077658 12.220789243561029
Se 11.943414715065337 18.51910444098621 15.681339822471841
Se 8.543738650924018 15.607458103203362 9.337203313431054
Se 13.31198717913825 9.730406176299097 6.203498156167331
Se 8.705200871426957 12.191849212338873 7.754988975229443
Se 8.194299454977363 10.227409150064654 12.6570109744273
Se 9.993129745141935 8.346787016348518 12.748286047884335
Se 16.87423951934225 11.681585313883266 6.998632594002892
Se 12.997368095684525 18.443498339530763 13.501460310892485
Se 14.671291833498495 13.14569041210567 7.163107815667491
Se 17.600635119896687 12.158377881939886 13.857344746354743
Se 12.414182721788348 9.407282167089656 13.586931510217854
Se 9.897504524002397 14.075856739745516 7.901423798725976
Se 7.539563095400035 11.52957398134173 16.174079045328565
Se 16.46109355815539 11.779431990399507 15.7508446784663
Se 9.99302008648592 17.292655026314534 9.722231816091494
Se 9.748282525228712 12.177611696135541 16.361410415534614
Se 15.062100047996267 14.371990858679382 8.97008668855851
Se 14.016733256160988 14.04955097412603 15.352348187693682
Se 12.679883772112253 13.425005550659186 13.508296155942233
Se 13.098605847752234 15.081716284866058 11.876479165057374
Se 13.333568537358515 8.629811004654398 11.491017095735174
Se 10.796816150689935 10.743729176292943 18.000154936524638
Se 12.466237262705045 14.852606149261364 17.003230131585042
Se 17.81072007458241 10.603318122878171 10.485437603581437
Se 16.264468119369724 10.986855682608025 12.160104478134244
Se 17.864088782082185 12.445541030074212 8.887785257737539
Se 12.810193768012855 10.132654747540554 17.003403738986425
