35
Energy = -117.50816481 eV
Se 6.7525068854980645 13.13673982382544 12.64572125377161
Se 17.561834418701277 14.570292460339981 10.196756522263026
Se 18.477805903532705 8.285981225998245 12.041468636645144
Se 14.632675173837555 11.088114328102924 15.216829796594363
Se 10.275538430648709 12.474731752355783 11.466056628894226
Se 14.761747072005472 8.460251102544927 15.377955532591908
Se 14.41388081674265 16.12888721146925 11.771623579255554
Se 9.710372230799825 10.143153919269562 11.174857062610455
Se 15.467433301871116 13.986079181518459 17.30816297801087
Se 8.133385886123552 13.474950009695544 14.437318021689693
Se 12.9931118208193 16.878098638467446 16.598117281240466
Se 13.146252679617541 8.032482176705184 13.835344681425761
Se 7.296949091906074 12.226723296037887 8.522974145063527
Se 17.989718229744142 11.889644511624583 12.789571913144961
Se 9.336834886406205 12.397592137617178 7.56299884095092
Se 13.450489797085947 11.364553779914077 13.338616626414018
Se 16.536447956394166 13.60339150647438 12.127929671440546
Se 12.032339386163033 17.156968225884153 14.4661212043652
Se 14.945609236270135 15.031351152849778 7.4011062197255315
Se 10.389241594096362 12.635677124871648 13.765887448566868
Se 10.702556786462372 15.950050075998858 11.01616299343632
Se 16.521895744293325 13.532436106732527 8.3641823579674
Se 12.464798289315226 16.537241871059173 9.792754398668746
Se 9.80152293856535 10.911350315437055 5.955877111880625
Se 15.169979544673623 17.690244868276004 16.49891242691907
Se 12.819487415003072 14.622731501152666 8.256458401455758
Se 17.057420204570317 9.949981981856132 11.61620987657845
Se 11.915255844219539 9.86219159691605 17.80309331929988
Se 12.89637922650203 15.276346108412877 13.209362964325448
Se 11.246818059541795 7.375572884336946 15.181937989010018
Se 6.204211362448227 10.795964833473828 12.58515234882307
Se 10.331230496779504 9.317601915205367 16.090546277904526
Se 16.48771393862004 15.624907668636135 16.18614792795671
Se 12.980480537704521 11.773237773863428 17.05555775770701
Se 7.4105173958215325 10.12891951586045 10.656668386186434
