37
Energy = -124.091599 eV
Se 11.248971842569544 12.92836083657992 9.27521568668024
Se 12.304510700224546 15.067007802592245 9.06442123337664
Se 16.961715065667573 12.5642027481182 10.938285739920754
Se 14.580430188443541 12.744386031307208 11.368983934158281
Se 16.956264204177774 13.084115098447688 14.121647590143427
Se 10.6962438640663 16.641272635500677 9.753058187485637
Se 13.967611119768273 10.386057992750363 11.11539583319756
Se 9.79308612268575 15.190787926274398 13.103646396054124
Se 15.67226824995741 14.69702702361026 13.213046357295896
Se 11.459911600648075 13.454920781819915 13.381352380631975
Se 15.019901542158182 11.78403353073937 14.794512684916159
Se 11.064408212756172 16.869251693173037 12.08708851895422
Se 12.394005445751334 10.551495145476459 6.497351070375328
Se 17.36140184994646 10.81748383263248 9.616717488614793
Se 15.370120872677091 9.501998392434551 14.576876905564584
Se 15.84372170953387 9.474825384158995 12.155247925203955
Se 10.339932350036309 9.654898938594974 13.492291914368636
Se 6.079994533231872 15.231802690609136 8.947519350445363
Se 11.099216744364181 7.093521810998201 7.512892070230439
Se 12.679500381574064 8.808336004049645 8.100624844257151
Se 13.4564591374063 6.402798236589879 10.06561451142615
Se 10.625541446781849 12.000180455090858 7.1909897790295885
Se 7.053820538142352 12.077249457437631 7.60853768987944
Se 6.048104502771848 9.363181998091935 9.847635064964074
Se 6.581708754473153 9.782605175691344 7.5320035927712485
Se 8.405444061947865 11.841522250740212 11.05896684822111
Se 9.310431050079172 11.021841253220988 15.115033425165182
Se 8.014473328845225 9.546936822683092 11.181975234836631
Se 9.851006974158722 7.050670301496311 9.45007214962069
Se 9.111334194781978 6.184072610652436 12.831862146464905
Se 11.232072952067826 5.7793779787411514 11.038781729701125
Se 5.322674924284267 13.140268087714245 8.932927599378601
Se 10.481521798636692 7.357794617887245 14.272480585827529
Se 11.105680367153173 12.540237336671625 15.492208718925754
Se 12.637095878311333 7.259304139961038 12.273812598770446
Se 5.10784844035141 10.848347024670506 12.620739233874012
Se 6.116964549569031 12.613225810183582 11.725582121876785
