36
Energy = -120.83370785 eV
Se 11.914911289776635 15.252765432669687 11.77524468845112
Se 16.97656736237352 14.625497142874243 11.654428665872345
Se 9.077410781768808 13.503751374498107 16.08794681963503
Se 14.84884446283399 8.047658590097942 9.72546481488986
Se 12.233938792397863 8.936722220566109 12.323668506292753
Se 10.79843953575711 15.918377641029307 9.79037400164212
Se 12.66714842808688 16.184861189337887 15.933654988096633
Se 16.1932133312349 6.803444121867112 13.074515856695678
Se 8.766982894625757 7.144079008921536 7.118860324609314
Se 7.0260553172487095 8.473408644498672 7.42863142065421
Se 14.824879447243097 15.830126365923672 15.696626662514026
Se 6.381690522728399 14.70700784702898 16.559046140862822
Se 18.35463103964643 12.666103388849088 11.769537519120595
Se 14.232309452883127 12.060110769937637 15.482238591253193
Se 13.897786858887914 9.834569029857192 10.895825686095238
Se 13.263972391097841 13.36677209972111 11.317703994074204
Se 8.92975384286623 14.50618371663985 9.494502995286622
Se 15.116946478774908 16.171918665058662 18.51371641096678
Se 12.956407662307482 16.509784305403763 18.642363503621446
Se 12.724426195192633 10.272090404272632 15.84436125280361
Se 13.315973766272904 8.514623293273978 14.387774077632379
Se 9.579280093126918 12.881285194233936 7.881354659552503
Se 16.981939079003528 18.10443459132101 10.864046241636121
Se 8.854012118958336 16.320474207067228 16.948542941823323
Se 16.255656727602467 11.45987915655795 16.535228978569727
Se 10.945306551522581 11.34467679147928 8.991440110232396
Se 9.567295352920764 9.573957540609028 9.920189982259858
Se 15.853437082830139 18.25757116141612 8.987775029486514
Se 15.238380623605813 14.033272954056132 10.185539246259454
Se 10.37621760655074 7.6348957517577505 8.996965902917335
Se 8.746054312316977 16.971081493682117 14.8597540523964
Se 17.560474661654006 10.425807448895634 14.870719349156037
Se 16.832437779682923 7.478998088909156 11.038996000259058
Se 8.98197825255717 14.115328645918735 13.993953742900395
Se 6.30885580851349 15.348011918032006 14.470595713022687
Se 18.9180288475416 12.162765149839672 13.982495442305325
