31
Energy = -103.95480769 eV
Se 16.085509358855592 8.454268182328576 12.638528838188789
Se 15.490873501435761 15.010795338074256 16.75365423198209
Se 9.329457015983492 13.559926544617047 8.459155697210715
Se 12.125968342762627 13.388244158448689 10.978695302427752
Se 13.754449417308251 8.368307198169544 8.56818522787403
Se 18.50771988164367 11.819193623385846 8.386552365795337
Se 10.289013065957937 17.58578503875172 13.356288825613728
Se 13.35920253649997 10.6506600403986 9.04214622430766
Se 17.799468677889912 13.820213420399966 11.499283866302951
Se 15.485741230417878 8.521320782822821 14.906724596433861
Se 7.104166810600489 15.368486406046951 14.50749083782793
Se 10.900865487351046 15.486482269082439 16.918269487191527
Se 8.912743519642126 11.521471873419193 7.628658755805047
Se 15.772811177780525 12.779552128394858 16.503563834065297
Se 12.844494552871168 15.620170464419635 11.6155798861583
Se 15.202532237769422 11.604123197170543 10.168332912463129
Se 13.820610102783029 15.217735844680975 18.680434186531105
Se 8.297976236157552 12.52401008141547 16.64312837719607
Se 13.119305974118861 7.238476504392761 10.53924325767592
Se 16.44317932728409 12.779348829683155 8.478589714679213
Se 9.800762212429001 13.329707599140983 10.844180780986738
Se 12.245329175038995 15.820212587869813 13.809781931762728
Se 14.389133008482034 12.112345157763047 14.592335891348867
Se 13.13847589185262 13.131773392004527 19.0339653135441
Se 10.675963483287983 18.144115909302467 11.237102222347767
Se 15.125515599414905 6.571216209747388 11.579123098838886
Se 10.747179119998789 13.34744958076527 17.519637051538098
Se 13.62467996594415 9.999641840123905 15.16956163084511
Se 8.171678977185138 16.391349778899478 12.7489640622229
Se 7.991813569411936 13.09059930670161 14.466855832811737
Se 19.52803965206854 12.897853686968595 10.47009079153757
