32
Energy = -106.85476664 eV
Se 8.580187806346558 11.30619923844707 14.745815883973675
Se 10.928503418074486 9.796354631089894 6.429569926079245
Se 15.983155220065996 12.84073895067125 12.238136641503077
Se 9.945188313404744 8.855389791275739 8.204710316949711
Se 11.995568038849909 17.23850775651078 11.139147074670872
Se 10.949317653409054 13.067323769124013 10.161929732432476
Se 10.311923740843861 9.942190368271401 10.744960001597997
Se 11.88488719021421 10.306668417123545 12.665242788261924
Se 12.448252647854096 16.48115016552875 13.244549010813804
Se 9.951839502759551 12.106732227917513 6.45767745392589
Se 13.184409928795693 15.853879987638583 9.566956655946854
Se 9.48732600306802 14.717575473986727 11.647264711621945
Se 11.561466521084848 13.258437245697452 17.13788553055339
Se 16.82912828443664 16.46005829917157 10.173875658111845
Se 8.751662197228411 9.128908084349995 15.220204733024568
Se 12.558523388494338 12.572388765653828 11.712937927093868
Se 15.162491490197882 13.342157187405572 14.326633117020885
Se 15.060339845458513 17.154739636736092 8.89478922662968
Se 8.753270588033146 8.497757432442135 11.46273917346171
Se 12.384414762183763 7.7793347601341445 15.70763498735045
Se 18.393189516827523 13.601720934324542 12.59472268704605
Se 9.488563602287291 10.291916188514698 18.267088954654334
Se 9.137347593525595 12.204772877940872 17.249819535771632
Se 12.736839891007389 11.507967023167549 17.967605105545733
Se 17.223452198171316 14.189880181022954 9.118678383701218
Se 13.765791860376583 10.311277090681918 16.114282710109286
Se 15.481027723517498 13.84933416358165 7.789520189268413
Se 10.667053996507546 14.651482362171873 13.531169091459946
Se 10.851976371077255 8.206747096232117 14.09825589091391
Se 15.794663528379683 11.591668711769413 15.801980195481738
Se 18.474597224004984 14.22491345649645 14.71592107772641
Se 8.690155584385046 12.078343355790452 8.284811258168892
