30
Energy = -103.40332085 eV
Se 9.208527820235288 13.519453499482726 7.088170907596365
Se 10.255448223212047 11.737534203041339 8.171186834389802
Se 15.460452258125487 12.368827479769015 8.898279777495677
Se 9.172266928426252 15.250603849074768 8.780309336679158
Se 8.196673558538636 8.654977117762561 7.70640094395903
Se 12.852442042802755 6.414675613991686 6.575617287470033
Se 13.377463214678967 13.48843257914144 8.740149502932768
Se 15.25519508752614 9.407087879583054 6.671249660218155
Se 8.661042472543105 6.918437767093727 9.235761070807307
Se 15.148793991304801 10.070498633487555 9.014841912759106
Se 8.338748885394692 10.604652450806613 9.052185587068886
Se 12.365326987220406 12.988985683316185 10.857741888433491
Se 15.126685232488303 7.102881938689493 6.858879187173883
Se 10.925093312720463 7.091740969169226 9.867328331508622
Se 12.130171022998091 5.486491816733661 8.607527978742464
Se 5.998967784501302 9.096186863674044 11.079419604764455
Se 8.601681666117576 14.384273747895548 10.83974204800883
Se 9.267874297736665 8.869927453322662 12.839010424512779
Se 6.175950414025049 14.465851472191346 11.096527625932145
Se 15.306625970901493 11.543306016066706 12.477133762140827
Se 6.9710622864931775 8.262393176930093 13.056373211944795
Se 14.049838892580986 13.570602292119998 12.377812457511777
Se 9.211257775945272 11.166930964748271 12.366356252970423
Se 4.549852233018702 10.852387246356557 11.74636008796256
Se 5.6643527604709805 12.760202777417321 12.614167451289061
Se 15.097936460553466 10.634393598986554 14.636496309279579
Se 13.003291529190365 9.526907987126236 14.795360028091626
Se 8.880398364843073 12.301376257940879 14.432263673703693
Se 11.038647433250077 12.751113865946389 15.262777321821833
Se 11.825955965596574 10.826889671573692 16.372594406270924
