31
Energy = -103.47126866 eV
Se 18.876180221309568 10.2148325359123 11.962246444978879
Se 18.942011250341892 11.324525496175044 13.861593690478928
Se 14.638684530969567 10.645686340315754 7.6958948013918755
Se 16.98468532810353 11.7929554870962 10.696975838434867
Se 16.708976245491865 13.249438483101898 12.335082667563674
Se 12.788229818851867 10.753685521861279 9.103963957946785
Se 18.134520779647122 16.575764029369672 12.057709902753265
Se 14.21682803535625 12.280357097367306 14.775723467435514
Se 15.039067111386965 10.265276020371667 16.03245134221252
Se 12.496058058139507 13.647896547440435 7.627124496879202
Se 16.5214836234689 17.92484622307144 12.836782844767678
Se 14.026265263077505 10.226271182307274 18.038793354990517
Se 10.92319918251792 10.309911245876751 7.78830586374221
Se 11.599302634190597 8.62212443392634 15.568280841012713
Se 10.673134086540662 12.554168801341605 6.6732847246137315
Se 10.598022453853014 10.780066630148813 14.866393993228122
Se 14.95256263127383 16.514778768821756 14.059768641275133
Se 13.869404278777516 13.80639669790606 16.478585873837766
Se 11.943455138395214 8.781195219957436 17.79196514920154
Se 14.404781514018735 12.869681755431973 6.55377224436995
Se 9.334777021644024 13.368262040377244 11.313488746104568
Se 9.185232516009869 11.385924064652993 16.587944361882986
Se 12.060943905248514 13.517585436533688 11.80638113481813
Se 12.738967776712666 15.623001937295022 11.089435075706557
Se 11.53103716765199 14.292626996105717 16.734306795340277
Se 12.898099855128768 16.98209710249403 13.03193373169429
Se 10.589629936002487 12.650690671572676 18.10320043358577
Se 9.715532397813186 13.908998023833954 13.605760993089476
Se 6.611435863423179 15.229756937836305 13.077165776912729
Se 6.8930721845742635 13.993629440204938 11.132562871281486
Se 7.543572158957888 13.653003750323517 14.605714314126699
