38
Energy = -117.30679304 eV
Se 14.405083321343744 12.595488340374514 17.851732780672677
Se 18.383645037533057 16.571715044397674 16.62147936481123
Se 14.748140210476752 15.92066277855026 15.031050549990068
Se 17.318573823427545 13.897428810805492 12.836118924689593
Se 11.70637374256333 15.769885936376276 12.928454343433971
Se 20.43941418137153 19.232667220950823 11.070490640089478
Se 17.591405077008243 20.777987232175576 15.700650571908284
Se 22.769095718993178 14.090382087006034 20.517026086907514
Se 6.959312171460343 21.349756279253487 15.864117132367866
Se 21.63294949975687 20.79413417879861 12.316888747221181
Se 19.956066563388134 15.986143278986482 19.17041191521243
Se 15.823127698700649 20.442030081257393 23.02354977192116
Se 15.847794789781137 11.133010672626824 19.26717795647415
Se 14.995547280350273 14.918010680271369 17.185174227289316
Se 17.47470218289899 19.298988515883494 23.90833043383984
Se 13.327078771431738 17.43682814416334 14.240919500808717
Se 15.097635084269918 11.879463286540911 14.360890791057
Se 22.478674681169256 13.514932990811895 18.3779826306204
Se 21.348397009297784 13.764549010375077 15.843584591397468
Se 20.086099726977647 14.160123497297187 14.066963443224953
Se 19.083889717858998 14.352355796165838 11.425155515803164
Se 11.923819554447583 12.424127018105215 20.662329275861953
Se 19.94989819535095 21.440704048349193 13.96288956420221
Se 17.11612531848777 23.088291542529003 16.389140011771765
Se 19.140814458049714 23.469876732820012 15.28320841696166
Se 10.84299378839477 13.051858138704898 18.714643740436912
Se 14.060790644980525 11.547874901937769 21.068216558914504
Se 12.94356278393896 11.03236907587465 14.889247218216966
Se 11.923037692385499 12.800268235826753 16.323878537781816
Se 15.96109773779639 19.32067638125105 14.860436449954141
Se 17.67683351578902 16.467311670848233 14.474267778635479
Se 9.135004967719954 19.777423463333406 19.617554891264643
Se 15.527637702164872 10.865079819422538 16.702812970025217
Se 20.95356361291642 15.749432427515911 21.079059062157544
Se 8.058217173260399 20.55791949354059 17.731603406101197
Se 12.503727715831674 13.826677291748426 13.87654060200837
Se 17.863215637391164 18.52474000984127 13.217491186284033
Se 19.785627700996503 17.01847142308115 12.023716679436179
