37
Energy = -117.6711766 eV
Se 11.799431732257943 14.334595954632768 14.005512037915038
Se 21.664729099539056 18.405986839723862 9.939043361461879
Se 16.08717600060618 16.139813379148105 11.7677827600083
Se 15.568299895751728 11.208720128948965 18.595523255813823
Se 10.984226936638775 13.787386648277975 18.63155167240943
Se 22.105484618683086 19.27117595358765 11.901104946298018
Se 14.528536643658205 14.523523091648944 12.689407482216364
Se 11.441678684094159 10.279464748559606 20.178541709711098
Se 17.368051743569623 14.103362859985472 17.065994609323692
Se 20.133520293126672 16.638824803298522 7.118237607295973
Se 10.785387781539745 13.825983624821875 11.931305840892708
Se 19.341793765611477 19.00145442800349 12.559476397906625
Se 20.596066718096953 13.063041219647689 13.748350388672971
Se 13.8859108236763 17.695982152696576 15.79470829668331
Se 19.02168729996064 18.152401211138354 10.578102242247956
Se 15.380694685133163 12.949781756321594 16.92864538612958
Se 14.566854529294595 12.16530701639412 20.52592597155869
Se 16.165726515331745 16.361319071683297 9.387683594103455
Se 12.432743895090814 12.772277468228328 17.271202823581724
Se 9.030306927366246 0.4071966524002604 20.220739380425186
Se 18.31115746102975 15.390299539367756 7.1020829566992685
Se 14.190432860748304 15.26216935836099 8.523923961075402
Se 8.47378831515737 21.4793833305791 21.30934205744431
Se 21.56371355042143 15.574199878342428 20.519502118596705
Se 10.619438520522037 12.370816637664177 20.663918709453217
Se 20.398104957309158 9.74974593896805 15.036207376173842
Se 13.253209555422318 19.826082161378228 16.080852282798165
Se 10.185659772186169 12.592628341569569 13.958189625927108
Se 19.761487828297746 12.595056739446498 15.742858714462805
Se 21.09978271141725 10.52328239041015 13.149667791752073
Se 13.524531142648565 10.314855549163463 21.44620271344285
Se 11.683929602690469 20.25097496819156 17.71359194691864
Se 19.58041946086532 16.154893898695157 19.679130993180586
Se 15.437497274487002 15.150808895017366 14.749226232104558
Se 12.462099366278453 15.599547578032007 9.897840845087357
Se 10.045931679652098 21.493139336654977 19.430391141510697
Se 17.9926407164799 16.915378290457795 21.008186645999903
