35
Energy = -119.15147494 eV
Se 10.28114422474708 15.19097571859613 10.219381076221405
Se 16.415003799775757 15.83290189160007 11.02291212847295
Se 9.840820673324652 8.530185638912918 15.060716370575218
Se 10.381320607062973 9.378702805247965 8.97464937130253
Se 7.520268147409963 10.440642371891858 6.797120962431626
Se 8.056603042571846 12.382998527331083 9.959892503883342
Se 14.78166067219173 14.23991252651562 10.416700642824726
Se 12.349056989387657 14.437548869273533 13.501792879745189
Se 13.314091871260326 8.508461065971915 16.668890055177705
Se 15.219570761827516 9.616148769802711 9.56016566258031
Se 7.687176697562284 11.328425682905413 14.889374253574923
Se 12.742804950624635 10.962506393575635 12.136734475405955
Se 13.934430142485333 9.197359728357194 7.627461286401465
Se 11.31807649970541 12.309150285872255 13.418173126786439
Se 6.637858037023101 14.151767303559774 10.160892314020007
Se 17.125487256972537 15.242432461229804 14.730229405912226
Se 8.278806130697497 16.071316174940556 10.629630698716909
Se 9.019594445901252 8.50891669022083 7.349383418075478
Se 8.94979404407696 10.513650106604016 16.627285489227948
Se 14.249415534056956 8.06790337345815 14.22761592167965
Se 13.484962294048621 14.547783097252623 15.581241456623557
Se 16.770084607321905 11.290954330928136 8.919874152587049
Se 12.921766518654238 10.68472589789043 16.604128358681276
Se 9.689168455589158 7.085889820853458 12.852841673819276
Se 12.080529546234366 10.635465543578805 7.833236060754742
Se 8.690022589863268 17.049503853408247 7.364519244781761
Se 6.8416823036495025 9.44400861108887 13.659704763769044
Se 8.662278160001806 12.243481993080637 7.590498866816211
Se 10.546512352437405 15.906651517658291 7.674993645946725
Se 15.612085047862944 13.548756543235381 15.419188150743972
Se 14.516298191369213 10.240058119460626 13.622839994774612
Se 15.52409871701 13.221894464492888 8.414981930775578
Se 8.312928455643492 8.690233315691193 11.926506894856079
Se 11.06184093602606 7.284536541070693 16.54079568477408
Se 17.833429026752984 14.715892040722174 12.54964088878817
