35
Energy = -116.80239348 eV
Se 10.126332541294458 17.603185893884362 11.714862255598673
Se 13.13532380996562 10.848452772872465 7.945960928331583
Se 10.355204462337122 10.742772013840836 16.872681056819747
Se 12.759992968312327 9.468711736550679 14.084451915792368
Se 16.708530424016615 18.882097762303353 12.059086239402276
Se 17.307192495054906 15.192893793070569 12.80638641621144
Se 10.071650583875432 9.799589619351401 8.746556552624313
Se 13.281997055582659 13.325540842528351 17.664777386508355
Se 16.056218073216453 12.740909390884083 9.369894527545723
Se 13.15082361599625 15.44949905137457 14.658454021302312
Se 10.021183940332763 7.407492402301192 14.77483755225659
Se 15.491266614480239 15.067988649752214 9.55397214815656
Se 12.757596677851007 15.511734459554704 17.05921751394974
Se 16.56600520061817 17.505428954041953 13.794586189037444
Se 15.50580859267586 13.224755818377004 18.567010320570773
Se 11.468738010590473 13.7980457234418 11.896848040396751
Se 8.755747117273199 16.911931377376607 13.719171239662058
Se 18.679174440657118 14.803369386393546 21.121285425892413
Se 16.94201056458059 12.42068560518559 16.95849268534759
Se 14.908646897466369 12.138714268823849 7.360411620193905
Se 11.523150824960878 8.768608999104472 10.31336240097386
Se 9.032316929686992 11.576598363284022 9.899323745150859
Se 11.013979639559434 19.559617235939097 12.306401124304335
Se 17.480083614261424 15.816066424112805 10.599498318039478
Se 19.62324327405517 15.418154069211614 19.190550415166477
Se 13.540170937642309 12.552287400227872 11.921848800715582
Se 14.015428515364645 17.44748677238187 13.951434782392806
Se 8.924054753453388 7.286289190073391 12.734972569749726
Se 8.157469581041456 14.804788527829094 13.277650112116554
Se 17.814102450421718 16.017855159711004 17.640954913623048
Se 10.383219632465396 9.92672705293077 14.810276421339045
Se 10.496096424326959 6.770093127283162 11.026954542458583
Se 13.656465482791315 11.619213356628972 14.086429756249059
Se 17.99202986693092 14.439735149394593 15.977823600745625
Se 10.544138304873513 13.398073967992424 9.778968779389203
