37
Energy = -124.89022016 eV
Se 15.932324342366377 11.894692873290296 11.80646299658806
Se 14.481401514246622 12.873008206423126 13.28844873275945
Se 16.190904209905355 9.582569817547972 12.666053792768757
Se 14.003580204220155 13.095574305455626 9.53305717940779
Se 10.574313815794694 10.841842867181139 15.106109466177427
Se 12.458397358673093 9.660625443660786 16.085534003649485
Se 13.039557764016054 15.279454651696048 9.046772789134334
Se 14.28192693268888 11.58668805867067 7.660386806989994
Se 11.269017393030923 12.985238955158627 14.474236404465643
Se 14.787885264587525 8.286232072014737 9.475970869143692
Se 11.212765680862022 7.200831544947238 13.508595174888365
Se 11.441271510513285 7.577520238756912 15.889404815517677
Se 13.197176276526678 9.618219831213494 8.20182519013106
Se 12.226771323596886 12.850105341762694 12.33017408320187
Se 13.445498141795728 7.439782708963434 11.11464015629913
Se 10.894959387988548 15.265237049308952 8.35264378088799
Se 7.746384398875631 11.422759494046199 14.479764351764176
Se 10.366301631909481 12.510008965254453 7.37509588361531
Se 9.752236591429186 8.501923129867961 9.10081664063489
Se 6.912453284997431 9.279800505535341 14.803405897480049
Se 7.150847874872575 12.949298382423802 9.588245624664491
Se 7.17885838397804 14.273790083918659 11.418137990845445
Se 10.091285768303948 10.222142071507848 6.370186458261018
Se 9.498464869815287 12.153056485893552 9.50269526533641
Se 9.990234030046388 6.425928442217923 7.908671722759128
Se 9.95766394971527 10.652356949407988 4.066061893180588
Se 10.051747590457033 6.98987203182964 5.706927031511807
Se 7.361031695089655 8.539693370207559 9.432622172864463
Se 5.89482432708269 12.382387838447876 13.03608438305229
Se 5.543303841979179 10.831392087495132 11.49982815557315
Se 9.006899073485018 6.403965831684143 13.34670953071577
Se 7.474481483554437 8.130024925685735 12.784686894763317
Se 7.639591283316355 10.966107803785347 3.6243515365174903
Se 5.496970919551229 9.264090058287904 6.0985239334865575
Se 6.585054185206663 8.919138546451931 4.015362052931907
Se 6.23043485951467 7.60230486404397 7.619313672473222
Se 14.049121384496496 8.958276714443533 13.098135214048213
