34
Energy = -113.44307917 eV
Se 17.51741702161901 14.47828393847556 8.793044072936606
Se 17.439476627233546 17.27730411411524 11.177960985404711
Se 19.287307685297378 14.887160574269407 10.034360106511734
Se 15.962388753590696 16.60705059908327 9.61853989702509
Se 16.500329553193595 11.948392439969112 9.554826729253316
Se 18.741900446359008 11.284193178184855 10.606212215640578
Se 16.38366724728689 16.828084497751117 13.36496735838662
Se 12.553269768775277 17.319173527823047 12.549484907246853
Se 15.574390987615644 14.650984689227219 12.925001875089094
Se 12.260500753779775 15.856802083089482 10.785379027725103
Se 18.505778990193605 12.507588139033961 14.093174938052307
Se 8.624464636368034 17.04639554570881 10.430491056414281
Se 8.77342878363364 18.347747953590137 12.414410976626652
Se 15.027512772835657 11.856868158009245 11.21252445172814
Se 18.0608042981367 10.616549212012034 12.679333137663054
Se 16.402131511249816 13.333668953190937 14.706741070552267
Se 7.4225250191037775 17.503652176857408 14.112530863910575
Se 12.652919182016166 15.847902713518424 14.586673649881902
Se 9.967961824223464 15.16787234766581 10.861046261865182
Se 8.670854591274784 15.75253253548102 15.234224571502411
Se 14.07719087639643 16.85176769929321 16.0227153500204
Se 19.219913392624573 9.412889988925711 16.097051841720077
Se 10.68553434998827 16.606336184804405 15.981606102967882
Se 19.810713761018192 7.295778603432247 16.150279675965635
Se 10.860058282582507 11.09939998945189 12.765001588806768
Se 13.132204251799099 13.568203593892601 17.585289851459304
Se 9.658611581319292 12.86430593747231 13.571414159223771
Se 9.123598892291175 9.46542279879008 12.126037484196539
Se 10.294784673653375 7.530163583541403 12.166465597473131
Se 11.882316234349975 12.03656982939304 18.56720178461682
Se 8.775386459277582 12.034073747870911 15.795746002333342
Se 10.181637247133262 10.342731124155868 16.429813821441904
Se 8.9833266556078 8.296110297697277 15.689925055746277
Se 10.515571739513259 6.9897759326613205 14.640694611457434
