31
Energy = -103.47244726 eV
Se 9.335682925463438 7.988198232550498 16.356336090385874
Se 13.481400004135208 7.386751988898428 9.995172093460141
Se 14.820407279092937 17.68360918683952 9.209215640591083
Se 14.210006486769876 14.714691876358883 6.7128170268549185
Se 15.27987829033193 16.801529602789703 11.336258012106184
Se 6.6728128475180934 14.053787297565643 8.924573144272113
Se 7.435518398028077 12.724171062536245 10.5403105108903
Se 9.88613497799691 13.057209444882734 10.564782539563225
Se 11.934588319040325 8.266305287070987 13.621885364157654
Se 13.817910063362556 11.739672678200689 8.94657397432271
Se 11.909621073083283 15.600768982381906 12.448042604308686
Se 13.50265256113626 9.922581847449138 14.220570664541121
Se 11.874663971301464 10.680400762942217 17.396466050215185
Se 10.74865613946786 9.944251451822383 9.433051912764245
Se 11.015517864628968 15.717910415322123 16.290708311471086
Se 10.580558034190037 9.015757811900407 18.260502542421357
Se 14.330227749595604 6.496576862422632 8.132319382191282
Se 13.232849175376519 16.201611171510162 8.283080369213852
Se 16.12169868135006 12.788410476346815 11.99388111319065
Se 13.86487134121089 9.627796959961994 16.52230806795758
Se 9.842886947400595 9.179081915513168 14.473998690806928
Se 12.610620356292062 14.506678975687857 14.793716176036481
Se 9.703723196395858 12.590807170457579 14.694096288183639
Se 15.203378750057317 13.168598655582404 14.08273284128368
Se 11.035272244468059 7.68643051348536 9.727326851873027
Se 10.651356382489901 11.147933690979606 11.610265247748474
Se 15.457837864295541 13.035642381488787 7.740120244484936
Se 9.04956455575091 14.593191383555185 15.52437346697421
Se 13.291537740441768 17.396469501745038 12.554473811626064
Se 14.420715226323763 15.755956754900819 15.344039452677334
Se 15.141130294727878 10.990895398575228 10.729681255149591
