37
Energy = -123.21690684 eV
Se 8.423082135633205 6.288682737225945 3.945961414549637
Se 4.997160270081333 11.45471651640519 3.8220923468839816
Se 4.8132264333223675 6.712269357755745 3.426068131387326
Se 9.657857128655502 4.354724875093488 4.244077083157993
Se 8.37224657443909 9.77844077872087 3.275322711838289
Se 6.288185805214279 5.648140820326318 4.937982784708367
Se 10.5076888197354 10.015680995596254 4.057617526222935
Se 7.201490697090113 11.568100367147537 4.493350910414681
Se 12.113434398866627 6.635506934696444 5.99914949377763
Se 7.063112074615783 2.907081403626508 7.2219845017077855
Se 3.2075197562915445 8.007213152408115 4.54355817436435
Se 7.080110403999621 8.561831174748228 6.89022472575368
Se 10.295838382964732 5.0297350072950175 6.652826223164392
Se 4.017095146483463 10.01571514120034 5.47586241580803
Se 10.990290787327671 8.716524053379471 6.346288645250322
Se 11.397197779912396 3.3701869795799944 7.61011504413099
Se 12.727163012674195 10.127611650209596 6.845888690492995
Se 10.851952513483097 11.604480131987218 8.487003032176876
Se 4.800352770453429 3.523739845977566 7.285326174024756
Se 7.5987683096169425 12.944128726380065 8.263974760088542
Se 8.072885579496237 7.3674036548332325 8.591724783384896
Se 7.3661898237991785 10.420927168860791 8.48159330979038
Se 3.0955978427090725 5.513185949294868 9.625143138970518
Se 4.264594483713959 9.06381719127857 10.264299419978661
Se 12.076354494155353 10.546216667149235 10.443100817529206
Se 4.68404958778691 5.79625243212219 8.044221430021695
Se 5.0832208112487525 10.94609565053585 9.176935636903904
Se 11.668537380875867 7.746267206763036 9.817824731179329
Se 8.740827255035974 4.321376579465617 10.412988489511372
Se 7.707096517471227 2.468547601576838 9.476401763613717
Se 7.216003724410383 8.835718897063344 12.517340022250444
Se 9.28221087864388 12.911464576258124 9.867329481425202
Se 4.9954431118393465 9.506534658918243 12.490403776536759
Se 10.929728106239198 10.366846685688483 12.312164844843585
Se 6.745205143294628 5.051532492674908 11.73267487041424
Se 10.513180412983301 7.407370308048498 11.677889241133043
Se 7.278976482641329 6.589806466912202 13.36716428981433
