31
Energy = -105.03425767 eV
Se 14.206720733315697 7.24437963738037 10.27698392613734
Se 9.671107622909927 6.754938291717583 11.024355186034915
Se 12.635069851231487 15.687129245509002 13.783676022512479
Se 7.823549670307736 14.1324213721245 14.944946484736079
Se 10.607390843135784 12.834417053375505 8.060799753473901
Se 9.225022907983135 8.904735720213397 10.769022708918122
Se 10.583581301324228 16.815700758316872 14.224385458487932
Se 8.784850587400571 15.60187799949449 13.348212563014428
Se 8.174374223830686 11.99826343721194 13.994746996625915
Se 7.173406067955676 13.004412131811963 9.599094387883232
Se 12.537575256336122 9.807836604793078 12.811703360730398
Se 11.942407249249694 11.226519781855771 14.625180478688891
Se 15.426857535881336 12.410685882509648 16.09731916858209
Se 13.653940920647159 15.600472497226818 15.939236177088944
Se 12.704071017089047 11.176615315774015 10.903592990067185
Se 14.622272600982665 12.54862324008634 11.182000894607413
Se 13.380810785372182 7.062591587141813 8.015048634755958
Se 16.434603313682015 7.766762144530951 9.864297961283535
Se 9.50129400578495 12.958309999924024 10.143599881087894
Se 11.176807947940846 15.063018628489163 7.5405479723282465
Se 15.258281523029613 10.249392113765355 16.601171726555386
Se 13.348244239558976 15.28407828186707 8.59530037449764
Se 6.354860606425867 11.179024106388919 10.875918323942114
Se 13.390293320147638 13.51416560357149 16.943568379183255
Se 16.48786410258151 11.144100067916751 11.448692879067167
Se 16.76950648255164 10.06654701837937 9.365402022233063
Se 13.197674390008386 16.395990455080096 10.54547509336801
Se 10.21637558367725 9.334801582418594 8.270462685067457
Se 9.728808860840873 10.758729338639757 15.27513816963606
Se 6.897086383953243 9.187015834761718 9.829866899337398
Se 11.012857375846174 7.214011578704605 8.027819751048838
