34
Energy = -114.32512335 eV
Se 14.093322614184933 8.727950102320708 7.176711802104611
Se 7.579544411088641 11.022363398336438 11.725228395358997
Se 11.844286728826404 10.222716046911616 16.21585429522854
Se 11.863354074649292 18.761791189221498 13.309643886486784
Se 12.626360944760636 17.564111523734123 15.099931567841919
Se 8.547842786240249 8.960986462433883 11.984573344640147
Se 16.89666358953425 8.156199791412286 9.471215765538517
Se 6.806482416087111 8.608980766961844 8.909551871107391
Se 14.59619888327592 12.190767022260756 16.599004490236645
Se 16.422148927809108 10.337173724879912 8.873539741023016
Se 15.114953837591461 6.93969728866864 8.21907222412311
Se 16.14890766928434 13.945444042851598 8.512287698459128
Se 10.48007521673696 11.497163063111042 14.891958301940603
Se 14.429670256042847 19.095780084394377 10.528116389041388
Se 15.486029909288433 16.49773394683585 11.177293891028329
Se 12.044054714325409 12.026220125324707 10.97112785127801
Se 10.868116687853977 15.183314662589382 18.527151612454873
Se 8.979619183507145 12.644709029219753 16.358114491359846
Se 16.737423795636957 14.489420531938158 10.751678721671034
Se 13.912846683264434 19.892163297229814 12.574558672107125
Se 13.803717520719102 14.229466289960113 8.388792234244464
Se 12.225759238343734 9.718130141697863 11.296306145835786
Se 6.211660694519952 10.616642873302624 9.62243312356097
Se 10.255044132077343 8.813415691918754 10.332529159012564
Se 15.997353626640168 10.009728417680169 6.534794498532226
Se 9.709740154129111 14.877410691354624 16.501384233120483
Se 13.179729144518783 15.467971242519962 18.01348663861019
Se 13.32247082354456 15.360942726623565 14.14161655517411
Se 8.261373345344815 8.989385622348626 15.977464666140628
Se 10.235192948695808 8.277873955792556 16.68165506169945
Se 16.055667273356487 10.641367057083514 17.261360881044666
Se 12.576342520775137 12.258123289395686 8.629967988334815
Se 14.355716585523048 13.550909954203357 18.62675238472601
Se 13.310426293033714 15.653825323292049 11.877228000498697
