36
Energy = -122.00325452 eV
Se 17.960148162192663 11.35940541660918 13.776325647052014
Se 17.601436723194226 13.191773334658208 12.326630249614425
Se 14.643266586079829 9.509251325949693 11.689244125319695
Se 17.621602354877304 12.312313967437953 10.13038094313757
Se 15.851946384754402 10.64348486136981 14.613308003170598
Se 12.429018039256734 9.81423074074806 12.866939654123755
Se 15.42180901968861 12.201507936169047 9.251733599964247
Se 11.726377268336142 12.285377039966507 12.296738948633067
Se 15.472218089480307 11.859011187841938 16.63612652896975
Se 13.243938947972348 13.90497939760262 12.898842434208378
Se 12.977800930759102 14.46602633625263 15.215004194998789
Se 13.471912464445616 6.113304116643283 10.372610966890896
Se 13.720095011032832 8.444648752957763 9.839501719702758
Se 15.174658862716559 14.094712356784228 16.011987002573168
Se 10.673782520697486 13.917083369194772 9.145736074621887
Se 15.277659132497966 14.03726181093752 7.771035493217503
Se 9.926718124904736 11.256378813824975 6.573444299463036
Se 13.94586752869588 15.669566859155278 8.876590759510542
Se 9.061505860630113 13.107006319767075 7.597162816205509
Se 9.882873564591977 9.591552155077732 8.535647606245199
Se 9.62333560815867 15.658096449271035 15.02800447477456
Se 11.680135141091563 5.899597444107022 11.822123725105975
Se 9.476440769934138 10.866704966688848 10.304752922945678
Se 11.817492855185554 15.673113495575182 7.923175647108459
Se 12.78404585113488 9.609617820333696 15.052413913079556
Se 8.41805028643437 17.012699868086138 13.49169990534236
Se 9.123427620714496 15.676040802235173 11.641515453989458
Se 9.829496200769341 6.221473983990937 10.268874477324498
Se 7.205379709845532 8.348765978410853 8.709732050440874
Se 6.710815028951837 9.605357876978161 10.47859457962287
Se 7.586320140331929 8.420849649591679 12.491574748394786
Se 7.944614617581008 6.259901416164737 11.66437216789133
Se 8.286652218399098 13.501425389210866 12.34551343150643
Se 8.296489543599902 13.76582846689987 14.925660367304442
Se 6.496068465463276 11.251991731284491 13.484156845361825
Se 5.935190001619914 13.123738169722598 12.232317241448229
