31
Energy = -104.03618178 eV
Se 17.70428833855297 10.652945086697324 11.900133690505152
Se 11.43496533667225 17.963508108135773 15.72935073404569
Se 7.152488670518789 10.519538244187608 11.25670588277583
Se 14.823889647208079 14.367401057802661 8.847130884573815
Se 15.415427502484288 13.511308984567503 12.913406545894853
Se 13.113529277577516 14.807864480994544 10.421902439579291
Se 12.16073562952573 11.03354475518014 14.50917115504032
Se 7.332776307136819 8.402003121125455 14.263879407486836
Se 13.501330824457007 17.614249519659975 16.52804059665037
Se 13.517392888978057 11.963225208815354 16.243466168186355
Se 7.669926016407848 10.638170689514123 13.564336064307254
Se 8.729834619680148 7.208934886922705 11.060949373346668
Se 16.37557208487644 16.85543580430026 12.72857391014874
Se 13.204613962531388 13.068527999936274 11.987035370225852
Se 6.992537686468679 16.194450431794102 11.14308727917831
Se 14.472663234918349 8.904410784938452 7.826652567028201
Se 9.673621766113193 15.432936229600777 13.576485711351093
Se 14.919856322208494 9.933198775712835 9.747491387317622
Se 10.171949822103839 15.840658948003236 15.79460541514744
Se 9.063991571921294 9.446423133978925 10.360992216131303
Se 17.780776626601547 15.6668917123413 11.071686248575217
Se 16.351247638062016 11.53487457290173 13.678951236248786
Se 9.239358148513142 7.324946832665128 13.368520632658857
Se 16.18269764382362 14.667101424436128 16.194847571137082
Se 16.925422403651 16.605116942471575 14.962510304257831
Se 7.56296707672289 16.655541785391733 13.244492165530122
Se 13.212443116547457 9.170674846058471 13.359696684972448
Se 12.803123746773267 9.303029619016032 11.10960316173664
Se 16.628575668175774 8.737664446899204 11.195711813555961
Se 13.824974688113835 14.33460885926087 16.328778021756303
Se 16.34997380088404 16.13903405696451 9.304647545342156
