39
Energy = -132.47063241 eV
Se 7.411737698622762 10.448797951039243 5.767713605659868
Se 7.405777753407532 16.31046662471102 8.023532316992572
Se 13.916214664489118 10.335524990243458 6.629640098555002
Se 9.559523746498073 9.489414906677908 5.489006503060082
Se 7.485889311197992 11.604725549523295 7.849363142916963
Se 8.746789160489127 15.031891583127722 6.566188722938466
Se 8.76751933770225 17.606183810076303 9.435525605720319
Se 9.813612916700214 7.616062195317979 6.838969236982853
Se 15.144728077052022 12.040240885312398 7.949939873065919
Se 13.423498796623344 8.574377425375925 7.977314610092499
Se 11.301292835040712 15.423955547442127 11.248782287276386
Se 11.597847734204768 6.3397345788456665 9.684489860421419
Se 9.090853401191701 16.310235313861927 11.4142846574691
Se 9.306169736494034 13.078475150445568 7.780971717441541
Se 16.56667576974517 7.534395763767188 12.975283315822606
Se 10.960207582909176 8.355571958722628 8.938262692961318
Se 8.417978181826243 8.34906251678618 10.613443427863492
Se 13.48830318040286 12.71334490683688 11.268452936612174
Se 15.09290745455206 11.335413652814509 10.142096427909406
Se 11.452831372496501 11.463566784646211 11.64106076461785
Se 14.265642260218923 7.3946192452936295 12.424619957719504
Se 7.089025796838987 11.733893170985489 11.710565774989794
Se 10.658737472354636 12.527540246193098 13.591408033965841
Se 8.494535669913358 9.836702495071357 12.286566664783294
Se 13.171037583286651 8.683765433181012 14.095116629514344
Se 17.276112900865993 9.757381473904138 12.551019855690933
Se 15.529626625318699 15.592162320739414 14.09366724852251
Se 6.3578182216535915 15.158782195718082 12.96839512240688
Se 7.177663913440096 13.192572596136143 13.622952817634086
Se 12.67970621284768 17.081001894564302 12.270600696943804
Se 9.486000548434413 7.897325817135907 15.024813742072968
Se 10.896286329513105 6.5229187652602665 16.278218769852153
Se 15.831128330416586 13.99208328600521 15.772318983412504
Se 11.093310191211529 11.274243771507422 15.591044252969365
Se 13.345055839892147 16.529769387994072 14.441074996464128
Se 13.048532470655779 7.6297495917529154 16.168980239486405
Se 9.210218021598479 9.968112893632863 16.15956541707438
Se 17.367706138266584 10.743418372653085 14.691541197214992
Se 15.290438638683161 11.741456823752483 15.242149671958654
