35
Energy = -116.88382502 eV
Se 10.208100203687925 17.968061442629953 11.132509251522322
Se 8.030973654027566 15.811851251826745 14.51317379852126
Se 16.816101821903338 14.79739608003264 14.149902086541267
Se 16.72209746154357 16.59609298853253 11.302231082272844
Se 11.760638610328144 14.390308214731032 17.623402338630314
Se 13.945020739908312 9.198182108268277 17.001516536346987
Se 16.898315928165154 12.849100883188738 7.69797059226667
Se 18.64493509344088 13.382292918593226 11.057128201035805
Se 17.85434175520244 14.935092201438689 16.286460044754275
Se 8.030823944550606 17.590499161910568 11.244498125966228
Se 15.791570373876226 7.896775750195121 16.231599263472138
Se 9.404048140321649 14.778979435274323 12.864383239727687
Se 13.39785302167468 20.913647285172857 15.484730999436357
Se 14.933239583155773 6.5577647828151155 14.518249161087414
Se 9.439525198470351 9.81187940574588 12.656064745263144
Se 14.270800051473618 12.102323415822248 14.51192046431891
Se 15.283535498579784 11.503592485278183 10.309204181299439
Se 11.254731336669092 16.1148335241589 12.547350455833097
Se 12.560659976823077 8.001424175352742 12.012007697033566
Se 15.927902438897421 11.097651499451159 6.670528405937978
Se 16.440478717144778 12.505995316497822 13.649891958591127
Se 14.60367662129379 11.43968623987714 16.77837413326444
Se 13.248377678371163 16.225732337474692 16.275372214623818
Se 12.860707246356734 14.304396642372838 19.549849768914836
Se 16.151713344001774 14.53970792245729 17.86328319946864
Se 17.877188639979153 11.717683769378002 9.797157855845741
Se 14.762665999889345 16.510283501157165 17.926424554736684
Se 12.870418727029648 20.31056067173545 13.392815372979616
Se 8.251822880454052 14.546649061732 16.516349708800067
Se 11.599071987102576 9.934294152896035 13.204483470442492
Se 14.706665158463274 10.054235001318483 8.689975089758418
Se 13.774392612377259 18.14269429141779 12.895399524989987
Se 9.642705172730091 15.668123685692908 17.997251919010626
Se 14.816676066437987 7.899870735973897 12.539320559388202
Se 15.943474442991358 18.627587786922515 11.834470125240554
