32
Energy = -105.02826709 eV
Se 8.326794440557723 14.760292118074917 14.048548511568715
Se 17.34435740164657 12.025577234976769 8.889682282292368
Se 17.395526763855663 14.70492832368824 11.708096609521613
Se 14.181449005343609 7.49338559874838 15.304133918346137
Se 10.476325730216741 15.744220025888271 13.753465694954455
Se 7.495181023211497 10.206418718317355 10.150524794089439
Se 9.89310700832345 10.395554895543162 14.966735185972933
Se 14.78220915141678 16.41227618347127 9.454774607427009
Se 15.40217666354052 15.959357758588189 11.688984019978339
Se 12.058690282933084 14.21518241229655 13.112571364143319
Se 7.852668551526763 11.45091292770906 15.608975532617654
Se 13.816847654840116 9.65473465781568 18.60528811552874
Se 12.738044443016443 16.58432938521139 16.11124820965112
Se 8.803391919378116 9.185340053976635 11.643090508622759
Se 14.880353532272862 11.470048546030775 15.041147781264337
Se 13.801800203427035 14.483074885521514 8.51109537489258
Se 10.198231650817087 10.895637370352475 12.68985688431187
Se 15.91664991951489 10.26873467135087 8.167806586849748
Se 16.365161882431067 12.077822071010129 6.6921993669396596
Se 16.68063196901344 12.432812831453974 11.822510805884447
Se 12.445779750205372 7.3384067425497825 11.97098424378969
Se 12.009275586778363 6.846184993028883 9.869506139534888
Se 8.292037412762973 13.687326843234203 16.154115168125642
Se 13.85313042292419 15.070207700224435 14.935284762568438
Se 9.991715761751315 15.276031228097548 8.447860853853673
Se 12.291275027418134 10.559726639586117 16.970055074593454
Se 9.341278038965518 18.991909208919054 8.95590976646862
Se 17.041243419107364 11.680666422325903 14.06727074879441
Se 12.840976216187924 8.10260009416128 16.956699309751798
Se 14.562427103473995 13.271217195543766 16.507421412616715
Se 9.593969792536464 17.074789880333274 10.067308202575015
Se 11.681552869094176 14.034552980457589 9.481108760959122
