33
Energy = -110.51180779 eV
Se 11.208965562443602 9.98126279567596 7.063337483808959
Se 18.351526307940624 12.79119775626523 14.559499840300072
Se 15.520003241055829 9.380924553827278 11.665661668861516
Se 7.666914013205383 10.883710681814721 7.974235519396432
Se 8.621057350140212 13.26394571236867 8.80366185692141
Se 13.752592840282142 10.288937287792303 12.917505766490653
Se 13.092104857391787 15.394332283502706 10.809856938837488
Se 18.451418827439902 10.580993600566867 14.268339384504133
Se 14.092255047526645 12.566336555156395 9.109430243206953
Se 14.645142253263153 8.871502039547504 9.534041195201793
Se 9.636879110080988 8.686797211804185 17.174467112074623
Se 15.475282981052931 15.358298654845424 14.694248121887865
Se 11.893598364357906 12.536188568791074 8.048864998478853
Se 10.439220566778117 12.417124158427882 9.935218193343452
Se 11.427279335820245 17.865265300502138 12.881524370676555
Se 20.335169249659586 17.944261386785982 14.157172813947561
Se 10.153624715912727 17.931182169207148 14.803831162996394
Se 11.839844225392188 15.76759005053815 8.488136478854623
Se 11.292626754990078 15.512500354110022 12.16328952045586
Se 18.536844724290695 16.814608233310732 13.556682186855127
Se 13.00515638034688 12.41143913383119 17.100127392384668
Se 12.173239319844885 11.039140909306397 18.843746669996342
Se 10.385899155975036 15.173308791804883 17.29858257497146
Se 9.49141333047295 9.585067986024779 8.525053596801957
Se 10.515741814689502 8.303065181953892 13.487546053161601
Se 11.872681384256824 8.894420062913188 17.928648034426796
Se 15.223884475169468 10.738042928677505 8.19455916988921
Se 11.11197888467327 13.322497214534849 16.022073562994255
Se 9.725725717078337 15.912114614057256 9.161509703048143
Se 11.500930907386904 17.12371624112291 16.615565798983443
Se 12.803035240376508 8.386327145029938 13.999902389436953
Se 15.84592722126478 13.157264735938893 14.7084287196192
Se 9.548151890848327 9.76960846068392 15.084709296875458
