39
Energy = -129.69014767 eV
Se 18.90807235291688 20.716172683837488 16.005622091467497
Se 14.813779624260796 15.996328302263574 13.311924833162834
Se 18.227680505124077 -0.24927009821914958 16.83198520335999
Se 16.283119876651313 18.166508943418194 17.254604348792657
Se 17.127398215709622 16.55555745127881 15.710542480903587
Se 11.502576114850067 20.49833987490545 16.96438011382119
Se 10.192385937394256 11.601868198683484 9.332273384980235
Se 17.716656012307244 9.847700869992295 10.547912773073143
Se 12.171928540441193 11.558688808389764 10.618490078490938
Se 18.295840575809898 19.347995692731832 17.875012600186086
Se 15.041965895872481 11.443578619043693 19.593811935748576
Se 13.921596613174133 9.495671697430879 19.34435980852809
Se 18.026492313445026 20.715123096261564 11.885945674368132
Se 10.149586121212183 10.723368316668223 13.61451028660456
Se 11.398747194154842 12.503511203472627 12.672944415918376
Se 18.457453766901676 12.759150933408442 14.00323460856461
Se 8.977501005215753 9.777565587685096 10.26718536711195
Se 20.091348968437213 22.64591758017119 19.11789070786252
Se 15.90052571220113 13.081708399318273 11.225673099637772
Se 16.86675068482068 19.021258857477306 12.949791285198529
Se 14.714132368393226 8.179133377156843 21.412954760505748
Se 17.58331376049147 0.6343233806941309 14.523305289892841
Se 12.896656952636912 17.95489950785314 17.964091483914117
Se 11.677779860955024 21.130127345980195 19.05545332530036
Se 13.94464140766525 14.714625733268507 11.664503441630588
Se 12.843652334190196 18.981944590939744 19.91045775900411
Se 20.273236281854356 11.775866004985328 12.68888938287636
Se 13.67507021093332 14.920306189605649 20.401386756071215
Se 18.490864474407406 17.642851590881975 14.147727543764013
Se 19.068380215678992 22.460041126210125 13.23681980456551
Se 16.001066841806555 10.757616270021916 11.918448651383459
Se 19.739521268438697 19.608912034662765 21.35912296403178
Se 19.261297831352888 22.052027924608907 21.109476618057553
Se 16.079141923965505 9.557919968766443 22.471432401473503
Se 17.330361400574134 14.431747164791354 12.878510653031139
Se 8.171213509979054 10.697147194194214 12.283873538821389
Se 13.40040335935572 12.768160108948763 20.926821384856375
Se 19.29324824659537 11.616417774365067 10.587163112502443
Se 20.649384839998348 19.10108263620136 19.393018184536672
