38
Energy = -96.22248565 eV
Se 8.714473257364052 8.01097323808135 14.438518771821572
Se 10.110008739055704 10.296287284052456 13.311707580591484
Se 11.32945126018707 7.636276573672701 12.639333235540585
Se 9.766096469883516 12.261120364588642 12.572553028629521
Se 7.213774869521762 10.625075140675179 13.43550516235304
Se 8.911450309176455 5.667683674372619 12.048775971839861
Se 6.017094900580407 7.311088938767256 12.876696816342163
Se 12.32510001332784 11.344190383582623 11.574128200484513
Se 10.6200824352592 9.340340225017725 10.59243190631674
Se 8.623539364991304 8.676588332776177 11.036918520780185
Se 8.120913406503675 10.7936453278728 10.68331491723917
Se 11.58326298363758 13.657969398415547 9.995549282968188
Se 11.55710204812622 6.14312108204597 11.070297810734772
Se 13.39154283146915 8.854784103950719 10.832769585486487
Se 5.5541267720428475 12.343300661345602 11.554590994015102
Se 9.798904028800624 11.081537585535584 9.375259165805682
Se 8.176491976088709 13.95483015087928 10.89711082274706
Se 5.508335717689735 9.252800427757148 10.808877074541257
Se 6.512957619394966 6.651751333465314 9.782485615580955
Se 6.5428376094345415 13.077022419579372 8.718318633655292
Se 9.022466639139799 6.6922855329869915 9.540944136010314
Se 12.512815166850709 10.928400224968037 8.958234818368267
Se 13.617698770526014 6.182662181012604 8.71867222829355
Se 11.14605726863042 7.980985393916652 8.74714070200348
Se 5.7209846140697485 10.131918692572663 8.395248285023643
Se 7.790403722058799 8.877279444074459 8.720118809797475
Se 13.934182324695556 9.300385253578353 7.651340078304522
Se 9.306300211649273 14.01289598717114 7.9380283408361265
Se 10.621681618725392 5.018429554516291 8.072125864706209
Se 9.75321059544325 9.882991447596826 7.730213977953289
Se 7.820940443311299 11.346117538427906 7.201960996416822
Se 11.171622086015946 12.333801006111178 7.074120884371687
Se 8.673280049721047 6.683902229523824 7.041605187920093
Se 11.962378822130356 7.046278530445971 6.0493839899401065
Se 12.356097116222521 10.155927408096334 6.000696630957184
Se 7.106319798450129 8.934922194926719 6.194781686435622
Se 9.579686465685915 11.2982987954342 4.924061726146863
Se 9.999001317319447 8.084586741865428 4.782546713245287
