32
Energy = -106.43311251 eV
Se 9.498212891012296 13.641118950989272 16.151934361126465
Se 9.44916004195202 8.856627871200649 12.597157686842378
Se 13.713072196772071 10.976190945161651 16.401904129325445
Se 13.364038647361692 15.30796669694642 11.199974082942248
Se 7.494001155448818 11.265303506945811 10.102892978630324
Se 15.213262238593915 12.507889130972087 12.344084441950516
Se 11.711882936560002 14.21711609200719 16.365917518441425
Se 10.331808052378076 10.358246186327017 7.798026384019542
Se 10.50786141226247 12.51848680878363 6.3302242795814
Se 10.02843515322295 14.151875476834112 7.851991801530197
Se 11.55253229496048 9.454617993370562 15.130231183663662
Se 16.500720979403518 9.185997887420733 10.651089767945201
Se 12.066175862228365 8.212236692167485 10.998143318231953
Se 15.782669672955722 7.413398762430774 11.996173532474813
Se 7.5537792828347445 8.072937149745874 11.292529306422447
Se 12.195991279656097 15.726230244396884 7.595425582145167
Se 13.547294565108153 14.447934329816807 8.920315086387156
Se 7.222731230652135 13.620929509604885 10.088724857160056
Se 11.838233505457081 7.98776634135716 8.765803521879784
Se 12.840991867932807 7.5977958952618145 14.192012269508977
Se 16.655719471875557 14.182472620414105 12.49413802854728
Se 7.1788429528093225 8.990189091414965 13.457632599519865
Se 9.903870420780835 11.103404496265924 9.912167230193432
Se 6.405748783589356 15.338291494267201 15.15137591728328
Se 13.972762989289034 8.953571097740467 7.794514336049143
Se 14.670888540702492 10.269881488222458 9.547466201113918
Se 8.544265332059645 15.231423547443063 14.530315550238793
Se 11.078067710062951 11.066780561308326 13.623289473536653
Se 7.474814353487588 14.346632667069958 7.896254567892532
Se 15.390751726105693 16.23609004801958 11.637764192644068
Se 15.14455863257146 8.103164806894526 14.169676003681806
Se 13.18784152296225 12.678419312248046 15.031837512140013
