35
Energy = -119.09246482 eV
Se 9.460038127471035 11.024212599800993 9.456142469980575
Se 17.69551405082826 12.418240057844468 13.877083879642136
Se 13.282963401359728 10.599853549617263 13.1086313918797
Se 7.572825580721676 13.633233610385565 7.632187557998465
Se 13.77538732712348 16.928500352576126 16.576179213309583
Se 20.293147216255484 13.833407580114498 16.060977783804457
Se 10.302717634896633 15.809339987487279 17.29582620354845
Se 13.950260071137041 8.32821083934339 16.14540688848086
Se 19.065967100124144 15.723663812378721 15.827246806316213
Se 8.663866575800855 12.521106360206332 16.070898866206523
Se 15.425859418528118 12.613509862659216 9.172441924099555
Se 7.901641331445039 17.213183401413193 8.481308787104515
Se 19.218504469939695 12.324077087377624 12.150138068655696
Se 15.935887631442219 10.486239694734074 10.42251777201619
Se 18.891121650265433 15.966577709619784 13.269230878512378
Se 15.28478404601167 15.415855761943968 15.572486271596151
Se 13.908639536799217 15.007595284701889 11.977672599483425
Se 10.074422665704551 14.285444051372359 11.139514987299217
Se 14.870420322158147 9.995447919895089 14.751025188877158
Se 15.82043110244967 14.534266592501146 10.74536158427029
Se 7.299695350265774 11.58289067778543 8.700296753599916
Se 10.460526222081976 9.24836955799951 17.179909823890217
Se 20.387493055987136 14.520267349174455 12.436580532881488
Se 6.679415398052177 15.459441087870545 9.090742106533138
Se 18.809258503317768 11.928974998041076 15.905438955001472
Se 7.579413719976966 14.965475505979198 11.660676096033383
Se 12.727285364413197 9.553930288891694 17.751575484599417
Se 13.921873803001425 9.541008581739717 11.069195433981957
Se 12.512750241329247 15.61375145258236 18.091372174698673
Se 9.87202424611898 14.448371483249666 15.416997018589615
Se 14.104465354291518 13.97390055621687 14.123763613897685
Se 6.72169392577325 13.114539149793465 12.504760074135639
Se 9.764831875122791 12.076879202691963 11.598591094610681
Se 17.31595818942996 12.890451227955388 8.017044603456332
Se 9.857591791743717 10.614118771330784 15.349163360942033
