37
Energy = -126.0312297 eV
Se 17.868045669965586 8.950507329497599 12.008162034738248
Se 9.374310257158061 14.547463808372063 9.709254420691495
Se 11.906569447112263 7.2988596550426355 11.879965900449381
Se 16.96612674643996 13.765710470441087 9.819947676780842
Se 8.313210147229253 16.974836342240405 12.946547554089552
Se 14.779252973078163 16.371867198810016 8.377942219950887
Se 9.185325366511764 13.24685631191742 17.221808944755317
Se 16.84651048939642 15.96300797872796 14.384211483336001
Se 11.508542655131357 13.651441522238445 10.187666486804837
Se 15.297325201353683 11.89981441997119 16.043237371722388
Se 6.703807664543756 15.582826137121273 13.984940804825358
Se 12.595122425036099 13.238613810247118 8.130342000917539
Se 17.80929822168084 9.880398748492345 14.114632066699896
Se 11.595143206455854 9.569557475709475 10.804603713489843
Se 11.115791602840677 11.89677169049027 17.578363715948946
Se 6.935605342966326 12.488778805881383 11.821686683676317
Se 10.057223167841581 15.094730517544193 18.516073178946254
Se 13.55921616537644 6.384691493816867 10.630767606911492
Se 16.753809564788522 15.165085288376156 7.927882407532623
Se 18.61312190520021 14.789639284404469 11.17075424709499
Se 13.301116496537691 17.313387784528818 14.463498470923431
Se 11.363940768442612 16.190468454744106 15.057798158739972
Se 10.061559588353312 10.038691796349852 16.414592853487857
Se 7.721119552929619 12.863931491271115 9.630740102197175
Se 14.643992430848352 15.28129960139454 14.177246347047504
Se 12.113791209898428 14.338992028216374 19.06279645917742
Se 5.575409374238317 14.363928324463677 12.313007640731549
Se 15.633073659998006 7.6700260088802885 11.653027254757275
Se 17.6573773222074 16.649509880645965 12.245187180805793
Se 15.897455201983592 11.402425678940089 13.90769432206187
Se 13.07271302247311 15.320568374396869 7.131520997105111
Se 13.285021009117953 9.39093720897614 9.23232517205971
Se 11.12102049328646 10.108491050152383 14.34254485225622
Se 10.280377880079035 15.68434731018463 12.965399262986109
Se 15.279853024135626 9.760682860019996 10.47155863957976
Se 13.201070148541168 8.934045361853407 14.856403982292349
Se 13.977258584982444 9.896316483799419 16.78537577258916
