30
Energy = -103.96008902 eV
Se 10.667456658456233 10.958492730599431 4.83667003852833
Se 9.020486890981084 11.883042481787033 6.282359527746388
Se 7.106689564575847 10.58392992208806 5.840135580127999
Se 12.438825543225589 10.17233304016905 6.163135443366067
Se 15.618307512109958 11.094548957789616 8.267248392697653
Se 13.982982167658495 12.758526896533661 7.859392576312869
Se 15.117447633319541 14.80771119742885 8.181783402479365
Se 11.907932215843676 8.028930928488409 7.0674170533783265
Se 7.346886876323416 8.485159797255731 6.883994740327883
Se 6.566081225608653 8.687705348413346 9.099485127481179
Se 8.463794276871386 9.077601895458612 10.449436098714456
Se 15.035730904875411 10.247706226201112 10.397918862045822
Se 11.852734330667086 8.376382649727104 9.39636954847243
Se 15.341821925938413 15.266516932986315 10.483274922698607
Se 14.12822636505053 8.103721547540072 10.031978911971411
Se 5.462848101720905 10.045653085485375 14.153960283901574
Se 8.88976062690334 11.397902560509793 10.453227584472527
Se 5.687274434156741 8.021223035686678 12.982804195210258
Se 13.483299384879436 16.535875198239122 11.20646257398975
Se 7.098328990410274 12.37276556116936 11.642179248343005
Se 11.957697405215196 15.104046145898288 12.291908757988073
Se 8.966615572624713 6.043670804103604 13.107392103713572
Se 6.930093346721461 6.4489882540103585 14.2411469328191
Se 7.303603744795552 11.495421243209133 13.829238783465632
Se 10.626698153091695 10.783749093384124 14.335813028369433
Se 11.48658187857951 8.91295206926585 13.149657256308943
Se 10.790195535562589 6.963946488383356 14.287338181600541
Se 13.794474588450894 12.9022173161849 14.731591701551833
Se 12.712918497681338 14.990091573731663 14.52977575590477
Se 12.269670441934755 11.504651812505514 15.872368180246426
