32
Energy = -106.83797354 eV
Se 6.268006669351775 12.966582522940017 12.690339013131057
Se 17.393129560987767 13.420756476391855 13.29122160633072
Se 16.575284665397838 15.793805142609937 12.747319020642434
Se 13.22671559056282 9.766104628981203 17.484839793651066
Se 8.918357295964189 15.078175532327174 10.487681904050364
Se 14.562408927746164 14.887855899513998 9.628277140188862
Se 8.800873045276035 10.953315798119222 9.74139169306921
Se 13.985713384555853 12.306610768955808 12.703493061334319
Se 10.28833701273312 9.088072196855 12.446893073722848
Se 11.846268143856758 7.1398400788485 8.47179718915046
Se 10.367770416165195 6.6542302602020795 11.81759022162169
Se 12.286768473870886 14.476151006084114 16.325670563937962
Se 13.652254479139508 9.284522281572569 15.094573890861989
Se 14.810272010515249 11.37027067973978 14.735753818379273
Se 11.101354406440997 14.755883766285912 14.20068768563273
Se 7.427668376156968 13.78142271963649 14.42300906684969
Se 9.779423348891502 10.423202431646336 7.747135841546104
Se 12.80756988692539 6.803443407164597 10.474336785450511
Se 13.58400456053777 16.765743688463374 8.563937712405053
Se 9.690016814588807 12.903209432243475 14.096566175331771
Se 17.4537608093898 12.392141881126273 11.30750803186061
Se 11.951027061560684 9.55243288066518 8.151872276432035
Se 11.108454595973074 9.319673584993554 14.576928520576423
Se 10.42853507434051 12.904715386266018 10.446834293649758
Se 11.711763752914843 17.49708680607989 9.760693415354297
Se 9.899428446713433 16.219804764633235 8.789856928711657
Se 11.368743942603848 15.71504501389124 17.945899740807626
Se 13.09924388536014 7.889087563694665 18.678142357197054
Se 15.162260653408492 11.326876063500164 11.001860338071612
Se 16.65384156546933 15.76876720226183 10.470630303545079
Se 9.070865760023578 6.59405860459966 10.023551267172866
Se 11.717890508711768 13.199124655840585 8.671720395467473
