36
Energy = -119.66973123 eV
Se 16.603576505998557 17.738795372437988 17.133626257588492
Se 8.925525538007701 11.66829561663569 11.999847581085545
Se 9.486769196131391 9.638039732228428 11.340516266277088
Se 13.612330648072087 20.284491119873184 16.863151936784924
Se 10.874882886677751 15.814953931409606 8.879512494714279
Se 15.174461848089615 12.766511942520419 9.527603580417042
Se 16.87715277185619 11.12983092887959 13.125483143061464
Se 11.372466907524771 16.42878164356382 6.829805786725301
Se 16.15093232532762 7.921570130266511 14.945409371337396
Se 15.229865959879929 6.22180374531808 13.573837103866536
Se 16.833733296947983 5.739351439868739 11.963109793530492
Se 10.171569651696336 13.849608787962708 18.002436733019426
Se 11.392375886464041 12.106704963739631 15.070724792102583
Se 9.953103345207635 10.001223376981887 14.998602029196626
Se 10.823633402575329 8.650275461312486 13.421768903314529
Se 17.793235114744768 18.336675238941353 13.305382102067659
Se 14.735394381656798 14.10707006697041 13.570623166570758
Se 15.398527119352778 19.205932435528556 15.730271643854262
Se 9.253475920772251 13.32678003098405 15.900342949059409
Se 16.109051714551786 10.788922236898275 10.727799615345425
Se 11.455382772255922 9.861304387107069 9.650058095028609
Se 12.441941874814377 16.897085813595538 12.132212217221445
Se 12.73530377450463 12.118593724347686 16.84871622642193
Se 14.817488819268258 8.615626084639603 10.576017292053374
Se 15.941974586594224 15.505616785482044 16.779371503948003
Se 16.67563275177313 15.14036388187883 14.55705675556341
Se 9.1387689933061 12.642054288479157 19.59358012485562
Se 11.462627938922802 12.111364294568702 9.238978940020868
Se 13.150422871967262 13.150582587266378 10.6073935779126
Se 12.840145417686042 15.366518085333732 14.00320274374709
Se 11.019192281764724 19.8942918916864 14.205262706005819
Se 11.560249138180783 19.235342154280826 16.431500054464614
Se 15.97634494874539 6.74470095898999 9.914188082066634
Se 19.365185617943588 19.649354352025085 12.492723101562762
Se 10.544567894378488 17.89205357921857 13.051684199089621
Se 15.26336551911735 10.055664866440571 14.416255559561643
