30
Energy = -103.82033749 eV
Se 7.889016080572512 11.559938122653714 5.353772917722755
Se 13.53179474070596 8.8407288210953 6.966676266916985
Se 8.74355820061416 13.293977301818751 6.708725388699241
Se 7.681200107752587 9.702132942566179 6.79511152835842
Se 11.079840254221683 13.010448041325947 6.730994751828416
Se 11.364829297376174 9.348885809450413 7.857343867485383
Se 5.471521181569257 9.670395595770632 7.637636247491126
Se 14.87609825655132 13.427186153635068 7.861841867894522
Se 16.144448741861623 11.438297700514916 7.787697257436285
Se 14.989327556020015 9.571536350307932 8.661790221265631
Se 11.491444093825505 11.576828771404726 8.57958055280622
Se 15.014290968333672 14.30806585563787 10.052584175425723
Se 10.086218474093371 7.308112122281827 10.290405178183581
Se 12.208544055358766 6.589502818936199 11.000530471087723
Se 5.306301037369588 11.319734279387584 9.323731680099236
Se 8.554371216633324 13.095167916728032 11.30007161948292
Se 13.349107152419045 11.396278118078538 11.70183251939524
Se 13.001741409776383 13.672374450164817 11.09711251477537
Se 5.8869191704967685 10.46862721853944 11.43278536506517
Se 8.240163976610921 10.795783370283438 11.654133951439501
Se 8.63808024217156 5.902377228213439 11.64072441161567
Se 12.530066203896162 7.561922503327425 13.113971713966238
Se 8.199262821052955 14.239054268656655 13.343859034935845
Se 13.63437435708441 11.269181563732092 14.034645445043369
Se 7.72033423782754 7.308488031351836 13.176921079891613
Se 11.433019398495258 10.93738386761571 14.838606029259273
Se 10.35651268810215 14.559933768035966 14.237592802690447
Se 11.132313342674346 6.147147384539762 14.492192476320069
Se 10.780176624961463 12.943703422684669 15.902795792999799
Se 9.343294469355541 7.414976559045364 15.102503228201693
