33
Energy = -111.22746537 eV
Se 9.145741575361354 15.00966042183951 11.187305930192412
Se 11.419763827208945 8.569033812454542 8.590435258767956
Se 10.173319137434534 13.776771032612713 15.174180349240887
Se 14.765379083132466 8.33570416640546 10.46849595235524
Se 13.580882662540006 14.682904660176947 10.558021604797927
Se 7.629477189209772 12.349604213704945 12.070640077655078
Se 17.278244115281115 13.703337256278422 12.43081868826538
Se 6.201429364330123 15.215289603233758 13.606607920205871
Se 15.078493735214234 13.613879807121462 17.190119944077406
Se 14.652495477243148 8.748872707746917 17.326301986908597
Se 7.964431070237591 12.168690200913135 14.61997900353277
Se 14.326199079145088 8.708968363775138 12.810473808088311
Se 16.238320688546242 15.174935224537515 15.83563221391025
Se 9.882650463791949 17.233132945893335 10.5317834156858
Se 15.474597796425757 14.768046769156982 13.657497905217198
Se 13.048471440573222 7.080779539482157 9.513449798939664
Se 15.962068708508859 14.20311152746586 8.899498070331502
Se 12.984701160636757 8.786357925068392 15.810141049858691
Se 11.615619456253759 12.058035556040302 15.306414023858187
Se 9.552586109862789 11.224344728218098 11.457222584777412
Se 6.983714294286178 16.03923040838926 11.667456231277468
Se 16.50654740552232 10.09497196269656 16.52630023903104
Se 12.457354694117074 12.048116283036089 12.975459928885833
Se 9.309507530948153 8.872642776075367 11.748484200655424
Se 13.387061232239658 16.98955883969866 9.578759266586095
Se 9.349605265021106 7.9965650874715 9.543536607362356
Se 11.26997342209707 16.83742912501097 8.66143262165735
Se 16.55321418595325 11.941002034442377 17.973065002843313
Se 9.013753544241117 10.232681526857583 14.873557305041166
Se 11.79847760093155 13.583646663397928 9.775553305281713
Se 14.560743982768507 11.06306999610008 13.039086580094292
Se 17.552159809887144 15.097408087536376 10.611418849389125
Se 15.802498285446115 15.864617163956119 7.444286083552879
