31
Energy = -102.24336202 eV
Se 16.502307048277714 9.407354650591234 8.149109224151243
Se 10.71375991718023 11.290218613620251 12.061636708925406
Se 9.806154996762295 14.02013107126851 15.932136129053584
Se 16.73315276539609 13.490231211249295 13.87849334050122
Se 18.032324220843496 15.508475444376428 10.742274722119921
Se 14.929273370435581 12.761998552570915 17.005303264101094
Se 11.896824845464385 8.046245705429161 12.733467686722669
Se 14.193439178060057 9.727515868535608 15.363614692660594
Se 11.605437502575146 14.792003008787823 12.619518768770474
Se 11.387963750546838 17.719095133766725 8.590171262603777
Se 10.835970927708475 15.71221635850692 14.681625942266145
Se 9.617438042878643 15.967721368022389 19.746787402840027
Se 12.884865688192306 13.19416981966896 18.021169656476737
Se 12.845314577131788 19.33592071675048 9.063764089268945
Se 13.190375098907579 12.80722995041821 9.726794732032365
Se 9.999184347730939 17.430315208417014 10.572257733453519
Se 12.457995691776638 8.34144703997661 15.133510121839516
Se 15.36094610368516 13.511595348553227 10.386739244274823
Se 9.48550732940526 10.546910572937817 13.937498014447021
Se 10.21883137118889 13.910516508947534 20.221981839993
Se 8.557669512423695 15.763668264526538 10.150804421112914
Se 11.263902675038667 12.265328726264356 16.50433378058872
Se 17.19214452566334 8.58665469510105 10.109374464100503
Se 8.217341192631178 8.792286724240316 13.13156929227523
Se 13.555436153260674 11.646740018168051 7.688889931384707
Se 9.859850019551319 13.592840131603664 11.63170349833668
Se 15.872848295273451 12.054482920257978 12.210824680700414
Se 19.429780868588363 14.689432738939443 9.259149482138172
Se 15.15073856438082 14.468266581124922 15.303896186601976
Se 14.05761596138208 9.411275238801432 8.142539545081153
Se 9.90745763181569 6.9695639827335505 13.060912315334217
