33
Energy = -109.84354721 eV
Se 9.486506621417744 12.044682983316827 14.82619767037192
Se 13.844218823865663 12.427859027720128 16.528825263338174
Se 13.68615034208361 16.389601861862715 16.78825924644985
Se 15.507563648613445 18.213188526002067 10.534130595272751
Se 7.84665755561602 13.302623138977715 13.733550871546658
Se 12.88745864987371 12.718368643868445 9.899214756646208
Se 12.11009185348312 8.556003939629697 15.14386326791898
Se 12.075432278364106 16.82395822367605 11.309161381416123
Se 17.28343462149025 11.841442828315067 15.245170102996966
Se 13.742550266083262 16.81791385147918 9.738572172217111
Se 11.832247121638632 12.112218410050403 17.58154034555065
Se 12.82484341563836 10.960408973454589 8.232897920786613
Se 11.071150998343182 19.128130538259928 10.910775495307943
Se 12.359024370349601 20.08618628565298 9.389999698248285
Se 10.201333131851722 13.517265162270533 16.62342687082115
Se 11.825898777343385 8.16806968762936 12.792608509407094
Se 8.833781581578135 14.736889781513197 12.165722199590032
Se 16.74835009004773 16.923025197737054 12.095137218664734
Se 11.620326805026663 12.082285321968975 11.64874575972965
Se 15.999936161521635 10.018154797464078 14.305918406031772
Se 13.895885033239063 7.622755880749825 9.79501567265857
Se 16.89348938028763 12.880668690061576 11.928857855280707
Se 17.82320870149964 11.057750977114567 17.276572898144366
Se 14.671624411188294 9.605891336913151 8.73239378937971
Se 10.955269093486173 6.975021271941192 16.23725753832915
Se 16.065361155735427 17.69745377035972 14.174517748037097
Se 14.664704947177748 14.407793640516914 18.048083400894114
Se 14.098858593877349 7.683097942542476 12.128007012168228
Se 15.810248140434943 10.922312850872192 12.028915867197211
Se 9.265664085785927 12.9062596444197 10.515223649469185
Se 10.019584288590533 13.681398686518621 8.586814058438181
Se 14.044128586140962 16.36739911410484 14.53459856703347
Se 13.18847850478391 14.50738104949594 19.7034862271165
