39
Energy = -131.45863196 eV
Se 10.908244814615447 11.921789539318022 5.389302605550128
Se 13.021730951214026 12.047566889556816 6.297313350301662
Se 14.306412980627716 13.823902779874262 5.446478544693656
Se 14.252364731437074 15.639733040483527 7.050379964741713
Se 14.446480259832295 6.604735347780661 9.446804274685322
Se 9.36548558381348 12.80473793913341 7.1660190123647665
Se 15.18675583989604 11.270275534235601 10.041178865357882
Se 8.07721837589872 8.714512643946106 9.540998330760353
Se 10.693727733938992 13.488732536483226 8.890276713929666
Se 15.390320857300432 8.058215653853656 11.082988901704892
Se 13.984577637744612 14.698630880547517 9.135148986679974
Se 12.767183414207702 8.258078799082291 9.062916222027166
Se 11.281042804628452 11.331492650397337 9.969597811236433
Se 16.040271851985253 13.549349718612163 9.802770182182293
Se 7.05789316610528 11.047248976958175 9.628673398360835
Se 6.5591012482378055 7.620755502291665 10.851873634887063
Se 5.521574754675346 10.90392498558538 11.215307070849665
Se 10.011378644204058 15.345754809571963 11.982633569867302
Se 13.543133551342786 16.50360249744634 12.960196197203587
Se 16.087916532856035 15.99197246931963 12.88703625685486
Se 13.188216638665532 11.757135788638555 11.24038508753161
Se 16.154664655195365 13.741595329142172 12.494336109573567
Se 10.939346207848972 16.848054472050244 13.479618708022965
Se 7.854923147183866 6.565758451712155 14.28483844999911
Se 11.691683149311729 8.203929166577241 11.128622976079317
Se 8.640193915852045 13.639268195670299 13.013998640549651
Se 6.95294852411118 8.382304675286955 13.100810621881395
Se 9.810357614821784 11.752636197196615 13.58476891475914
Se 13.641831039414015 8.113891314927573 12.662439858466266
Se 10.236755442669827 6.614609457876658 13.954232709822694
Se 15.179136978963722 15.143848196467804 16.185713678581692
Se 13.145844397693487 15.48184852227362 15.134610925893778
Se 14.018704891967557 11.933122917999967 14.621556667988317
Se 9.332940598734849 12.024174051497743 16.229193804236047
Se 15.999118805640647 12.9586752629573 15.335320188009844
Se 8.151982767652077 13.898258588236379 16.281632900925466
Se 11.07729669121469 8.654333162848904 14.554655653998092
Se 11.515316395485474 12.659691629417603 17.302009389108267
Se 12.975670033298858 11.0115990550326 16.573108450621223
