43
Energy = -146.89580685 eV
Se 12.673005910991309 9.90920318517615 5.254635487271278
Se 16.18584457502017 10.889928665905737 7.013397945650277
Se 14.326943853285716 11.738534770138426 6.128674975861961
Se 10.907276211842012 12.832004100769563 7.4634763164037015
Se 15.006850927767738 7.380172608868811 8.35019129810906
Se 11.760387312684351 8.959718108556691 7.136429609842166
Se 14.97662446443219 7.711168687900166 10.695729845167346
Se 7.414126734156421 14.915608211878599 9.43203719505396
Se 10.531525433443212 15.178770823408522 7.4260160450573025
Se 13.064756135284012 12.325008164175252 8.185718411013148
Se 16.321077421596218 11.211017964305459 10.52446253898942
Se 12.854566925134769 6.8775722246500814 7.564828824811746
Se 13.73435406325917 18.788275810221055 11.110285957333016
Se 7.323247713041969 13.24512095516773 11.103075845981227
Se 13.592734873978763 16.516682306173784 10.460737931558636
Se 14.3439681987523 9.95404134345381 11.002581936510731
Se 16.914543760461065 12.336271494720535 12.502595259922124
Se 9.633248614004664 15.752988112331487 9.528926590957152
Se 14.782640599074883 15.259618219484308 12.047659408831613
Se 10.691716554803946 11.895217176175967 11.162155899750154
Se 8.486957118594377 11.372790779083891 10.314314359362585
Se 10.801432177687884 6.3313374802884566 14.319689366403628
Se 11.187453657480145 10.31772417463433 12.771483159132208
Se 13.19151800978893 13.793122132525445 13.095632087673744
Se 12.500464224221508 5.153628200676225 15.46734634487013
Se 9.64637537661742 7.549959406888066 15.968129628910287
Se 17.814239167354657 10.744385127980786 14.039849397253173
Se 11.090006141945487 14.968824307523773 13.334017353119552
Se 7.37700829842209 14.689017770212095 14.86433913469925
Se 11.91920251735489 19.346495463918394 12.51284413211837
Se 7.6893179250601795 14.904956349771215 17.204146837392603
Se 13.413662037026594 17.35788085816903 15.327005669786516
Se 10.130418609518783 11.177991486883032 14.814620791543812
Se 14.550169431702178 6.26803447641061 15.127923517414033
Se 16.488039227333807 11.07764528728691 15.951554950910849
Se 8.57539013753202 16.365263015064148 13.813370209442464
Se 11.146511035264178 16.337105993139104 15.348390913138408
Se 10.931577464869626 9.541260162489301 16.25897733451932
Se 12.795684728797722 19.52547203138073 14.708923444981092
Se 9.66221466753233 13.613548383179262 17.494634129637557
Se 14.730935253761535 7.86529636065241 16.864077974643415
Se 14.397123481495822 9.97716443351083 15.837922642350902
Se 11.465988648904613 15.075303006150639 17.498318917901027
