41
Energy = -138.95261649 eV
Se 11.586565242278171 15.66832574785296 6.841848026246472
Se 13.830202477382704 10.918382216280595 5.970757764290659
Se 11.980389544551734 9.616704812514527 5.150021260094582
Se 10.107293033264728 10.101747332437302 6.478206451807558
Se 15.197444366684698 9.56075021656684 7.172864491375053
Se 10.573857451884058 13.704276729966718 7.658410856967896
Se 12.94970716780458 16.907278076675368 8.312584991311573
Se 15.17108122649413 16.033464447427285 8.408405182199687
Se 10.912368569432385 9.155621869748611 10.137213546900151
Se 12.934173563646775 8.121650995483321 10.29971253501145
Se 14.464264543277974 10.193118372282818 9.593863147574096
Se 12.949901816691337 11.780968583114007 9.255560167016954
Se 9.87995143471719 8.414127499623326 8.09471683983902
Se 8.810790062981678 14.380892049904043 9.142376216714059
Se 11.167887913619555 5.47644028207286 12.309370586524318
Se 11.8814650242141 17.14962364292438 11.63804988763243
Se 7.712507387638155 11.19777312858188 10.652663446568608
Se 15.715680446501036 16.07118463283554 10.6931358151067
Se 8.933010585238819 6.374494188803887 11.945391069091214
Se 9.254864052541922 13.011819887381813 10.996833386390461
Se 11.10974898265596 17.523069078981376 13.886875734404413
Se 16.2856718256324 11.267469374316617 13.075787941965695
Se 16.07685179688839 13.886287997951278 11.63825339110956
Se 6.402365552303675 11.573357184953476 12.639411845905519
Se 9.8790081939289 15.339056260419271 16.415918897721475
Se 12.019072020725703 14.825655685219825 11.551938683098154
Se 12.792574632422085 8.721354158292192 13.628572435964912
Se 7.877459232314642 6.45784917351716 14.024489306935783
Se 10.96157882364382 12.196372085320911 14.131855537318856
Se 14.02635150309332 13.127957519548568 12.61757519594886
Se 12.09758141742803 6.431410780196108 14.17022698696547
Se 10.82054692854216 15.101257688060924 14.133770169423068
Se 16.75942115704022 11.748771504051694 15.303938053359785
Se 16.325739554506015 14.082541775046256 15.318920293259358
Se 5.980218231117449 9.524632451773796 13.624119864217151
Se 7.944896707819664 8.691190624890293 14.766351698075935
Se 13.151671163088574 9.397362131352532 15.857617862266364
Se 11.3481838938279 13.96219418720772 17.550802205012285
Se 14.01739539094772 13.972690267206335 14.947301029293548
Se 10.301896624208457 11.963812320373519 16.305406812506938
Se 11.146202251856305 9.704904833678462 16.99672218142067
