45
Energy = -152.10753887 eV
Se 14.765738015378187 14.187034150676952 7.976184806452832
Se 12.636377552544555 5.946566635348615 7.626689204487455
Se 8.435686127452708 11.676011173755585 8.889394157638401
Se 13.247329879551542 17.0028516494695 8.852847720061305
Se 11.619169035680697 18.49507284072481 9.522223794828447
Se 9.822904055528502 6.273271453372614 10.231081766778821
Se 9.933508884028344 9.969094975489371 8.490645688677741
Se 12.202850342937184 10.8808765923419 8.672871453918242
Se 12.590065797564392 14.562400927827637 8.899611288382486
Se 14.134980929628941 19.64948871040342 12.089393752718392
Se 11.977861607774239 5.374824507012308 9.814464590742423
Se 17.541858103342097 14.725362388054785 9.309534353388317
Se 14.16312531845928 7.747167447262671 7.778215017011692
Se 8.678289653557977 15.269192202623131 11.664369742001806
Se 8.07238358235079 11.391551060721804 11.347653304845247
Se 7.137578068435475 13.500384721271478 11.848214504718547
Se 10.142565521309894 8.29876829245731 11.360190042170085
Se 15.67047899056418 13.62049129684056 10.341981706423962
Se 11.968307428421996 18.88937599311024 11.886278489707763
Se 15.297193097294452 17.458202736864596 12.486063608198725
Se 13.139246801257965 9.692709999053786 6.890438642076645
Se 18.872718047725037 14.348552484430792 11.27649562293271
Se 12.76087414453483 13.696644538373738 11.105001359964426
Se 14.942666537697157 11.066895505084624 13.06194133772729
Se 9.99979084194254 7.487931322552013 13.736002829746475
Se 16.852039347456255 17.77629728160532 14.02748939965174
Se 17.223922296022266 13.196962469725461 12.448069392433396
Se 11.065419749907248 11.533217351290796 12.603788755996925
Se 15.887100265886977 10.583090016510685 15.165250298384196
Se 9.961915740526676 10.21484376589362 14.48438042353938
Se 12.986832949031532 12.339958552728508 13.712156418000866
Se 11.855189122732098 6.44293722103002 14.401550622992135
Se 10.26857041058961 15.271905691220777 13.434009498382188
Se 7.7685653736931055 10.680701280468513 14.331653106277674
Se 13.269739798875724 16.603899388572234 14.294001247283159
Se 9.191369228280806 15.849456130686276 15.451683855203889
Se 15.632864932965353 14.461004463839686 16.32685097052067
Se 12.890354039341714 8.778379268353149 16.534564022434225
Se 14.677376704899778 16.704859708101004 16.03839606195594
Se 8.941025277955546 13.72655640844109 16.5316089815966
Se 12.851796952301916 10.08992015452163 18.482594245546522
Se 15.163675170420419 8.463449262063643 15.861239239676578
Se 12.575173787469701 12.48336150588765 17.860835591601727
Se 14.675196309023162 13.756393248726203 18.3130450176784
Se 10.343578329397635 13.667337376948067 18.37429821698223
