43
Energy = -141.40353327 eV
Se 9.758857623391489 13.281599543009394 5.772272631112148
Se 12.151768392970142 9.261827614865098 5.866140379280448
Se 12.239165552349938 11.220492945101327 6.960055140021491
Se 8.567556758708289 12.608685020314674 7.573260808951987
Se 11.345660984279762 14.928151827316734 8.913842275501093
Se 9.530062137508724 8.580621247445176 7.949394100736612
Se 14.842001339196107 12.537063346350212 8.108282105613606
Se 7.337875742829363 9.027520388750995 8.107972333262733
Se 15.792993819816354 14.61436318863265 8.72857370505239
Se 12.900594791694116 6.870811931270004 9.000639333572705
Se 11.124919873672757 11.081929083964571 9.118390404483584
Se 10.232338383678316 6.629915328379648 9.457354565717656
Se 7.57387734672917 14.3904940942342 8.805823670662713
Se 12.045588772652819 13.035204086269504 10.356004004511048
Se 9.37755467076952 15.741572959936702 9.711506836017648
Se 15.443116612530352 11.317894464820887 10.121754655572392
Se 13.317730046764854 8.134013157877925 10.808000394755165
Se 6.9995507648398965 10.551055425436811 10.77719226066535
Se 10.444983955317822 13.919140988385147 12.463726195279941
Se 9.975059984840412 8.20014347439109 11.192258810286921
Se 14.999098487692685 15.073640530128317 10.880377998063976
Se 16.832134049589346 14.029743754076655 12.158400205227117
Se 13.53866347979417 6.558819059560113 12.682608392038526
Se 17.484113388190917 12.441525710287518 10.582056475082952
Se 11.980460559573569 17.030850467822443 12.734632315694283
Se 10.074927869877946 11.585764495920976 13.057889926653315
Se 9.995658645366069 7.171983822131582 13.368189377831424
Se 9.743150520238009 17.16990821818846 13.66804658070919
Se 12.92596834142784 12.486492423464163 15.113500801883104
Se 14.995926293412579 9.469406893795524 14.496828132398718
Se 15.632994396748442 14.499870489106373 15.85747332112181
Se 6.263450088901032 11.145573947579246 12.845994770513759
Se 12.165414937458408 7.860443046677208 14.085693886610871
Se 13.861979020653946 11.450770817346676 13.26729524019954
Se 13.554467242935061 16.227380857000565 14.197307365880748
Se 8.214400141320093 11.469282548096057 14.421354620384939
Se 9.34525830582508 15.014161020051118 14.46873224457446
Se 11.4191467268186 10.728079672995223 15.84542221356292
Se 14.986520430703457 10.37200637933622 16.633375882570242
Se 15.072656119977255 14.302683715553504 18.032597600260125
Se 11.394773597006493 15.406042026164764 17.03732447870889
Se 12.53526548437219 13.767360365393293 18.118342308400056
Se 12.885630680689307 9.70902598568383 17.557427613683643
