47
Energy = -160.35032985 eV
Se 11.507950295092202 11.072742307324562 4.460546989526824
Se 11.013099701861384 13.34202306680388 4.6178248686523276
Se 18.57942448295289 12.954331837098747 8.060529425385187
Se 13.789597198691066 10.633114855746532 4.914810537322012
Se 16.324201731819535 13.646761517422863 8.461673254834732
Se 13.875943126359177 6.789191407488914 8.1423687781223
Se 7.127973231074299 12.249403314389504 7.666851545656109
Se 10.645719445992736 13.710244930907688 6.999909102440978
Se 9.485177828018026 11.81917348235333 7.688412023739059
Se 19.414108868528384 12.857317080892903 10.269628237663296
Se 16.636334680794775 15.949673381194662 8.955569792082956
Se 12.72567354968412 8.81795339536548 8.163075993994234
Se 15.527693313084674 6.972017409299677 9.898153000197524
Se 9.583881017654905 15.642132673882015 9.847655838410637
Se 13.971880774830996 10.620107872256241 7.272917680345764
Se 13.155704325269538 16.89154911384071 10.362850921933454
Se 14.151164089335193 16.180073590061287 12.26162854346352
Se 6.552651960184541 12.000386333189509 9.926937663333785
Se 14.223757110533164 13.54545945157544 11.478451191542645
Se 13.06199843622748 13.700089915639241 9.570047344632512
Se 7.28426626671919 6.77083714104531 13.001619195322913
Se 8.799816723631736 14.361892775926803 11.74704469975403
Se 9.447324445141295 7.604805906900849 12.600900649596284
Se 8.360452487912832 12.361158812023954 14.976923910689695
Se 6.587961419023775 14.099951989136006 11.02933566059438
Se 13.393425187946432 6.441808671975257 13.066198023135238
Se 10.79900265191134 17.411871703975255 10.725007815272715
Se 9.452752204594088 9.935773775678754 12.296002168978955
Se 14.517010516793478 8.084694680420629 11.645145514520806
Se 7.134734120601516 6.952961004961277 15.374329189950823
Se 10.060692573976285 10.810558509452319 14.439431608892201
Se 19.711808066993278 15.136704869248808 10.813423389869008
Se 10.301204020066649 16.093299706665032 16.064007751054596
Se 6.852421478260035 11.449283753123028 16.53271812058752
Se 17.461565513795318 15.853069798287619 11.173885268627345
Se 14.381176868872178 6.617018382932276 15.092445822725558
Se 12.560302160390114 12.59384834572085 13.044668646406143
Se 5.253336262050145 10.345622207201165 15.157902619305737
Se 12.644992045091097 15.191503353597028 16.473170400601866
Se 13.116019716166672 9.084257344029057 16.246387292620206
Se 13.924172938296122 12.417606368297898 14.945526503484139
Se 5.153945088620418 8.106992275642437 15.861457828967346
Se 14.844490974722317 10.242839909463745 15.03945357430558
Se 9.047129378712063 15.16842481820355 17.631873477802895
Se 12.836672731525258 10.253734011092712 18.305889883059695
Se 11.203808640652587 11.955093965202181 18.053551298788737
Se 12.305004797922905 14.050063431442261 18.431281400186244
