40
Energy = -98.13170041 eV
Se 12.729568482798689 13.213671857262717 7.067598640107832
Se 10.976845856952405 12.137506383761712 8.365236654541143
Se 10.584053173507316 9.90786013208332 9.300427394544052
Se 12.077347631434547 14.980370423127328 8.71307512459895
Se 14.599362367197978 10.611361803146021 10.058217780724583
Se 8.80803309180702 13.283348938383615 8.778060883876146
Se 13.594360843644143 12.622670095937528 9.28636780187692
Se 9.814313057405233 15.300576890769614 9.557005003895336
Se 12.423654852501139 9.70518764927209 10.808866322081137
Se 13.439910306466327 16.62434367873647 9.952315861532938
Se 8.874057857124033 10.12146025045082 11.038520303247982
Se 14.045438695134038 8.32207497987972 9.277823774696172
Se 9.033094784279596 17.46899394605557 10.242436734314664
Se 13.582325127921768 14.381584367202121 10.837719655961697
Se 10.31237938441169 12.22214189211173 10.785724736520189
Se 11.305383736446997 16.927579335293764 11.163223049541626
Se 7.715312479273332 12.259877510708147 10.709669261614483
Se 16.35121432408485 8.60697459578721 10.33998877196152
Se 12.723487162468329 7.257929476480909 11.35079509021776
Se 10.670946958593893 14.494615537706657 11.905774360883942
Se 14.918074169781487 7.852243646159992 12.230740544828214
Se 11.818616527950567 11.375608084578712 12.65268307128924
Se 15.591044622610653 10.272204202220715 12.234246396488548
Se 11.893272344928427 8.593843661935168 13.18615581151199
Se 8.38022633743405 13.752250525195107 12.538831886639292
Se 8.499131944840293 16.125166126331177 12.342939784860912
Se 9.809148986506433 9.904708402742932 13.265839064239708
Se 13.188004412125242 13.458965227173204 12.992967040602542
Se 10.630142794845243 16.646560707544516 13.481395078786958
Se 11.549166697129866 14.550728758626695 14.335526814309718
Se 15.302398786692319 6.690485662362406 14.40155701103586
Se 13.23128681106191 7.965272655392092 15.269796056872448
Se 14.66339791499087 11.891361487940939 14.016179612619503
Se 16.938483460452844 11.007211768974248 14.147254344484214
Se 15.579754696144477 9.02173986717102 14.597635768305368
Se 10.962313105233665 11.275773515596972 15.502690533395416
Se 8.936738431816128 12.703060857956912 14.637835314593204
Se 13.043660179918406 10.350515539060424 14.816740864555909
Se 8.663080193365845 10.3330183129277 15.344887107619178
Se 10.529089051428357 13.567272888662085 16.253372328932446
