42
Energy = -142.48600847 eV
Se 9.993106641343834 11.780327002593848 6.5590291913316445
Se 10.385500094619493 8.082151226530904 7.3368222869963
Se 11.535206883897418 13.31293853878212 7.95795402126628
Se 13.555226428645636 12.41268305962203 7.688295136156749
Se 11.43642410009013 10.008589759732198 6.351065127224777
Se 6.912064619048023 13.345940129369044 7.909003616453429
Se 15.38316245852102 8.939935807225886 9.659835816821136
Se 6.860744699513233 15.678537796447158 8.639688343735049
Se 14.413782300735313 6.905068384223852 8.968147017571892
Se 8.904443700607166 16.334923775448217 9.310031198882555
Se 13.628301795666818 10.405093532731339 10.292378757971479
Se 10.950872655925954 7.339643934869239 9.53666075734022
Se 7.013949183812074 12.072138566392345 9.866947160220407
Se 16.580611793368984 15.45210732258388 11.777148486527492
Se 8.907338278763431 7.1727764323358345 10.674387012348692
Se 9.177665908020021 11.05420013045919 9.93018319630535
Se 10.737512482118836 12.677264304472867 10.381221474041123
Se 15.73813587325298 13.500841964678129 12.82422066496715
Se 6.169513544945355 15.583641245576075 11.836042814905547
Se 15.864419195969937 17.30560183007179 13.06560168008558
Se 13.022800510773662 9.50919194098885 12.425610764452706
Se 12.26538303467397 4.8181837322997225 11.357571621549182
Se 14.498733139290437 5.35579428775152 10.769788945582787
Se 14.0555503087141 13.849248695740535 15.951964355297216
Se 8.75458922265994 10.13981115578093 13.663089818449876
Se 17.607720512600842 12.629257819600637 14.070880195283632
Se 8.708215580557898 7.967742754144002 13.140865397338775
Se 12.466455230339387 13.17960325494862 14.130059200135936
Se 13.922218056614307 18.00792145722571 11.941936650483765
Se 8.341883790324728 15.96412919069272 11.981533057055326
Se 14.343391941094408 10.464090638579574 14.157349843122839
Se 17.86435618230306 10.541765337595109 13.076714975208489
Se 12.220666405134363 16.604239246228257 12.85037244494807
Se 11.023034367746803 7.444552917131413 13.975192711166713
Se 11.699218274857166 5.254348625948937 13.629990179303713
Se 10.454930648888086 13.121074558056591 15.3422615340834
Se 12.56795272374717 13.931757679866648 17.752294132133986
Se 8.975474336422534 18.35254357010944 12.398045984523176
Se 16.342190998133223 9.215390416743649 14.365444808676324
Se 10.584163556710898 17.86174216053224 14.014605223884107
Se 12.065691641974373 11.74845419215373 18.37655825535775
Se 10.500939784534557 11.108294510696492 16.496749027771266
