41
Energy = -140.08779275 eV
Se 11.299970320485787 11.731377582709952 5.384906033557998
Se 13.088579321880907 10.813973820212865 6.642898340995967
Se 16.70873497787409 11.330105169148592 8.451547509187103
Se 11.92719789842762 7.275497733028071 7.387021417637299
Se 6.2917643550393665 9.160051374753024 10.063743537010224
Se 10.841334167254475 13.801725014396876 6.418533549953026
Se 7.264324467367016 9.596069402516674 7.946353143435833
Se 15.290479601601673 15.54263521326743 9.39267525300957
Se 13.883235548622908 6.177288934596331 8.127481459672662
Se 12.748877893818213 17.746133052270896 11.270341348959434
Se 14.361272138584704 13.63149718858133 8.473992237077118
Se 12.018301856988879 9.461354224747142 8.277527333651383
Se 6.5431348115214565 11.687893872162451 7.188053316239559
Se 15.629053454770963 10.238312258504086 10.057589462244437
Se 11.036231468938752 7.038209684114819 11.999324712282768
Se 7.52666830892908 13.438815367154692 8.456184368346184
Se 13.332723809565081 6.367186860462381 11.847757076024058
Se 9.863159735044574 13.219363832218106 8.491294612801992
Se 14.294980197397367 13.517361680313082 12.232366751575062
Se 13.2763442172186 4.8925911233923784 10.017165541262571
Se 8.214532915876841 8.870003168284747 11.419153690938051
Se 13.525108413547507 17.15664125197708 9.151477017531189
Se 11.195888617305856 16.018470184433884 11.849192136476734
Se 16.600378500416856 10.837342739628976 12.222149362263293
Se 13.454252938546693 12.42003128794392 10.455905654727154
Se 9.079593669497097 10.912555309098085 12.129103043957913
Se 10.223389814269085 6.2861384618689655 14.077496352787934
Se 15.813039902547025 8.994477531735871 13.42819297336381
Se 8.050201796332466 11.392605664504707 14.280436282160617
Se 9.007188121291843 16.863483469665617 14.735308583930804
Se 10.323839174775818 8.156942193412482 15.54731671394323
Se 12.186682856831874 14.795320461319445 13.538616906310013
Se 7.662115725307178 13.808617624113838 12.912666040584025
Se 13.569544899772238 9.260110191828783 14.189878919702972
Se 13.731642804657168 9.812914954390404 16.49193029309723
Se 7.142917230256198 15.397417263486918 14.538312947764902
Se 13.167182050030206 12.074140218123704 16.787689878024374
Se 10.776283124823461 15.639004377592437 15.681350419001495
Se 8.186912636177919 9.098683002417367 15.448941446428975
Se 10.842758453474424 12.199164132828601 17.310161735487824
Se 9.760892206123934 13.079207525984792 15.418676999785706
