40
Energy = -136.14756954 eV
Se 7.653961322058801 8.993727586760393 8.783817348096484
Se 11.553603092170093 13.268307282059284 7.326749573723187
Se 12.078411185170422 6.006293510312295 9.133383721112875
Se 14.921542918584604 8.625877204443618 9.237303471277619
Se 5.089148619994555 10.499297573325949 11.259928780777482
Se 11.820912092545278 13.134651031730424 11.146948876933182
Se 16.010427317430228 11.363537883251947 6.969430163817604
Se 16.608921155447458 12.788827356575576 10.906268911773285
Se 9.919364543276732 8.965113443734298 8.891818142757883
Se 14.305010439415087 6.49044493147796 8.464173620863615
Se 6.571231623716567 9.352075513058928 12.592318780956129
Se 10.67303189875523 7.057772627001637 7.582287151304173
Se 9.132718404496329 6.648114082874247 11.368251458814699
Se 7.133737362089342 7.471046036051076 10.918797176621002
Se 9.835209020560399 10.244879783387649 12.45249072617733
Se 14.272033083390744 7.388756068570058 15.138342685693283
Se 5.182106557254252 14.183398116888823 10.470999955199897
Se 13.674030558332332 12.349244106804841 16.39041262606051
Se 14.262943605653104 9.927342570217341 7.285377852327355
Se 12.030153899585667 15.534934075048291 6.845004605622902
Se 6.346082794142637 15.530076069623593 12.217022584011158
Se 14.658015836293457 14.366839665778087 15.633418652270166
Se 12.033510984091249 10.839047198332233 11.692940977068831
Se 15.493015790543085 10.954076423968605 11.682563960774793
Se 9.061750147753008 13.594413744815391 13.657443718373631
Se 10.001893218908268 10.231276040134677 14.799927755506182
Se 10.298619877131383 13.308082044648849 9.327501783690996
Se 15.420042679244224 9.361062463787922 14.485511530400709
Se 6.314389573168056 12.22485705265284 10.045124060599882
Se 12.228982161835614 7.287932896160203 13.95078569542301
Se 10.409870470692015 7.929435394420832 15.283380209024827
Se 15.422466961562463 10.771655501960717 16.39510498705914
Se 6.981399991735229 13.50578487259379 14.430243574428534
Se 15.660165953046564 15.282657468292982 7.921227026720458
Se 13.580376799001167 16.18527888073451 8.503434020215703
Se 15.369685848935791 13.055228159978475 8.846786902278774
Se 8.505136860889708 15.584013341348536 11.66652937902606
Se 11.85865646702593 16.23338376259493 13.94559220335639
Se 10.308596836519467 15.085070915847632 15.223252001870659
Se 13.712940816913529 14.770286088111252 13.522202083868173
