43
Energy = -146.35607986 eV
Se 11.131484210806843 10.673291166718272 5.126643526839323
Se 10.144843007566003 12.98452410983676 5.321795804448705
Se 12.096392597858745 14.682080515594956 8.089596163311285
Se 9.193443476382212 9.575226382471206 4.996928887597114
Se 11.871440812863792 10.252266949267383 7.4919691613071695
Se 11.75250757420945 14.602932516259482 5.7224073716217685
Se 13.985824960583752 11.217130833951693 7.628900004658702
Se 7.212939114135238 12.047217677820832 11.11644502402355
Se 10.05422176102762 15.445129224481928 8.98203103215486
Se 12.415820496296654 7.458986351878797 9.836319601283812
Se 11.144437922442322 8.283564259095783 11.640085801281154
Se 15.682778708907051 12.959870627384591 10.280212455527128
Se 15.64342848041412 9.49939162571886 7.6477215133563545
Se 10.021585745227709 17.78990217596145 9.232476938724261
Se 6.358593608413694 14.419839673291273 10.755795792606468
Se 17.769848003721346 12.184583524802584 11.097749029367579
Se 10.934530293492353 10.632738224126914 11.194162010220204
Se 10.755036528620009 18.174996333077882 11.457104989415422
Se 15.89040934952498 9.03669510537592 9.939786710057723
Se 14.676130798962888 7.033562174125594 10.356947594172661
Se 13.194836434458914 14.70309494242661 12.385541924462208
Se 13.244955026022044 12.706561689340589 13.750493462234369
Se 6.148873306466487 11.524700233290082 13.076820708235259
Se 15.383018251709299 14.930713271527056 11.595095065292938
Se 9.626854049377966 15.037402558643592 12.956042689818938
Se 5.163922620843925 14.91904179575197 12.544841590256906
Se 8.99110657192169 17.340006445818407 12.755165774360744
Se 17.709077853299572 11.723236215390576 13.388767013576606
Se 11.116993539750876 11.790337683474558 13.241197981259697
Se 13.534395447466895 8.629020912688908 14.024437882211627
Se 17.279408714122408 9.401693015133308 13.847043494531835
Se 7.676711446189728 11.531337139963076 14.923984877219624
Se 7.717908574588615 13.67928450787418 15.878580519366308
Se 15.482851970319558 9.377080246280167 15.318300651692374
Se 9.829276491041075 14.559701767757286 15.254214497498833
Se 13.586394736564436 14.172452360426469 16.903989171236557
Se 12.093436993908565 8.235732596571072 15.695172407019811
Se 17.22458786961359 12.377081000514364 19.90955543250215
Se 17.000019646226036 14.13810261892828 18.378001195296775
Se 12.880625931619688 11.796614815191303 17.336484040603267
Se 16.061081456442853 10.562607617690151 18.973994549286132
Se 14.729941649368744 14.86078630760895 18.764423070816893
Se 13.769475787636257 11.230932626882563 19.36422440966139
