48
Energy = -165.24342548 eV
Se 16.23734579926593 12.599185111934332 6.598275954835661
Se 13.914520950843356 15.59999243093345 6.346329463213066
Se 14.097344849877308 13.41245177760475 7.221196389906681
Se 11.831134818499757 9.228680056573562 7.578428718340664
Se 17.689003687456335 12.389439749505572 8.423310531259219
Se 9.293913087656552 12.493674816327099 8.036181718484851
Se 8.024742492663707 14.436101375924277 8.62993944721893
Se 7.688282090553412 11.08500320097614 7.055381540789973
Se 11.315467856859605 7.069911526054009 8.463082532945648
Se 14.108305511642845 17.14439079735708 8.124244627374066
Se 19.01068653886763 14.395760905624588 8.336149324071007
Se 14.428094917525398 10.622108215283045 10.064832813883594
Se 11.924192742493132 17.332494550869143 8.981437365824608
Se 6.757205325121396 9.761838498626487 8.789087914796744
Se 11.789328985881598 15.569927590476997 10.588328955587327
Se 15.136854079765802 8.39480660265732 10.237924563853985
Se 14.252794292650826 7.405895492728832 12.204334551618029
Se 12.09023467870043 10.56017352546176 9.501675344890451
Se 7.904869045368583 14.643451893093191 10.934291891550844
Se 9.48783129307326 7.360647324492879 9.889964486903141
Se 5.861417200785456 13.471391740596884 11.613199413406633
Se 19.16669685265819 15.281327461645006 10.478454001811143
Se 7.53305631464287 7.559122112805375 8.548440889427493
Se 17.162007260361477 16.533549001276096 10.872577329053225
Se 11.092936296100392 12.647394259572257 11.923593057472871
Se 10.155102407785863 8.94110081735005 13.87900121193467
Se 15.201566588754508 13.584768794858084 12.280946165570324
Se 12.188880353231943 16.54478480610192 12.70699435219614
Se 11.690573976995305 7.274420165049805 14.59087272249281
Se 7.022630109926713 10.413433025230573 13.78254549856776
Se 15.765099813000049 7.621187794027545 14.00147391334437
Se 16.859612090834396 11.901183556739044 12.536080151039641
Se 12.337333039958928 11.815021953345557 13.599573698536295
Se 6.267980038581665 12.775765596425801 13.756984727752384
Se 16.31128049711845 15.609409069064759 12.849478911492332
Se 10.078683862853902 17.134207454731804 13.567560774197077
Se 9.094944245301999 15.20363317551238 14.540386597869924
Se 15.141959611119786 9.606166412390712 15.12215499956424
Se 10.58632987570941 6.169571172404361 16.36191925149511
Se 6.444477977325424 10.059688746305806 15.991738755470735
Se 10.701490883227699 10.800376482313633 15.226053049036299
Se 16.904083707419275 11.147709170596107 14.759066232441567
Se 13.027729380434382 13.551112573107828 15.387560822044978
Se 10.79828296025147 7.655929268712073 18.18966378634784
Se 9.826229097309248 15.21060702891042 16.766507388361802
Se 8.242784878483764 10.575856046702048 17.527731551757633
Se 11.369795475934998 13.356056950335521 16.97877266914134
Se 8.654442737523942 8.51885049978155 18.625830519224387
