41
Energy = -139.87300342 eV
Se 8.521206925349958 10.02884776326008 5.401048274386593
Se 13.447305656571592 9.915543007067583 6.570410323258289
Se 11.130716225632263 12.620222635581884 5.436589119041348
Se 12.709987831456258 12.005770052185312 7.144579095612076
Se 8.942972416983084 12.28967503825949 6.1537562723619805
Se 7.330074899990032 9.000287076000083 7.070682257108758
Se 15.650994680152763 11.784611795388631 9.708070006341405
Se 12.481290301670526 8.55963717425519 8.572286958977308
Se 11.34647425955487 10.039184427653895 9.742692310467536
Se 12.684803215201267 16.323389999837197 8.512918730534182
Se 7.86880819131396 13.534055946529246 9.922797099923251
Se 11.089662209245768 15.653434769867387 10.055042835445438
Se 14.869995904009604 16.019873559341253 9.615347048924349
Se 10.462278396057728 6.900117048405243 7.786345370232469
Se 5.6977709924294615 10.268690902892937 9.987548696583863
Se 16.389195671533567 8.007265079393754 9.959767137245132
Se 8.835736243906707 8.088482971287576 8.79725608184712
Se 16.64769694304165 9.660560568510787 8.50603467021311
Se 7.728013672855489 11.333332549218259 10.640033472142157
Se 15.073676689122864 10.766498294869235 11.699425792142268
Se 6.932286051775194 14.910928784387517 11.692529140753944
Se 10.657639780921476 7.086697336669969 13.124904383822177
Se 10.62123177414425 17.54592341635559 11.435961594158869
Se 12.48299735901445 5.929364616732546 13.933415532745661
Se 10.274012796947124 8.6434042478031 14.971803881212894
Se 14.753096448732403 14.23725875224059 10.982388054377742
Se 4.363016566430493 10.177707107370106 11.937990731311789
Se 8.749236238693376 10.164415004103297 14.097890570375123
Se 11.67819690414807 17.02272056534897 13.476096957710123
Se 7.3632274094405155 13.869448864104568 13.717382354712939
Se 16.96090025157927 11.063338744569089 13.138410376503929
Se 9.640228667979828 14.014370043905837 14.394947459349774
Se 14.36339453723955 7.372574640714587 13.573177277128002
Se 13.598366245316694 9.396983161703247 16.812568848463027
Se 16.41123783356209 13.090521982473255 14.203153816343413
Se 6.5734978622826645 9.610196821053886 14.92260031624599
Se 5.344508340861283 8.486522143393582 13.262580459876906
Se 10.011243555390928 16.27954050795147 14.963176296272174
Se 13.446155088480221 11.520682509209069 15.80210902547456
Se 15.125340854975548 7.9775570973369945 15.717544694561354
Se 15.508476043306159 12.567314930068214 16.323688613111706
