41
Energy = -141.04649447 eV
Se 14.493939700877352 11.544089558310018 5.462933621385815
Se 13.335115345241325 15.083005495930015 5.840963541499276
Se 10.940307943891698 7.806376184971972 5.194942453232951
Se 9.004808589690786 12.872194924074872 8.978095381101653
Se 12.31657081571253 15.825706257418524 7.818756633602025
Se 10.769752824923325 10.086360054123125 5.262133021072543
Se 14.57027647296438 10.35804375670984 7.591743617831241
Se 12.078642209381446 7.545208246999615 7.531528504235927
Se 12.587591583680387 12.887055559515295 5.305630548285561
Se 14.598514479979931 8.173979453437015 6.992832034636206
Se 17.067866331692624 14.18729191727508 9.352443730052226
Se 17.631894476099188 13.595397957080301 11.569866043366838
Se 10.486021329941241 11.812446971280867 10.494034885616616
Se 8.5646801374672 10.937642330130064 5.630961678363808
Se 11.433933950597698 9.379716981138644 8.615306429104265
Se 10.477365441266606 5.8951932062096954 11.398480005419449
Se 8.830051900212615 14.443536827220898 13.41615335831546
Se 13.461147294577058 14.95517460001365 9.70056523802443
Se 7.942708437738366 11.059321280305056 7.890697733526509
Se 8.105522999710411 8.96791006812347 11.262337820792425
Se 6.49361763553498 13.955787367055052 13.515120941654272
Se 12.282892524055075 5.651408942902938 12.883949966063788
Se 9.06426742756639 16.124665465817117 15.050748122925517
Se 10.484820588193529 8.52429509935185 15.57797007632885
Se 16.19804628896394 11.886246675985646 12.326185307988423
Se 15.595388442019614 15.99357842215482 9.669986807333482
Se 6.198080015039176 11.755105708596167 14.21442823803755
Se 13.848964085027285 7.36447195262396 12.396478779069176
Se 8.720629279572591 7.069686837526721 12.496351815957974
Se 8.978843899774839 10.999554581648635 12.155259464657709
Se 14.1918650794705 14.590123519508921 14.25207568659023
Se 9.139444675942984 15.067633305748423 17.17358971937522
Se 14.052792703781963 12.848449643195663 12.673923872002023
Se 11.812512697593432 9.9110580382009 14.152503111885542
Se 6.365171322406601 11.782397034208884 16.62086841751679
Se 13.869509402713337 8.76477260528225 14.299666123285453
Se 7.397007345324282 9.757831892833835 17.162368170430007
Se 14.420940708876888 13.777890400152618 16.461583249515808
Se 11.298112921312551 15.104124832343395 18.076387191829184
Se 9.76945075077014 9.802822665548835 17.41999368679065
Se 12.363144719399523 13.094658158031002 17.352369750282314
