48
Energy = -163.74531845 eV
Se 9.595303267988758 9.86348501376255 6.18762521951309
Se 10.723489108634569 11.920955546254882 5.478852259709996
Se 8.156629822269721 6.213535679892491 6.445778817765115
Se 8.208097318279256 14.522326605042812 6.930877314390105
Se 7.218212066051327 8.275474305916903 6.529414155932512
Se 16.302493444592546 17.52009554584852 10.037158112204445
Se 15.533366401477513 15.628972942635556 8.83756366418674
Se 10.325831286316138 13.508717651733795 7.152649412494919
Se 17.05250475046035 12.319688742768358 10.047431592353142
Se 10.113078738729879 9.411249441166062 8.476465098380029
Se 15.388618080388165 10.885475894768879 9.186358710407296
Se 9.208462941985642 5.6774965122301335 8.588403369133237
Se 11.42940523378296 5.930429092905738 8.022404100555478
Se 6.7003527290022085 8.616870279187244 10.165498110284007
Se 6.659231163658925 13.108096685533381 8.067541873469038
Se 13.175257430453014 15.733652001971457 8.885717074694204
Se 11.975559732463202 12.325822439292988 9.982547694463785
Se 17.124910376299393 16.814727277242575 12.12504970312263
Se 18.702086164874842 10.953506825377007 11.035953724105507
Se 13.668636392656172 10.901649532534353 10.82400331326922
Se 7.048921221437553 7.73714453673018 12.175677378111727
Se 12.058033184508053 8.179751174139824 8.747029907359067
Se 7.193351867143082 12.910114469787061 10.324794823910523
Se 12.344109558071104 14.543058363685352 10.746475347457002
Se 9.444557211176528 17.153337373190606 11.747684775640218
Se 15.197891018250221 8.187960988994854 12.722681902170553
Se 15.322406346699191 16.863922215532526 13.665194004486281
Se 9.60341151472539 7.080659682273267 12.149759431790098
Se 6.351110167850114 14.827839589932504 11.522480405296516
Se 13.712551931452921 9.147158736961824 14.254076067390864
Se 18.06529483536541 10.67665974182611 13.298959873755786
Se 14.634469313609982 14.615301011652983 13.867139421319122
Se 8.153250346280096 15.407301920076952 12.862655283384402
Se 8.059878448390856 9.621105174498023 13.663891698812701
Se 9.930899050555576 18.56629531156266 13.527605259973344
Se 9.945013346654024 6.503752394232121 14.296108401761831
Se 10.680255339218567 12.729725649692202 15.684036066138802
Se 16.028461287306932 13.651328316957063 15.521613100790747
Se 17.410188507202392 8.432121186722908 13.542432741631403
Se 13.30568985007449 7.346588610973672 15.838957485880476
Se 9.521829767997415 14.716907132766922 16.186950120745664
Se 13.998748735546641 8.015169237240451 17.865134958788445
Se 10.936076255354717 16.557991695795508 16.602876601539293
Se 14.947809416331578 13.716563388631753 17.60843213846978
Se 8.730633525204562 8.461970958036616 15.469762712416154
Se 11.762355335764255 17.47336559604667 14.58998972349542
Se 11.480872306539913 12.024966828928338 17.820412284426794
Se 13.778216128644676 11.627522964786547 17.597707030343017
