49
Energy = -167.65243271 eV
Se 10.39328051522787 6.449835224972906 8.27022897991846
Se 13.425882322653349 14.023208146649528 7.769753392187479
Se 7.993463046775518 12.06895124141831 7.775213414433523
Se 9.020007823952398 7.977477867325802 9.432529465061766
Se 14.014413115803123 11.735316704241121 7.488480560385249
Se 9.051212712075635 13.561138158947053 9.24444957824942
Se 8.710821425847213 7.110154001223517 11.616863155874215
Se 7.862085876410119 15.62413506908656 9.093390649074037
Se 5.828899521410591 11.544458809862087 8.519129364270302
Se 12.63005032863852 6.886941469595465 8.891432905609001
Se 14.582244580464495 14.968855306882366 9.60711786894266
Se 18.72462020080082 11.717048093541893 10.067753581805702
Se 14.866690075199084 10.35729019914284 10.584093026159001
Se 13.132432337531192 5.158271487601764 10.470158958588177
Se 6.068297966984986 10.330280058259971 10.561213426822729
Se 12.860209637548582 10.381450854116435 8.977163132610297
Se 15.937660678795497 7.0706092779883685 10.914773988525088
Se 5.291201401648513 15.24837884519431 12.018809447590707
Se 13.779734975012284 19.463281224073068 13.493614020015317
Se 7.387984025612962 16.090215404851683 11.346454015407053
Se 10.126947420456109 8.465849426130212 12.930367788220554
Se 16.69672118775264 15.689307716558472 8.948697733717589
Se 17.47205570559882 10.963440957968844 11.796753861946065
Se 18.406036811348923 14.214401894477197 10.107892384905924
Se 17.097831742293227 14.331354223122977 12.131833719719697
Se 11.86828560558157 19.17444962396275 14.912582339372904
Se 12.854470024045222 14.357775601907946 12.843486556336831
Se 18.339524647954093 13.182891847180931 13.74770777473857
Se 10.517469906578947 17.45898525512618 14.15424529170174
Se 11.112639074167133 12.874110676749773 12.81850713356463
Se 14.04400762991775 9.87620194469463 12.638684003008871
Se 17.22091266201867 17.81619377348879 14.204958520918769
Se 5.736837940066288 13.229978996055241 13.188640152113866
Se 8.673611693440206 10.228457535655483 13.633120032178283
Se 4.636024982680125 11.508507264883482 12.007696331693534
Se 15.772890854612305 19.527380102066488 14.795854409968761
Se 14.711336007386727 13.35856768989506 13.982265820933797
Se 12.655063958739577 5.970564529251477 12.537424086155827
Se 14.917105145447916 7.350180739641363 12.846140587299029
Se 19.167763618458977 15.073861466772584 15.100588012608808
Se 17.320899627206128 16.13575950127757 15.998855468201095
Se 9.689464928004208 13.894219404763728 14.678847172922543
Se 8.04695711535965 9.69685535767802 15.849086049213517
Se 12.954700450380102 9.684214492353801 16.177245667034942
Se 11.003564540718793 15.489072028773062 15.583925405749108
Se 14.133587080778991 13.389758915570125 16.301540511261006
Se 11.283009733411758 9.390504392666145 17.827246824433562
Se 14.597960734316667 11.184684715596662 16.972191816083637
Se 9.520543642734612 10.854589520604442 17.280408652314858
