49
Energy = -166.82033172 eV
Se 14.088599965813668 8.805437417395614 6.421089221606255
Se 14.159113424042886 16.12097469307246 6.989893134809348
Se 14.73079422561703 14.2207843223764 5.645144533342105
Se 11.690270928755734 7.2323635323251665 8.82769595883928
Se 8.86653742431577 10.474168606460294 9.157920460429299
Se 12.850609759306192 6.784837455395379 6.912799102388049
Se 16.29323541170873 8.175163141704665 6.9386129848409945
Se 15.79673887175373 16.065537944172792 8.683961330025932
Se 6.677908145394134 10.604495308057645 10.386210338252418
Se 14.02947040608339 12.334789254811378 6.836551819703355
Se 11.817583474526417 15.134648725037358 8.552154584234382
Se 15.696776385701837 12.21527531828717 8.550502402918918
Se 15.23467808429789 6.060811233308882 9.759245081789778
Se 10.214819873171274 11.908292614770264 10.287409219725106
Se 16.413438677605097 8.112288240256898 9.28123106770124
Se 10.541432624815723 8.370652402018122 12.310039949824976
Se 9.802951266723504 14.100425576793727 9.015084377549556
Se 16.46576412989264 15.946906449878792 11.92858943942893
Se 10.176894918319967 17.682835761165705 12.897004009862544
Se 6.990472728281987 12.18852860348618 11.98626868392204
Se 14.388654138880629 15.180620703320972 10.637778385143447
Se 10.975267006660498 19.275322071982036 14.35387489055429
Se 13.261891932609467 6.713271126362026 10.722917045465532
Se 12.37136624735375 9.846571601651002 12.55154596445242
Se 14.62079737595384 12.747821535495307 10.537680398236176
Se 17.550141233238918 13.998976171730032 12.550719174395379
Se 12.616328383405772 5.8403796105867 14.173207328849786
Se 8.52021223396521 15.406905603633614 10.732571013705382
Se 10.632630002885788 7.116460779646637 14.325720039533024
Se 6.509199916091674 14.277231654479312 10.822306594388918
Se 13.451006439392714 14.59529543514964 13.155473663899306
Se 13.154112510462877 18.5420609934685 15.054276600189466
Se 15.793641767518086 8.197483630011261 14.389625654850494
Se 11.659211677473849 11.459411669304366 14.167496339802028
Se 11.341038794254096 13.578058588279278 13.099103075106315
Se 16.78467594614749 13.51964725491841 14.74227591946916
Se 8.31977913982861 16.61289728361562 14.220318808908388
Se 15.761061349733048 10.124584811796222 15.750562531399144
Se 14.299580316525374 6.750557584798202 15.549434034759242
Se 8.275799812848028 11.31027323012365 17.64569720808071
Se 14.880351779478744 12.081573793970767 14.625345116840533
Se 9.281084223223814 12.982804783861763 16.423865815422555
Se 8.053970179303853 17.8660637438086 16.029915317486488
Se 12.063611447742934 10.941613482567721 17.5232874336535
Se 10.279768534454075 9.953483886181793 18.379190026025302
Se 13.24008601773072 15.546382230548987 17.39785051674287
Se 9.462580603389274 14.96802676600172 17.75182658346067
Se 13.2722299861373 17.929337115525538 17.306004760871826
Se 11.522954232560306 14.9787902117846 18.89384601249189
