41
Energy = -139.60200598 eV
Se 7.638801352698252 11.411506872526452 15.43348961488293
Se 10.005337607568874 17.302774635220622 14.318791226551498
Se 7.779368591316965 12.15872303698251 13.192702167917455
Se 9.263754092504023 12.552754983812935 16.69613738107906
Se 8.503127796955388 16.50864892755948 12.757661495610547
Se 9.985887277723288 7.60191361401018 14.457303947852886
Se 8.941109984382193 17.752457124971613 10.748929708506052
Se 11.202887157940406 11.217939009533547 17.00914466743167
Se 11.24297177227654 6.720922444622957 16.25240541702732
Se 9.176271598101549 5.710258358368706 13.289430283310258
Se 8.346451024769012 12.77144601993474 8.869422265175828
Se 11.848320423382056 15.623891082305516 14.405038700995311
Se 8.661187670020247 10.322849233967855 11.94350196445594
Se 7.809551943649794 13.796715093413981 6.978340748636164
Se 10.851691235244154 13.572407044199062 12.462633158400394
Se 6.791509818824127 9.197134607407214 11.081602492987292
Se 13.449404065610505 6.424967095596055 15.470447537435122
Se 12.929419394267006 12.298818047254816 15.829576278134825
Se 11.25609756052248 17.591953200557892 10.425448923750857
Se 6.443639198376966 10.145973899014136 8.85986395391766
Se 14.761577282760568 8.589171725647175 8.478598086181197
Se 16.523171533478784 14.716435831166846 9.529297557395022
Se 15.088752214336175 10.8391300897321 7.787901068674566
Se 17.528428369238213 12.940947164432497 8.719379613208227
Se 14.076490178459089 11.128659174637805 5.659590081671226
Se 13.383344159376122 8.576149557247538 10.393995409957798
Se 12.270415949544587 12.621921013434006 5.873929364335562
Se 15.039856756570364 9.731703672948804 14.179463979863119
Se 14.6278493979848 8.390846876908897 16.061188405710595
Se 10.98081590463105 5.038362081648353 11.922193103408278
Se 10.000762803401177 11.01708077954763 8.3301076530622
Se 16.504692019353772 13.793618621327202 12.036941674009292
Se 11.124760159735828 8.21206958770923 9.800532224345293
Se 10.298554446417931 11.317277068145334 6.038380113084795
Se 12.607194907336119 14.134978081783602 11.186772030969907
Se 10.683236013325939 5.876475750998777 9.74617649217853
Se 13.134217046159344 11.131066033050821 13.790801586641466
Se 17.512553880474513 11.915979666069532 11.517079344559198
Se 11.814274231408135 15.590020145761592 9.358751131698861
Se 7.822782543643261 9.010454992892672 7.4981464296102756
Se 13.537393816326317 16.191510933745242 13.056815895472061
