46
Energy = -157.24800613 eV
Se 9.219335598980809 4.034279508404751 9.982997427477015
Se 7.019526499611876 7.996272606963726 8.62052509575046
Se 6.3212486297820485 8.058385786612666 14.590267863449416
Se 14.975813448923958 8.007025054599797 6.066528582996084
Se 13.235261453557113 12.794804617569138 8.542927073852153
Se 7.282755185018014 2.8110859820046254 9.233430392475393
Se 5.590770996774867 13.861418700188931 6.331369177884613
Se 3.7569737985419662 8.918791370809608 10.480441983167061
Se 13.646750043866565 6.221413385936139 6.6840931328412205
Se 6.843480352832422 14.860898657095936 8.063258141819615
Se 9.91783014836096 7.077892074743003 7.175063445761361
Se 11.927285616234704 7.454047870854312 8.083560253526915
Se 12.81788090158606 9.605535076002925 14.438239730965893
Se 15.169517245186164 11.457921447687049 6.9629791160713745
Se 13.262100077831779 11.778447132168179 13.547718866188626
Se 12.235146557100158 10.314756945226637 4.652432166103082
Se 8.323952500594428 6.6793430650523495 14.823629825638687
Se 10.465982592721621 12.845229960639069 11.05315482736819
Se 7.884879656574272 10.322054621231453 11.49047803557885
Se 4.471657430964506 5.717472386571363 12.404776338681447
Se 7.725680822353268 7.215939379065744 4.4323081985694825
Se 13.990380125334099 8.909129322865935 4.068542819124695
Se 11.255212210744643 12.972615675041508 13.28766657415187
Se 11.796348253062472 14.346655489310452 9.826145366632412
Se 12.329103561420037 5.926351020877643 10.155831230713979
Se 8.144484588999513 10.016858512109557 9.167345940896954
Se 7.217652593808849 9.449038415440098 3.8607134404174612
Se 7.974836876957772 4.915663164575116 13.39343518949093
Se 15.200246143999982 13.151078122620897 10.088664151592413
Se 6.4602787466855665 13.822237222512477 11.744757251446199
Se 5.540035094440242 5.317464206664934 7.062898507557607
Se 7.756498163897926 10.831928281613228 5.6907949170309635
Se 16.663672861944566 12.418646847203235 8.40482086888208
Se 4.70938377640035 8.555137223743396 8.344743551316704
Se 4.571845048950202 6.530056885559787 14.635418241958835
Se 5.3833976598811955 14.866880974408733 9.950375032841253
Se 13.487319217577804 7.966654384990647 12.93967307236774
Se 11.833455060164193 13.51470089666771 6.472043403089537
Se 2.7795793958486628 6.9124708354347195 11.274516881639833
Se 8.311671103340535 5.836991635480657 11.141201217485253
Se 6.937182655436425 3.3047138241297636 6.997022687899537
Se 5.873244544654947 11.514105950210412 11.84294212741899
Se 13.101489854529024 12.59389779774582 4.793638051567182
Se 11.433814008630689 7.042424148809567 11.943551267798854
Se 5.691402814559585 11.53653453779515 6.672605877150737
Se 5.71343813981866 5.9645510532452315 4.830274711845711
