49
Energy = -167.07053127 eV
Se 17.87084501596043 12.322055431312783 5.748336978930204
Se 15.406291194385378 11.845404866681132 5.43578136385173
Se 18.210773886279984 10.010864161200137 9.744559709591721
Se 16.778470865684998 8.701871529479353 8.265551174554734
Se 8.86352314545854 9.488271814046026 9.98453678123259
Se 18.061658182433295 13.234611891137526 7.807000400761607
Se 17.512788347822 15.656967362080602 7.568183539321766
Se 10.207290137232004 11.19285140332253 9.10476173658732
Se 14.631670707860799 11.821893142434256 7.57667049561741
Se 7.521842874273317 16.643120685157978 9.958900767869649
Se 9.484497649765046 15.591291294151306 9.752375353072782
Se 6.821037601540317 10.651200429142103 10.459124619086955
Se 16.942809189550534 10.674953789095108 11.55799486398415
Se 12.818536225289117 17.042248354711223 8.730396970547108
Se 10.776341950587696 5.915360160541825 11.595324523370678
Se 14.656671157886533 9.544302547212775 8.476669137796948
Se 14.131079658790417 15.06642681538469 9.08099769374758
Se 12.53187513397491 7.246915816872931 10.699931920901085
Se 17.72485458514886 16.2808261036336 9.74871784705332
Se 11.153884060845817 12.435623101647392 10.899281354996893
Se 7.387746940139229 15.77824744417341 13.133423956527249
Se 6.149000805226159 10.223832968613634 12.645864493933052
Se 17.04228615563287 8.88377462030942 13.14911278022861
Se 9.441452289725753 13.892856202016407 11.594164142197892
Se 12.823927085945781 12.361034740729435 14.640469482064448
Se 11.33110112185738 17.20200844799244 10.484734725170858
Se 15.616396424844387 15.490554911251117 10.871394919667328
Se 14.437346122618004 6.475677855178433 11.83626259009028
Se 14.587737804413846 11.960067099635168 16.152290152920415
Se 9.46132628102543 7.146246979138159 13.105454599011232
Se 7.989448635877061 15.421298706264528 15.29345205205362
Se 15.126748207722626 16.762273945006907 14.917001334608589
Se 17.701007830285633 14.921315587082464 12.791210800897936
Se 9.158602050338889 17.564200567126477 15.521088275716213
Se 7.0303088912419565 11.707471520552676 14.307678281530631
Se 14.874953475777945 8.102774363268647 13.531635518250782
Se 13.294149182783318 15.949935221135755 13.66398757638257
Se 16.73626528803379 14.996557928618492 14.865067790481175
Se 10.52774691790392 7.001100799351804 15.219427123938024
Se 12.035700502069528 14.550943527855257 15.088252282475143
Se 11.42655309016405 9.163390166658896 15.403580269802974
Se 13.559865805734606 11.10377936719752 18.117409476218686
Se 7.682677236841322 10.081026350680464 15.93332185514267
Se 9.800214044995787 18.057592651701533 17.688335323646676
Se 13.633552420505653 12.701595165536718 19.832127601054484
Se 9.839584523517185 10.357703186309681 16.75939585188229
Se 12.065481577675417 17.279221600528565 17.918217334549546
Se 11.549077840406557 13.86093714731637 19.87997270194652
Se 12.099242869803573 16.15176322340078 19.97681246861254
