46
Energy = -157.60627885 eV
Se 8.159024796962866 6.32179394883127 14.181249728745653
Se 8.157497120170984 3.3458643881724557 8.822533442690176
Se 10.982668160425371 6.867203481663129 11.526356469323122
Se 5.496207117079804 4.721929319142597 11.185159160769025
Se 10.310669179724103 7.154129055142796 13.800002026266524
Se 8.832011550335888 5.328217107226509 7.703513938740678
Se 6.5854422945489866 8.059280323622836 13.691652476771242
Se 4.176441103677246 6.627280741378938 8.224264884968283
Se 15.317223092896223 7.302191710711961 12.020971777761977
Se 7.775073264537929 4.148784141173714 11.020268421902314
Se 12.361104703890486 11.657855846315702 15.69304812737716
Se 14.28387780861084 11.125062127974338 12.698874788419628
Se 11.203844070009923 5.449906488509299 8.038673715648871
Se 5.71797108181684 5.9217997972352885 6.566285407415061
Se 5.286251571406539 6.905862159880527 10.277675007337548
Se 10.922196170782046 9.025308053771951 10.610522114315579
Se 7.340277589111475 9.863881128772087 14.991433357100618
Se 15.499906196599225 6.190704367362478 10.095220346531521
Se 8.641690336656936 9.32740889952472 9.891896913234907
Se 8.62317230255902 11.062310712226097 13.402840934113296
Se 12.12417390440032 5.188929602398896 5.890790534174531
Se 11.968049139792171 10.95763399267339 13.498961038391897
Se 14.517101872684455 9.470401613969782 11.120080057189313
Se 13.913664264100918 14.574444020166801 14.139358925368496
Se 12.218936235002255 7.3802016787246005 4.975523284685646
Se 3.4818093505712278 11.242814527562874 9.265549298261774
Se 12.171712737905809 14.021847281015358 15.673076011116176
Se 6.542727048384515 7.815516113983686 5.41338450293206
Se 5.5318323116103665 12.046276120890907 8.91838849706837
Se 14.60445871855686 8.958492593720424 7.540252230688785
Se 8.775872166136573 8.211260619184385 6.093037437817335
Se 14.698697895846617 11.308744096503808 7.6086475768663036
Se 7.222662215291961 12.850732602880022 12.670880290483097
Se 12.524454219340255 12.109639996197464 8.175431751207062
Se 8.27070464084151 14.79986484904163 13.477130791810291
Se 14.425923996592308 8.137760226372691 5.3195423406131725
Se 11.457403061780564 14.79976503863462 11.18182389382843
Se 12.934371537360073 16.029618273319652 12.586793304711222
Se 5.171878300382151 14.21667305106681 7.820368337310015
Se 8.787399933012532 10.02041793580998 7.661605006899133
Se 8.774390737752906 12.14346817786073 4.92581756126033
Se 7.299391610020022 14.86303458114373 7.139030434131278
Se 11.056659487687604 12.698181208268858 4.589007289762087
Se 11.947056050178068 13.692438678934716 6.533397591993859
Se 9.342570051007376 15.754641695951987 11.59923804090673
Se 7.555789517690843 14.158079436374589 4.8772335716660535
