46
Energy = -155.15972985 eV
Se 11.43983280097961 3.4950322903202014 10.69346714683238
Se 13.108665614801719 4.15640535177401 9.19010637087224
Se 10.507402750184127 5.643398756714338 11.329121404679249
Se 12.436223340733086 9.178731807510879 15.62449435406092
Se 8.243513162953288 5.26614122751781 11.516357323265648
Se 12.014990412187338 5.015193173046587 7.273909323055343
Se 13.312915094382891 7.985996602679368 13.816422043591118
Se 8.714707090327853 6.053911944546355 7.72041611941116
Se 12.230662101163812 7.37715660121544 7.795685677548011
Se 9.884459215041637 6.856745062950033 4.983201284874835
Se 15.737487211580184 8.960190463271521 11.080914571464042
Se 9.35962408912386 8.925611964177985 11.823684055384993
Se 7.032847579003497 7.918740792149314 14.1196603702724
Se 11.096800686957797 11.035971365082025 14.971005035425847
Se 4.87354866404513 7.08320802095468 13.485747678205207
Se 7.322656613486838 5.009828403400111 9.249258668768661
Se 15.380970529236263 9.159876698858515 13.389316833527182
Se 7.806779980574313 8.189379999139481 6.80820171605931
Se 13.212820606391647 8.321801090378424 5.967410742420864
Se 11.050978655567977 10.286244420959289 11.045770991863108
Se 5.789280248934121 8.17751787422706 8.425377070400968
Se 14.316015767793662 10.37744352202567 9.876231876906385
Se 11.180508673775982 8.654202259060495 4.433312178178597
Se 9.511638154932738 9.761426786044098 7.6856227825709125
Se 8.738224203651937 10.198153095933723 3.9683999274653154
Se 4.549834426385944 9.158057030441464 12.335878260016568
Se 4.497069932902915 9.991785171851552 7.688781617771922
Se 12.226644951229513 13.861732979036805 7.667728140972374
Se 14.77708863372191 13.252610073384782 7.6557864947829275
Se 15.283097419578906 12.620502441482216 9.80001342473077
Se 6.407414928926399 9.683367856248458 15.473435168031521
Se 7.660015629877499 10.735828314227605 11.695406219839432
Se 12.603957796360675 12.829259382795208 15.017244218446033
Se 4.197113308608855 11.606554264824744 9.38619021384929
Se 13.199224334859371 13.132562123826606 12.715085182569245
Se 8.965033421227869 12.2381647967345 4.910649432660059
Se 9.260995528874314 12.237650140339621 10.884869939167299
Se 11.588643196962806 13.540927896845798 5.530163364348905
Se 8.5268586728638 11.798655388285608 7.34459481857862
Se 12.846384843221214 15.435776957384734 12.322177864439396
Se 4.5104410467074105 10.60396633733502 14.136130143337688
Se 11.416404946283665 16.216841148309467 8.33458949700189
Se 6.9116496257851034 13.476778593159986 11.216658061439679
Se 10.616463530984763 16.07196045571661 12.094457409837862
Se 5.753777310517341 13.408411623236232 9.190541565775773
Se 9.833982686385086 15.537343638574871 9.861725324740037
