40
Energy = -135.97817838 eV
Se 10.36484722856506 15.82067907804037 5.0074402160529745
Se 10.799653866860927 9.730726825797328 6.553736815303828
Se 8.497503561135611 14.418903702911454 5.26796709158474
Se 11.847151528683035 14.807274196760277 6.612714508182788
Se 15.084907592015 10.11710055281326 8.226574347014372
Se 8.476052245424354 9.337344721673405 6.407052395606668
Se 7.915479456283307 8.062035048040718 8.33751876148787
Se 13.629990811616473 8.667828546416885 9.280547981813918
Se 7.375425296404907 15.16656539734939 7.194296862860496
Se 11.230688374868611 11.408324890964808 8.116387246190621
Se 9.875835965746601 16.13454239758043 9.759404320868754
Se 16.952286933993193 10.558347222764908 9.650509864037893
Se 12.034941776976282 16.23031825949304 8.389520668350299
Se 8.725944068078919 14.29221064259758 8.96207160975093
Se 6.1318092382576825 9.269699638612256 9.278823646732427
Se 17.03210537690293 12.803997878354782 10.341072867618282
Se 11.661472116750602 10.02920629994349 10.128488471285555
Se 6.869769832327765 11.084247887094497 10.620840822881886
Se 13.055771495342531 5.931812776085935 12.268312122893748
Se 8.637396409550242 16.46006437504713 12.318509079019496
Se 10.961542997306962 6.801303723540563 11.636850556111554
Se 14.227238698167344 7.8674606635909665 13.073652150169151
Se 12.344806626872776 11.626852011866848 11.594780445467318
Se 13.999425789908809 13.965395338308815 12.290352375356255
Se 7.530269427171701 14.676090847873594 13.183665004703185
Se 6.6550173937626775 10.599890669562676 12.910613450844085
Se 16.142787721690087 12.894021294862435 12.514168017043582
Se 15.636710094741208 7.077378226354899 14.808783891336612
Se 9.142053153233494 6.399400986766446 13.089574252374323
Se 12.200145432910503 11.504669956099496 15.228874579292135
Se 11.802525612750975 13.797485021791205 15.922866850189257
Se 14.085802914317595 15.835009408275276 13.737057071248215
Se 15.627155716572956 10.5560802714855 15.144614402114899
Se 13.8625972376968 14.895650178979363 15.91701853670693
Se 14.689068687691657 7.265264151707642 16.87308358612151
Se 8.988309232553215 8.117913997672703 14.719226844227325
Se 8.867194194536102 10.228021132433298 13.7095214420433
Se 8.234542504831277 13.980981138364335 15.19082968352866
Se 12.370014035889815 10.248475753265625 17.124663051114144
Se 14.97093587325062 9.86860141049747 17.145190632110825
