48
Energy = -165.61988993 eV
Se 11.532956530830141 14.415062490249925 7.185542259505337
Se 11.357304681306365 7.051251549553881 7.487652368013927
Se 15.661187072733279 9.759193832539472 8.667220081085885
Se 15.712063206417497 7.798691935510188 9.985933420323569
Se 9.474806154803085 14.987562574212788 6.194220711452925
Se 11.450696488222427 14.90198260927973 9.48589763287575
Se 12.550373695548796 5.814164318348931 9.095964269570196
Se 9.233098674111694 7.522910465722283 8.42796203502152
Se 11.95153406323001 17.212278573729638 9.815290380798206
Se 6.44046580282084 16.389362104103515 10.882466927642323
Se 8.015666459908662 13.194158673047507 6.7641709510303505
Se 13.516031403989649 7.286375519001804 10.676071836713039
Se 8.533637553109974 17.496558954033123 10.902956387983284
Se 9.101951872558196 9.867074544207988 8.645349690596007
Se 15.251371750997372 11.591789041490125 10.090905606095076
Se 10.019502732339802 5.482987589679526 12.26333891511356
Se 9.447988316184038 13.531682421355976 13.334928876947828
Se 6.202621854301142 14.068928568394774 7.959300752627662
Se 17.392369483231853 16.970861135367397 10.897177932905725
Se 17.189777278205458 12.17634036173253 11.295503206586837
Se 14.25430603265164 17.46038314278574 9.709151920516826
Se 17.39993724134387 15.363464507176122 9.214366557626963
Se 18.615143782174282 13.454388900505293 9.890978491166674
Se 6.685536538233921 14.1275318433911 10.293289431265737
Se 8.119344440625461 6.611863234822056 13.07187953790807
Se 16.892240638913297 14.256119718759379 14.215496709301638
Se 12.872927084822022 9.18951217697753 14.390013163035553
Se 10.828576886182578 15.4466582898027 13.18369310950372
Se 9.954198016677092 10.59141686617937 10.718892922032053
Se 10.90282629619547 4.453064027669763 14.213077703146627
Se 15.0947761831246 16.49317243652498 11.908847889213625
Se 8.155190531520885 10.344478577566258 12.25137426009303
Se 8.753296136397731 13.49436230991552 15.607557194555453
Se 8.82261562945467 8.74622102287946 13.837955550996897
Se 14.876589842486688 13.43070510330478 15.021933194848078
Se 15.182175055865597 9.715857092316924 14.453150398189523
Se 12.54467712745396 7.444954330769925 15.948189880674054
Se 9.351262097401367 17.289353984286212 13.10560392065071
Se 17.648639466321868 15.699579032968975 16.057689434735185
Se 12.960792207985023 5.467923897115047 14.714037493720399
Se 9.756916963778046 11.668398910945866 16.69588593079382
Se 14.692616431878106 17.86239171192645 13.602811979374932
Se 12.054896848007498 12.035824172912216 17.146250870760465
Se 15.472161222932941 11.38321660295781 16.09374098291205
Se 13.03296500517837 15.540264994906096 17.948055085807688
Se 12.145937041877316 13.584921514152457 18.947013663764373
Se 16.913442643129123 14.598597852358937 17.955161119831978
Se 15.144866694556438 15.890415644580848 18.910306522703536
