48
Energy = -162.87843821 eV
Se 16.545736308681423 13.463689335915072 7.131584808938357
Se 16.33514490979264 11.78703870899394 8.703348629402235
Se 16.33061389020473 9.552720290522442 7.584809436750692
Se 8.107811029618011 11.108784076392421 7.889210974686337
Se 9.249174757907335 8.884678287902902 7.834836447237322
Se 14.36982498314077 14.220218496186698 6.44772918093431
Se 9.531833460768695 15.455918807261371 9.792396446482858
Se 7.825787138486108 11.575383153224495 10.122878554452614
Se 14.302244213204276 16.60493833420431 9.299485599135368
Se 16.23561240697166 8.2823692361006 9.410085316977472
Se 13.514939075359134 9.073875258499204 6.9496332673546535
Se 13.154134058866633 14.699552178522765 8.383837274270247
Se 5.703122909879923 10.78566914059165 10.916838748355774
Se 13.30674431934344 7.851933644005359 8.785750629475302
Se 16.96818387559241 14.475958469991635 10.963874065848282
Se 14.445041528100884 11.660519483721366 11.671367195090141
Se 15.03871718770429 15.930150464731078 11.380070059486254
Se 16.89128706263493 9.520405720443119 12.98150089333076
Se 11.135042194713508 13.413505747410957 11.448567205270724
Se 9.743417479277607 8.407659293951674 9.986478214786828
Se 9.565519485550862 16.183633098386462 11.935572524152436
Se 12.850849792723672 12.920495500232127 12.90956119441404
Se 7.352033403315052 15.186415722072178 12.695788527546064
Se 6.019561590173408 8.611457374070534 11.74775245967965
Se 7.177037627369352 15.372618997727825 14.977605483646128
Se 12.55071469520716 18.96420885899895 13.870349601695859
Se 9.414972238960882 18.679001296726653 11.746979367592244
Se 9.706636721482903 11.103414742840933 13.388658227327756
Se 12.106595852806997 9.234259738127692 10.65294541484609
Se 12.433517473767028 7.928422876460159 12.461814097356934
Se 16.07266049943309 11.772161893351178 13.782057930094652
Se 6.996611479148789 8.760613185103566 13.909467421967314
Se 17.443696265494555 13.772389429742756 13.112283077394277
Se 11.456192205971742 11.52181072468262 14.840821099088489
Se 10.1851192623689 19.19351335818254 13.881638678516502
Se 13.546372524536205 9.181200592585805 15.302257347163833
Se 12.909735867625905 16.68109812852948 14.354968575396084
Se 8.9330257117786 13.808222373269512 15.642730085619684
Se 17.230828412103225 8.414960890808022 14.952663173104964
Se 15.09520719767049 7.423023338311345 15.512126745315857
Se 9.31614510284645 8.699623684200203 13.507269233213826
Se 17.834918613502033 12.042905141243784 15.690755188745722
Se 10.753750204041557 16.735441279842263 17.425939492665446
Se 13.381014322877276 10.196525446736402 17.53546651952412
Se 16.29864474502015 12.667109207335951 17.340170276228616
Se 9.659702152423236 14.641689459113886 17.692856682403196
Se 12.982482070723607 16.485447977258048 16.713343235940858
Se 15.545660187813558 10.616986052469985 18.285493888076417
