48
Energy = -161.72633845 eV
Se 11.911966950701004 14.45613792271199 6.485805023933286
Se 12.250972258693963 9.436206973151627 8.003509076554948
Se 14.602698611555175 12.521382677692547 8.342806974382155
Se 15.710485264388222 10.546797954656045 7.53026167303295
Se 10.053792157202764 8.505582804479827 8.258969683011133
Se 10.119787684648205 12.73169342673311 7.046352219660443
Se 11.394407827863894 16.136096638689164 7.901949816381178
Se 8.278668528874 13.992905709602413 7.420417627217699
Se 8.580953002685161 10.323305420609788 8.320378841517241
Se 16.254982010873334 14.216785043395904 8.480641864136834
Se 16.67084607750209 9.326657107331034 9.224537070054547
Se 8.512429046177223 14.943730617015245 9.841436337217674
Se 17.55881547686537 11.272180785439613 11.526738623685766
Se 13.106739599451396 9.76528724365032 10.177328373854339
Se 8.126361016752433 7.504272100755374 12.419755349744744
Se 16.786298347353746 14.574648361727084 10.776050700547913
Se 12.018284692755783 15.160310655206622 10.227503896848228
Se 5.273335385726237 9.126358899782275 11.587700075868353
Se 6.5608821646269035 14.518759391848878 10.837105987628323
Se 6.167663007284518 11.307051833741056 10.922590471920197
Se 10.291840537485696 13.48249661592661 10.822033176852203
Se 8.484171460003108 10.918639011658385 10.701259852234225
Se 14.536370164736887 7.9618084204520105 10.676404166611809
Se 15.30056235044364 11.523995214652393 12.170001730996667
Se 18.687356871337578 11.964713004565235 13.566209743582482
Se 13.23994104674923 6.274661078598327 12.125677224239567
Se 18.339204949474215 14.2441217115559 13.963302708441187
Se 11.978624893499799 11.480633328138037 13.212023148079963
Se 12.2023862096495 17.090563505211076 11.670028524586089
Se 7.188955874629007 12.492699889571409 14.738503357095079
Se 16.0110768431879 16.758818477466978 11.308374682118227
Se 11.158663554522747 9.138492527479924 13.3482615615649
Se 7.565439588895365 8.449199675787051 14.34339230077362
Se 14.177474416481438 16.47604290629882 12.798322530176168
Se 5.132022551340501 9.333974348526873 13.839937895699004
Se 9.765504616477989 14.94999774598646 14.976765682719027
Se 8.767331494954536 10.805964988676994 14.152474058397734
Se 14.993095586909732 9.635976956768019 13.640149941161255
Se 17.131934909476296 14.422160921467793 16.019055523652263
Se 14.81250885888464 10.642023076696566 15.704373720919483
Se 13.801851001310508 6.7303630123792 14.311289221682026
Se 12.485412827745007 11.894470064435714 15.639294925133168
Se 11.27630602269381 16.20313599666805 16.243715058933724
Se 11.931348653017054 8.059608357426837 15.213634824692091
Se 15.360506328664034 15.983268247231848 16.069868338825415
Se 13.297411057331407 15.232536844060737 17.095889897331897
Se 11.025342146535017 10.959906011488354 17.025446317744713
Se 8.2691151599823 13.675705581004275 16.444599286958198
