46
Energy = -152.96750028 eV
Se 14.940581242179245 6.944786474585359 12.419331516992044
Se 14.544410551536622 10.068366421329962 9.0322562973761
Se 15.072465743847653 12.51568818003379 11.215625118390435
Se 13.0624238164361 13.988776830395063 7.806453730024361
Se 14.50636308673212 11.777168076553085 4.870176365600225
Se 13.20706458972963 6.727914634050271 13.786350526240911
Se 14.128056660653767 11.44198543924185 12.899994338492377
Se 12.612996961021375 5.707388617621109 9.531995961121208
Se 14.728625647236658 8.714889705254626 7.022237976296887
Se 13.343037943630284 9.794192280983387 5.495209029206559
Se 13.576867067171506 14.79987505706472 11.830393734338868
Se 12.556664298869503 13.717690526540109 13.444353445647577
Se 12.84898054974023 10.31306171681153 15.935580676718704
Se 12.225565670865931 10.304082713619133 9.178390723298808
Se 9.50153079555975 6.282284440056841 13.96137298128535
Se 10.11632833947837 14.165931195061868 8.900342638562595
Se 13.10530096503278 13.633732970785163 5.565878921719015
Se 12.012569551498332 8.38223891590574 10.672931658664593
Se 9.678551762697955 11.886981517397235 5.766280258724016
Se 10.482254685106204 5.519902492045264 8.86360935851356
Se 11.336821444343235 5.7996937123208685 12.369782790491191
Se 10.08945477586805 11.860620016228577 11.941207817738679
Se 10.56145577715149 7.145160198347378 15.830727576987265
Se 9.091363526218885 13.90567346236129 6.721653403935395
Se 9.04537375024275 9.671124884947698 8.886312402270734
Se 9.065076250190293 12.332032644105153 14.020746767354982
Se 8.726269773318096 15.64826836600866 12.271888263114784
Se 9.937198717794347 8.349196995486512 6.518155820529993
Se 11.601957096323915 9.059604779579978 14.586017214453273
Se 8.980275052041272 4.533022948066811 10.63361376116603
Se 9.708502123525447 7.995527267318977 10.429109490912662
Se 8.371392787110535 15.525583321403035 9.972571826443072
Se 8.152102671314077 11.063266705374742 10.819902594794168
Se 7.825680091202611 10.264026405812444 5.940335568209257
Se 8.519718382262155 6.61574563795825 5.773025080637948
Se 7.001387869449397 8.846336792321285 13.364501194884815
Se 7.465124214213572 13.972536393304086 13.361418686765864
Se 5.83826479996548 7.713104902871341 9.61277638329319
Se 6.323880308523126 7.434544916855507 5.742826733947555
Se 4.9496193790053145 8.96495505494116 12.471000003453302
Se 5.813341302816387 12.386276078564608 8.157794988190554
Se 7.113420985073637 5.4171854159068795 9.572615180156673
Se 4.410089153983988 11.208983234819618 11.429343422956133
Se 5.894238375757833 11.70198008347682 5.928454537412676
Se 5.09857171590275 6.654711590536428 7.683633766125199
Se 4.219708086010511 10.797644960165842 9.15601952978861
