44
Energy = -148.42716942 eV
Se 5.587393588008204 10.408584560022058 11.94771188630172
Se 6.064921957472349 6.3628208098810335 11.293860428905143
Se 3.2649249259978177 9.786306450351997 11.222464765605514
Se 3.9653222255102056 8.822296982302628 9.233872659007984
Se 4.312753677522489 6.501064242683212 9.67751622042052
Se 5.560803412628659 11.77331513171725 13.689274436110026
Se 8.187110829349844 6.012722349653658 13.422887824977744
Se 7.9395957255896805 6.113671903323925 9.794146324346022
Se 9.104248436998217 8.782416249338503 14.317203484651285
Se 5.970148618421453 12.416855019384851 9.979554880206427
Se 8.452901155808302 10.230725564261064 9.688189236156342
Se 9.518359143797506 5.728122560264065 11.581822220891125
Se 9.651582726359218 11.111827071024898 11.471891276038486
Se 8.400639497358211 11.958504624748288 4.599654557076533
Se 7.689339879729947 8.509311266947005 5.789019191714293
Se 11.92553997274847 5.889713543242694 13.735761646540015
Se 8.826381433193506 4.816189177001639 5.809262934001291
Se 6.018925577587503 14.040092633513783 11.53342784447773
Se 9.64654474448092 10.805659215391083 15.489205693892577
Se 13.334944487882737 6.477514442769179 11.982282753439517
Se 11.341063603109992 7.850367637969296 10.573568886203503
Se 8.09965814974206 13.427078605103894 6.439519790185354
Se 11.295008530780837 7.878357144541315 14.874566059582264
Se 9.099423899785895 14.339235840565168 14.017088050581057
Se 9.846483656719919 8.399231107629818 8.841106071814005
Se 8.341238473907861 14.776801542728972 11.871788843771732
Se 13.185169490444075 9.453436429707054 12.786531328762525
Se 9.773468656405003 15.074619317754012 6.250316925955633
Se 9.476655534284967 10.095666762637341 5.564375980774054
Se 8.697606524879056 6.763172051012698 4.51657106937017
Se 11.008834820119766 12.528641325190263 9.973864531436542
Se 10.319265658844031 4.9191538459796265 7.659245895567406
Se 13.470785895742516 11.232203661259055 14.123949926248253
Se 10.699205771603486 12.470016604490567 14.132905705573418
Se 13.228044747974467 7.2945166622884985 7.630553770220625
Se 14.335438197757723 10.814705225980582 10.586651998489772
Se 12.98326074237924 12.90322535951554 11.053775418377482
Se 13.866733674624772 10.2993154113979 8.453393773549015
Se 11.770605451924506 14.230167812184538 7.201025747197867
Se 14.020373968316138 9.938015670380542 4.7228196224322945
Se 12.442847430041674 11.720696733949254 4.291752169306115
Se 12.854675585328973 8.02355287521914 5.309818070261123
Se 12.637794293971314 5.085931562766868 7.074698619777327
Se 13.121186508832903 13.715459450458399 5.321650394213986
