47
Energy = -158.87022433 eV
Se 12.417063932057388 9.612129669707793 3.8982962348049917
Se 6.993439744103457 11.080446929217455 2.736933019720074
Se 12.20182383035842 13.069732596222863 5.980788029192204
Se 5.819171717501507 9.241371275515242 2.94553493791511
Se 8.733915992416641 6.819641351110404 4.659291966543002
Se 5.720199625996024 12.252547112230099 4.853911585507101
Se 12.713067887099182 9.123437560171295 6.045169812290517
Se 10.861560897996277 14.857143369153048 6.392138585773691
Se 10.827685701166818 5.770668128166019 4.5656946164426735
Se 4.461776562013672 10.488940939755498 5.1723045801374345
Se 4.860311432322185 12.386244841108965 10.230347274749818
Se 5.419885606730874 7.926263638950126 7.630215254396026
Se 9.181908361814932 9.178032282407464 5.077003588665411
Se 8.644705316685377 13.768729519958434 6.6215229974901835
Se 13.242711087123817 12.445065531028103 8.202241237425788
Se 8.170330752263963 5.612448509783112 8.425366995466716
Se 12.495616712181114 7.876971680461036 9.294274516391644
Se 13.190267126772632 6.354774870513257 7.804601322546749
Se 7.189779541236739 15.418144190932379 7.241135103119278
Se 13.507578127347006 14.385404574919527 9.272873481781192
Se 6.784029674855619 9.409110854962398 8.801185894411335
Se 11.34602604451572 4.9832207711288055 6.715007997638669
Se 10.34344793788191 9.1127963893798 7.044552662059485
Se 7.153697149414703 15.483005725288598 9.709034807404592
Se 5.663095577943719 10.266197764994745 10.751948782194436
Se 13.143570868724854 4.1319936021780075 9.343573358951108
Se 10.503482343341904 12.242697137196686 9.924667092399561
Se 5.852768028055185 5.789915458718215 8.652503854131826
Se 14.117846296281005 8.398475128958694 12.09068535944412
Se 6.569228491091789 8.827929265878458 13.89744870470702
Se 14.158382253254974 10.705463738847923 12.007857947494507
Se 11.133222409870688 14.21549181000032 10.650981395864186
Se 7.136239558251599 13.304344128989 10.398908236703175
Se 12.42535284607116 5.128870707003642 11.258347603407103
Se 11.912589895782276 11.311873894237605 12.838414770914676
Se 10.041447132686738 4.771518654414312 11.572523397865611
Se 8.924833363159712 6.527876497470373 10.51354117170149
Se 9.475181066914605 11.600446695532314 17.074591724799046
Se 7.47999733290946 11.017278558227972 13.972611404637215
Se 12.095761811572808 13.52617976671024 13.124473400308426
Se 7.274261757901933 11.700379307585939 16.217775887841164
Se 14.86141308402377 7.760975784408593 14.332486705263266
Se 7.75109334479236 7.4682212344543935 15.437483001210202
Se 9.89179329260693 7.031343542305088 14.628625163691423
Se 9.899874113768078 9.397935281026024 17.76433825909268
Se 13.072132873311318 6.66129906738911 15.259918941985179
Se 11.32885866812108 8.549447833694522 15.959294505813466
