43
Energy = -146.09906481 eV
Se 12.465615724097711 14.24067956918788 5.52444732631488
Se 10.494820085398427 12.98469585230758 5.795598786224773
Se 9.105087751880317 14.312617729675207 7.165415915212306
Se 9.665711170629557 9.2215515055853 8.157089789628193
Se 14.453528381912957 16.819586845453532 8.986582426751045
Se 14.019338154068064 13.539250984092279 7.184203302149329
Se 13.297386152030576 8.640362807866344 8.978906502485012
Se 9.582828287355914 13.609409804299851 9.377222713713907
Se 13.431207278312467 14.564057038176148 9.192374253628612
Se 8.193672296406065 8.306951668322165 9.749252522375777
Se 15.963547932535612 17.09412717981163 10.597545590785941
Se 16.673900209642834 11.075751020600528 10.939986354530276
Se 7.931726879991322 11.978984353175619 9.891357053612547
Se 13.255969511847926 6.786584274097373 10.62287012560142
Se 17.37897997198473 13.28636699461438 10.529058110593494
Se 9.261767317617762 6.284869397590014 10.417031497213953
Se 12.308194173368722 17.996233450139947 10.537999902737822
Se 12.952172982246843 13.163161023427767 12.466522403405337
Se 13.73081708414461 18.439558253260653 12.192004765645407
Se 11.530658909296285 10.035303954336237 9.424564150647164
Se 12.225692526014576 7.744219568074403 12.436112618181312
Se 17.546900750648824 10.640181345103056 13.215504467745891
Se 6.2974656193571965 13.030211782102915 11.262202905592607
Se 10.75347561102427 13.62493573119172 12.682280934586776
Se 13.908565860189325 16.45028867673546 13.688265004243757
Se 10.05696701653846 6.600843628161376 12.561870342862697
Se 18.035441084485914 13.887828981679345 12.788332662464011
Se 16.649074953348343 8.675195699789464 13.73814534206636
Se 13.268854484485761 11.118673124243054 14.678722174986474
Se 10.343026255885661 16.184331408682482 13.362512539054807
Se 6.524950826212164 12.010009814865194 13.370483858621432
Se 13.086446900593373 17.097090497213365 15.710786919077167
Se 16.438248892680722 12.916419343733525 14.103824261732848
Se 10.01752431494693 12.549793571064452 14.787983947899445
Se 10.680703188412437 16.337173707318502 15.57254472593769
Se 7.828177555031112 13.409100946296709 14.776202768884753
Se 11.697664303159499 8.354113771220057 16.908412044975744
Se 13.73413557599587 9.160143624637133 15.728227834916114
Se 14.720340258691582 12.394362583698538 17.288446166026663
Se 12.623947962879983 13.153548428896285 18.512536114058907
Se 10.521160675564387 10.266620911657071 17.378203366395585
Se 15.098020085752827 10.313380908965119 17.945489801402598
Se 11.751429580654197 11.206572775971534 19.278020242353723
