47
Energy = -160.583231 eV
Se 9.53851709530061 9.627614954652334 5.1815131863650175
Se 7.6748961729733125 12.641557208587285 6.421989401668522
Se 13.974684519992751 12.203420013686973 5.859088351137992
Se 7.416471101256918 10.338682651353496 5.916388170143153
Se 14.696665919823499 13.857468172939775 7.383298812388104
Se 10.612555287163463 8.537348458498732 6.983849012607516
Se 11.893329755773546 10.099829560778183 8.228907104416546
Se 17.057089352104036 14.039711351970512 7.108025213019157
Se 8.408659850893606 12.779052430490996 8.634111592828637
Se 13.99675054948554 10.225970870951112 7.145155302837984
Se 17.972834466538732 11.98620541089056 7.779170208867646
Se 8.532279470366536 9.275758822565177 10.59428867125765
Se 9.28215834321729 6.908131451974879 10.538572611277527
Se 16.388279550666056 8.852046019988913 10.459169004676237
Se 14.719260982238458 7.826943860527228 11.672348480349044
Se 10.066179348127598 10.591349263576038 11.594535313648231
Se 11.777397501814372 16.413388187083402 9.216401450750563
Se 10.046929311109958 17.242004030497302 10.62163444601338
Se 5.366536924424543 11.68603478637365 10.947692274396301
Se 6.304014759404311 13.367538846987989 9.842368591526983
Se 11.559118296668446 14.0449312278228 9.241839750422015
Se 13.313071934028933 13.057537774095483 10.44196761048899
Se 18.282192395416715 11.924730311328064 10.13629053716874
Se 16.260248001271062 11.220548087255581 11.069597760619862
Se 10.861953958675041 18.33933171363034 12.514703904257845
Se 7.635201842946799 14.615473075967435 11.878300273238063
Se 13.662942221094351 11.489693377967656 13.786754125122586
Se 15.7508622928991 7.137136408931371 13.774811086063067
Se 12.975046504990607 17.352458672074675 15.443351574075319
Se 6.863669869980441 8.999072810405542 12.6023448691643
Se 6.557971303950798 13.470230439476444 13.50789907780329
Se 9.391740680220726 6.49246876631817 12.838378222629172
Se 14.97035087835367 16.37542927075121 14.655312078458605
Se 10.986871735375933 16.772946852258592 14.327527016404638
Se 15.680175992002562 12.739219940975282 14.173583730688438
Se 12.21782492647746 12.919897415567423 12.632205170886353
Se 7.965131672440085 11.84757909555697 14.617574102549067
Se 15.14901094112097 8.576015089543876 15.395665785894137
Se 12.961110047735904 5.640500056910366 14.381237571744956
Se 7.030651696020411 6.736952910739922 13.079388626746008
Se 8.605876453266388 13.178217283596345 16.481470909866758
Se 12.77822596055075 7.206701155787115 15.948753296093374
Se 15.340276306147404 14.348538533113137 15.847946653779701
Se 10.91202683789036 13.464995983995763 16.20708219379373
Se 11.805887792886844 11.738318066225233 17.62798523731988
Se 11.163181810398575 8.873312658826038 15.077916497114789
Se 10.512049872242697 9.855869154233327 17.09976762515801
