45
Energy = -154.07817189 eV
Se 11.192749749653506 12.062294943542678 5.772299577456233
Se 12.419192713115267 15.572374682550102 5.834750630746997
Se 18.095341731322897 10.761815617439051 7.791976274557629
Se 13.146058488520644 13.40481715715197 6.274499433253475
Se 16.6442678311266 14.162384943141689 8.164592740057532
Se 11.450186080250562 10.135917955423821 7.040376313956148
Se 7.8410370697963865 12.637589249044648 9.400378462159962
Se 7.019633587648356 6.766796541702876 10.17489623638826
Se 10.318518716317099 10.267364323468204 9.144710540996526
Se 18.469400767573493 12.852775993265618 8.852654225754115
Se 16.136231644266733 9.830799575471355 8.6982244138163
Se 11.202380344202911 16.559101664997577 7.633016114077205
Se 5.835329091311906 13.92220600475202 9.639068913279239
Se 9.378174411202712 14.147724195243622 10.348819651534196
Se 15.047850476503271 13.648952467784728 9.869777326907808
Se 6.851967295150263 9.070807495004987 10.518265708966375
Se 12.643489563300623 17.79956965785084 9.022365039608584
Se 7.92014212650179 5.774712686489807 12.143686461302831
Se 12.038021979121213 10.279593671280265 10.801384002958471
Se 12.556438994985216 12.437891530896996 11.49266516824661
Se 16.704236537141583 8.388332765322017 10.491505835802782
Se 17.428701655996164 13.630717655191306 15.192918209052136
Se 17.86467410267342 12.70947403194144 13.066312390697252
Se 9.044101362077523 13.721583173693928 12.654152814091042
Se 15.002006167741078 15.60002231638407 11.210474785825683
Se 5.6939712544073275 14.29813707722273 11.95591694001954
Se 9.403660321247001 7.548932570008793 15.279290444625937
Se 10.238636221770316 5.951766215024198 12.107921884976584
Se 10.86109187401763 8.110803423157238 13.213421135461676
Se 12.84330482376196 16.537364479402026 11.01279531550427
Se 11.23722405456568 13.170801116952807 13.645837467391354
Se 16.06561878010311 9.404091303361259 12.519690308961007
Se 4.883251713751398 9.219251137832002 11.90420916106679
Se 4.271111377384753 12.700290300070682 12.974471583312983
Se 18.046896731370722 10.375124028880045 13.402095435602082
Se 15.106644661806614 13.96319560401905 15.468924270350318
Se 9.486022735982173 14.079260946213624 15.59547774745126
Se 13.032764628425111 7.589058532227004 13.53123113981291
Se 5.44876982919518 10.73977128893974 13.587471824269954
Se 11.284103178861715 10.98030104023712 14.919171001121237
Se 14.326785618158466 12.13526196934208 16.732243164569656
Se 9.983112554728596 9.004372600910852 16.983022070256062
Se 9.63339707341677 12.725876643496784 17.495798945245074
Se 13.56135311100304 10.53439237624907 15.126227704709162
Se 8.336759098161128 10.780939177035682 17.305623313417637
