44
Energy = -148.42566781 eV
Se 8.358109496784538 6.035896293219663 2.3601185832011606
Se 8.559777341016494 4.251389976927642 4.268973830284099
Se 10.751533749789912 3.8547252616589667 4.354104290584907
Se 10.402236186335765 6.95036251485366 2.4934037776458253
Se 4.611327600459374 10.080321203527085 2.8374097335363135
Se 8.34968483289418 10.151002874465837 2.968509462820327
Se 5.651966977286047 5.9662062767363 5.253647716040616
Se 10.035232934679858 8.843177120280389 4.275983792302784
Se 13.471875765175202 7.715641333336907 7.450410501515763
Se 7.748861663744162 5.9108153261152285 6.167888202889699
Se 11.896406652442675 10.050205730900206 4.267202113737623
Se 6.3333479261454215 9.903078325118024 4.283812988426848
Se 12.700913624871587 6.097619049365652 6.01383577076586
Se 10.818400902063233 5.111943274888965 7.448674990962741
Se 5.689194970422169 12.416534594493108 4.824957127527538
Se 4.552332989777751 3.903461016309223 6.209437944226685
Se 10.514744370301704 6.486983191177107 9.167246004492386
Se 3.119259831863549 7.569017303960717 7.078035617451233
Se 6.882784997644778 13.952076939878989 5.994958486212415
Se 0.8841722562795025 7.563993471803927 7.8232521829782415
Se 8.40172233563549 9.979510897056608 7.641935485535763
Se 6.806558971412397 8.309975376813933 7.970833563086899
Se 9.97123666358411 9.969502939233058 9.48330145371798
Se 3.6538660888782966 9.792040517092184 6.473643284359232
Se 4.0529612591751025 12.910901993976308 8.208898483612533
Se 7.157084989759984 4.095047698143847 11.202275065821206
Se 6.0742926640393105 13.954042361429796 8.354727391485177
Se 0.7105080524444206 8.59139323676345 9.977911210122695
Se 11.926668841675324 3.025108116612336 9.284938889199063
Se 5.116296784474923 10.458188100703714 8.281787538736825
Se 15.481914550309076 6.964300180370162 8.51939069538165
Se 6.132849724471093 2.8770344591462567 7.505024024793488
Se 1.9374362223492727 7.384036529281058 11.494527965089237
Se 7.88111770442715 7.806620919409559 11.004807471241643
Se 5.550468802765174 3.080751937833694 9.852226738415267
Se 15.104194074351838 4.923799572328772 9.649800218475345
Se 13.966851644318714 5.260628008842339 11.623484311988623
Se 3.769115107170343 10.627392636993944 10.460601657424823
Se 11.658573295602967 4.423343429790562 10.976302253691989
Se 9.689469011084077 11.736087436019584 10.986250598369955
Se 8.171245687502088 10.890170813592762 12.663499250003909
Se 6.24285908013434 6.252314375939977 11.714907175361368
Se 3.946860117719245 8.851075633226966 11.854373312917648
Se 8.9587715353429 8.717370028986652 12.96777712217102
