41
Energy = -140.55446758 eV
Se 13.560030006350617 13.047725829445023 6.353239819242419
Se 13.177060759757271 10.812453804126564 7.018091598283476
Se 7.625842782565534 15.077437341572697 8.286070567639884
Se 9.649517437137474 15.42525801755044 7.213676204132972
Se 11.142142784997256 10.860497985617128 8.209651711303977
Se 15.111685837024325 14.090762324144883 7.7848951707387295
Se 16.45686504441684 8.897365778830036 9.913914855136614
Se 18.540958181092822 9.234178790153118 10.997924677068934
Se 12.877950555843626 17.055897355666165 8.416528693863615
Se 10.633159448309002 16.893731870679186 8.908233708458265
Se 7.918490040751197 13.242480463591178 9.801156027716894
Se 11.733750464246846 8.680619878719291 11.221432293432605
Se 15.306481970721661 7.570272986733421 11.492429373916726
Se 13.94011548205248 15.117429500618343 9.567173534570355
Se 15.445845330754686 13.711536332635974 11.69766874131434
Se 9.507525808137554 8.202976313380292 11.89817032330865
Se 11.70013475694074 10.936997465417852 10.501086419200904
Se 8.010741782556948 14.050534937979808 11.987493235588374
Se 14.49004480677327 19.340136449905486 13.57031257994687
Se 17.94549898152728 10.836565504843188 12.63338703219752
Se 10.34680328521053 14.28493921715012 12.490543551868509
Se 13.426051640396818 18.13248421249578 11.834886374037612
Se 14.701858535569716 9.14778684396335 13.169141380155107
Se 9.409260855190146 8.358826926499757 14.244005494951073
Se 13.942277169058116 12.867947961786516 13.164462143210223
Se 15.619542530867873 17.86390740007739 15.039960435383783
Se 16.795455974784655 9.521052069832125 14.234364952671504
Se 10.577001110901072 16.29623534461438 13.665607203995167
Se 11.103959804612908 18.154646049461817 12.273993252623466
Se 14.503530179321022 13.157733922271815 15.338385368625138
Se 8.821260560854462 10.582364498932796 14.793707894672496
Se 10.851985743127694 11.611399102132994 15.44749169121413
Se 13.246522205167992 15.554395618663298 16.76263332535431
Se 15.302549590479806 10.420080147111179 19.79951453547575
Se 14.35472773987218 17.724960882700078 16.990860701767925
Se 14.003905095908754 9.372421923834413 18.13205440165864
Se 16.11900566048582 12.394059790591681 18.776342688408167
Se 13.107092334460125 14.854849533203682 18.992405771140998
Se 10.889831199420147 11.609173091285657 17.801031408601578
Se 11.701223574578496 9.547423719571938 18.612587530947522
Se 15.261341268165417 14.31748113260105 19.822511646566912
