42
Energy = -143.54568822 eV
Se 9.592406144165148 8.092167408338096 6.4944117433808275
Se 13.356764084857069 9.071863119596816 6.552255874597408
Se 13.631614651452542 11.690083079859411 8.79536286761339
Se 9.793884752832682 13.972448339346721 5.951653334319011
Se 13.53817972456387 13.421400446189661 7.168091271698144
Se 11.386112494020777 9.485440695411862 7.535608746782268
Se 11.52277800603944 14.608139916997061 7.4293672151597425
Se 13.826942059496258 12.806460157778242 10.89784322610191
Se 7.830407449157715 9.201852207485906 7.527533092081988
Se 7.231651838491093 11.092798320962245 6.204234509811948
Se 7.995910947770773 13.064390939209945 7.232560341439758
Se 11.721384459343339 18.53900879711988 11.54305013587107
Se 7.139061066067886 15.686836804251513 10.218119914929266
Se 11.88754272096272 8.433046795865287 9.785783206253223
Se 9.236160646510056 10.442828775440907 11.745090894049266
Se 9.238308087327463 15.68959543444443 11.133980601608224
Se 10.018505861021149 8.267682082438547 11.140591808531235
Se 15.135121416777585 9.144725709361932 11.355158866116724
Se 5.7023149696167375 15.279636304810602 12.186752407742818
Se 11.620703977270134 13.281587812756491 11.593849107654721
Se 17.497463791524996 9.607584895978063 11.283621203006183
Se 6.963513187781688 13.904126702498841 13.541007151998466
Se 14.513760444003463 14.780129766603958 14.21737944296107
Se 9.53034293753312 17.959179846450436 12.023279288604119
Se 17.855938730400315 11.40278861121022 12.691963089175134
Se 15.036069990461074 6.916808092697198 12.128198804825049
Se 10.821596947442778 11.59721357153355 13.053263713497179
Se 12.854686738660943 18.32665094487908 13.66764643149446
Se 7.896281012607208 15.34462915737505 15.250727339822303
Se 14.82107040437282 17.076378028114934 13.648972730482553
Se 10.12416530144223 15.809704297598403 14.817566982636835
Se 14.999296338077558 6.805168141388572 14.48891157041056
Se 17.480514632989486 10.026896208594344 14.793428014443364
Se 14.980633530647557 10.953335128444378 14.90825377354831
Se 11.837506479291209 8.577840553583671 15.726830696300583
Se 12.251007835003326 8.968988061698393 18.032282460630412
Se 13.367142584050015 14.891593926564207 16.30172349824832
Se 12.752275673525977 6.485115446198855 15.173180341346129
Se 11.297898385156516 13.933428038904971 15.887672220096507
Se 18.3431197507786 10.731234381324034 16.698604138594984
Se 14.96055365165017 11.44705341243914 17.124825637779043
Se 14.564964720641356 9.337718064040248 18.20492073014271
