48
Energy = -162.3057983 eV
Se 11.659975788135142 10.182712679364036 6.6495459525451865
Se 10.691556715211078 16.587364281391263 8.339357576010032
Se 15.657268405698506 11.320015590461805 7.262536690533536
Se 10.62164496776483 8.954913926863144 8.183579665390434
Se 17.570253275847488 12.666596679070699 7.736003716241081
Se 6.749380305635965 11.15151421048421 8.691800991903492
Se 16.37769853577612 9.103635220241161 7.68428814358877
Se 12.161768321279169 16.51075521773288 10.169670907514304
Se 8.536877861039097 15.857689784971772 8.968525609856847
Se 12.205267996203848 7.183590984515741 8.930448311850775
Se 12.180931477844831 12.322731598588026 9.249943457558505
Se 10.912954533818892 6.175409268451574 10.57369214936199
Se 8.733113580662023 13.503192465892282 9.189471964890668
Se 6.772069440088759 9.946964439807509 10.601039232854287
Se 14.396169486632544 11.975126520404334 10.058375108386928
Se 17.84816387334983 12.216927830350688 10.034861931064297
Se 15.820611824407305 8.515987128337734 9.958657576155582
Se 11.365015339904328 17.984754474283225 13.576847368444355
Se 11.975732980329422 18.54864635893145 11.376835368305654
Se 10.540114000602372 7.799398128725049 12.287105264731597
Se 11.131229917794581 10.64943720818807 10.471050359538504
Se 17.517750968001458 9.058382589912185 11.365242038245489
Se 8.414340808374902 13.15250777611303 11.562854181724845
Se 16.789931001506005 13.975361285496994 11.343037926637097
Se 12.62153364702838 8.31214622004415 13.309730640102384
Se 17.71691814073385 11.46897699040634 13.85198762815461
Se 14.00027129031901 12.665595538817374 12.377393529059049
Se 10.293368147508593 13.86076807298967 12.683015743924171
Se 18.460047172805364 14.978032501724435 12.583163593282938
Se 5.213723483436045 10.564533919635933 12.12870203499281
Se 9.062545915963717 18.42382077698515 14.012268753754219
Se 15.435734605688332 15.308154675856622 14.789843527496574
Se 11.79061643664956 11.871951815601012 12.96401755396624
Se 6.516210651862716 12.04719148403467 14.347932956813409
Se 7.918130829366893 16.429860793908354 13.649237757928507
Se 8.396478370124363 8.699541422549142 15.28943281424976
Se 19.282073712079857 13.07110888537694 14.003226081081374
Se 8.564218248123238 10.873201345724508 14.371029374718061
Se 16.6985960934628 15.568657159165106 16.662893045387413
Se 16.112570971207607 11.952316057140456 15.828062400729145
Se 12.662207632525348 7.391930732783662 15.486011463854762
Se 12.536427419110215 12.840743769224508 15.439160654565327
Se 8.419577994655404 15.146773792539914 15.676238359420957
Se 13.08566389876807 15.071001940521418 15.474132136595353
Se 11.79784707802817 9.130944671889846 16.824498931684627
Se 17.35171161159758 13.170891824045036 17.242746322125818
Se 6.568455330370846 13.850546546141112 16.069124980446887
Se 9.54228677252949 8.634730274170579 17.34841508218622
