48
Energy = -162.62525254 eV
Se 8.312016246663363 13.240698070513252 4.65167981128231
Se 10.413054953195221 12.233485728747414 4.533937991797056
Se 7.953615263631364 14.109245965309121 6.832289197597176
Se 10.23763219025889 10.29046277872324 5.997819544045097
Se 9.36855969502956 7.379195416470037 8.271768413554382
Se 12.515858063363854 9.966690363485503 6.342406724976757
Se 13.941630314246252 13.406318438038051 6.489581519699086
Se 6.665793113515415 13.206222683685546 10.395035664542174
Se 6.167940610757193 15.354906178778986 11.195787138589083
Se 13.209615492112148 11.618575808003083 7.901502606491649
Se 16.20221426232915 13.662015718788856 7.048368604167592
Se 8.734235299729864 12.697615982403088 11.473430763483147
Se 10.480450040793894 12.863195853926486 9.921762514206769
Se 12.701268988754478 5.90411728288631 9.206032223116559
Se 17.8220280430696 13.722181369637234 11.820964301615254
Se 10.670002873659246 7.258665259605168 10.082131528396486
Se 11.513539080912578 9.623827025384829 10.271949644964813
Se 16.154336620117775 15.281844400523282 8.796168334719825
Se 8.95552287195036 16.232372487341177 7.085894659436246
Se 11.184715462967674 15.716228411889425 7.7141645076145124
Se 6.47738172147725 9.268103837885505 16.05828393969818
Se 14.610721323754614 6.748727038013565 10.079763687830607
Se 15.663740978097312 14.141260047094688 10.769528389254805
Se 17.344295995492562 11.926972598024339 13.183429609451538
Se 4.838216262535877 15.035135500620138 13.135219129662515
Se 16.348976055603 7.092622486249715 13.271014119171417
Se 16.19952528747967 15.262713374737789 14.663537842004198
Se 6.226402509959599 14.016673288717884 14.74268654668686
Se 14.875502249226956 5.659740649464952 12.272234802245043
Se 16.040194203482834 13.011562198759226 15.1666677422081
Se 11.232742948600924 15.155335801195701 9.989289382715073
Se 13.334208464595703 17.427609705053804 12.989201279369947
Se 8.603760235227087 9.127547075501994 15.42664453487766
Se 8.974362853082427 6.635673208756117 15.334605526954494
Se 13.993670764827588 15.370793609603233 13.5196673083766
Se 14.348523648165493 10.596247544203095 12.590069056664985
Se 7.619353400353063 15.643614840871694 15.728583565431926
Se 14.955317864701733 8.917880806539124 14.327952125582414
Se 9.46348046208323 15.818439838342005 14.236207514456297
Se 12.029554313490653 10.153010024578895 12.489416402490983
Se 11.251063815919016 6.504460608041932 14.831982167636221
Se 16.578248114402708 9.879981270001927 15.577924774475017
Se 10.80664908544474 13.947015162490944 14.529687570989413
Se 12.331544110276615 7.002975988837966 16.885528090000207
Se 12.568675831095021 14.956753650452985 15.977092315899544
Se 13.684379554971576 13.410278412913142 17.13755059686222
Se 12.056573915660149 9.365514509549914 16.962837327749128
Se 9.817559856560125 9.634147012983304 17.569374270584248
