41
Energy = -141.33843502 eV
Se 12.914631217030614 14.940259782148987 7.659306206910029
Se 11.962666633498163 10.623859447336415 7.447792524132781
Se 9.754159398551606 10.146870113794758 6.954218487155891
Se 9.02276924662819 11.985318339876681 5.5530514341621835
Se 14.510176882883096 13.51843084696789 8.266048472629612
Se 7.0407660729501504 12.919446404036584 6.332887392222254
Se 13.056217321486633 17.145406682108266 8.84618620199594
Se 15.063567066844628 7.875904205259556 9.347318210235317
Se 7.5042245780327494 14.784382562393395 7.776402412453615
Se 10.771170861421794 13.773158394157857 8.961302274533422
Se 14.162914973402884 9.910849046777233 12.264900506963516
Se 15.206215946227527 10.149524332128115 10.202483070511123
Se 11.941895946323033 11.93823231124856 9.543087391222333
Se 8.015507140540478 6.738184888700511 11.546318652435644
Se 6.59826545906209 9.610782233872234 9.619940745177361
Se 8.612266912076535 8.439008879967716 10.026161922206848
Se 13.326761957609493 16.78905115710453 11.114785201726221
Se 12.958264245595975 7.122309052655385 9.964716858896484
Se 16.365240532780664 14.745042396614028 11.883171645864325
Se 6.315426669042599 14.427059596704964 9.763800083340346
Se 6.203026256235144 11.076092663557887 11.41661757805442
Se 15.669461323675385 16.96870180947484 11.51687535247869
Se 10.375283577498333 10.99581528643686 13.279005238188018
Se 15.729514432248479 8.824714646243196 13.715668400709577
Se 10.494079773247961 14.75768496032231 12.441440473803029
Se 13.328536632113064 5.859976429037118 11.968163934182684
Se 11.81099223376811 12.849347242572748 12.926360132651652
Se 8.683584237821456 7.5538550194759235 13.673134882871429
Se 7.5520939941532035 13.004652856509974 11.225576471384334
Se 16.227118480685906 10.376945172659104 15.41191378364493
Se 16.7086828164851 14.556695036838512 14.207607130403911
Se 14.682991875151963 13.799968492433951 15.180982392665895
Se 12.440411731854075 16.948885874728276 14.745706600299895
Se 9.847872785581833 11.05489168009286 15.594264288225993
Se 10.329196345058179 15.923288927242186 14.504673069588366
Se 12.562272025915606 7.06978116367742 13.842084054622362
Se 13.699894908051734 15.647220272085107 16.272059383282038
Se 10.441557026692191 6.146805538980833 14.365987790460121
Se 11.222073032994233 9.599778037042379 16.81004101275069
Se 14.978154874104666 9.635003418795005 17.28929643789117
Se 13.043491103810375 10.900213327075804 17.672060426200773
