49
Energy = -166.38979407 eV
Se 13.778381224681592 12.067760089491191 5.57053072526758
Se 11.510758562692976 11.930722982323378 6.136496766425543
Se 8.367162997530482 12.0801161701726 7.287547873774769
Se 15.11693064836384 11.480566082366137 7.442788522055613
Se 9.647214569189883 9.196860653564777 7.395971145025878
Se 11.560212630831836 14.09253369257147 7.560551326923528
Se 9.356312554593003 13.822545571426385 8.47989279641697
Se 14.96344289736303 7.596889438692509 8.19550957177253
Se 9.456648442565989 6.997376543871705 8.416689866645262
Se 12.540502904174833 17.871618563501833 7.820574227795715
Se 15.992733493374166 9.314236596200676 6.975525781511726
Se 10.840199633225064 16.46228229780201 7.406453662066049
Se 5.664023991579911 10.399005976381053 9.17092044996972
Se 8.39881462274321 10.174594961404525 9.167538988929236
Se 8.58444522826046 7.911895523402264 10.371829701086863
Se 14.355645250009148 13.422357652071875 10.229305462438594
Se 14.866616403823324 16.563363783506578 9.647443359438846
Se 17.1682567796654 15.136293786791363 9.740575338395592
Se 12.099307124126057 10.543680292032326 11.247061858256243
Se 9.830921425871917 14.686188647028438 12.232192507197473
Se 6.810243152059153 12.72706864011487 11.89644677031443
Se 14.353056929027211 11.274058986644526 11.266662096187313
Se 15.328712811541003 6.710066404718413 11.952682868001688
Se 16.50727074412655 7.195273427759442 9.989998650786855
Se 5.239691668182937 8.5812989337875 10.444706414388074
Se 17.375525918876235 14.991389507589203 11.951533527032302
Se 9.37878799764408 7.5826539125150125 14.285662382134351
Se 10.389236194065818 16.81850291283935 12.976727743951123
Se 14.915993901937066 14.286196556023864 12.566230982708015
Se 14.6097096511431 16.71144467952343 11.896274010864055
Se 5.636849936294574 9.332382761163233 12.746381291897807
Se 7.629224442083344 10.485133996531216 12.49873440840249
Se 16.899544517379265 8.731072567936867 14.753293293046067
Se 7.810397224126209 14.093005909930218 13.477782940610139
Se 11.33436251578997 10.6889893330901 13.48608109783495
Se 17.79343723363986 10.872650058529144 14.34058454783888
Se 12.15282845933952 16.390770121581 14.51651373692647
Se 15.615905156828214 15.328955434222383 14.934723372198201
Se 10.443982233211578 12.788473902232655 16.172595419280395
Se 11.575021050661903 8.488608074066768 14.347340452346248
Se 8.60449962211634 7.510340109652193 16.506281111001787
Se 7.766954424797229 9.684889365567622 17.01344973279466
Se 14.935963597842823 8.535501888087179 13.42343556667511
Se 15.171002100441305 13.278705825586812 15.966499295926898
Se 9.537438028678569 14.901554396600948 16.740695957751292
Se 17.243795482633235 12.171207481714537 16.24166266934628
Se 11.032773544442472 11.475846382706857 18.01352015948593
Se 11.261515792817832 16.50835035706537 16.71737172595088
Se 8.97946519560764 10.536439679616574 18.8124487549253
