41
Energy = -141.01495418 eV
Se 7.941808014468491 14.763843114103306 9.445766508436233
Se 12.34359969149421 12.7111427136871 6.899779201302507
Se 10.472852374885571 11.678140607932864 17.349558948008085
Se 12.121365563258696 9.062796479177429 15.420632814942307
Se 6.934623862134321 9.963968302605885 13.839233837775385
Se 6.0402320257672235 10.696628671573654 6.751863741654887
Se 10.071272159332743 14.131082152203215 12.403203218630328
Se 7.261641311071515 12.670835039774998 6.445125820170074
Se 8.551705040040043 12.713246824947818 8.45245072454732
Se 14.546018673803077 12.636481185939036 6.015039832005142
Se 11.000549575546573 12.012252403818477 5.080650422666541
Se 9.313152406067758 13.519637344834905 16.057965874787236
Se 12.473239212972166 11.304542674091971 15.587341612912718
Se 10.877622799548034 9.663535458893257 4.982115505023619
Se 4.1389009136145365 12.354833564950223 12.539948995462044
Se 10.138548178475128 9.015774858216759 10.258967824178598
Se 8.336842295957766 7.537065590196318 9.728499940655055
Se 6.347496896031481 8.540600460138855 10.467292303382555
Se 14.056971467184994 6.45502950248009 9.190040151979431
Se 9.323396390798992 8.841780980492471 6.576305770888995
Se 5.223048363692443 14.481481273541183 12.379986151688344
Se 15.705939824437479 10.894666093612427 7.123345106732087
Se 15.000145220678444 11.589636997533846 13.569613341307237
Se 16.288595235825728 6.583423311069459 9.962920901990621
Se 15.814660368292273 13.57644422479942 12.552696878585538
Se 13.264698169732533 8.460118072403496 8.229294624274596
Se 5.655393845672829 14.809984169802632 10.098344456725087
Se 16.6092893608097 6.9207344019265005 12.26950441976989
Se 16.849964146687714 10.259624825844494 14.203955737174578
Se 10.83557390151397 14.550606019950948 14.65020179317838
Se 10.273679626373628 8.506898902714171 14.018742157979347
Se 5.006277666948376 11.225535501096086 14.3959400480837
Se 7.221440505467839 9.050263177182542 5.510094875353824
Se 11.268084861927754 7.836854842851066 11.94334022173046
Se 12.993291597143855 14.245785882313328 10.147944110439338
Se 6.14529789358825 8.0167683514248 12.768106652457822
Se 17.7440369698772 9.014079279233847 12.427315405451814
Se 11.455304043489418 12.700729067472759 11.184639865105812
Se 9.39490054782099 9.735687057010693 17.21479610336887
Se 15.098512979382997 13.238370705167796 10.329011153239549
Se 14.720361519973324 8.887736981384375 6.3974506229956045
