47
Energy = -156.5542754 eV
Se 12.800925044782808 12.610910687670792 5.968711825594055
Se 6.783134289987409 13.78101412590724 6.864007234596557
Se 13.035696401515724 10.396292255993572 6.710554757744154
Se 8.923096691666016 13.048944969824646 6.348869484156943
Se 10.23035738655925 8.284128151612958 6.460079541144237
Se 9.039049058389903 9.879155325396516 7.6615590031155865
Se 12.35666181358004 14.271830405386993 7.679664631535339
Se 15.379722860961174 10.146325541425803 7.432759938889062
Se 10.84648065669612 11.240499756179862 9.118129247541834
Se 6.0375634209015105 13.059390681288116 9.014592818138993
Se 11.465862701846168 16.753858149629224 9.239341610986747
Se 10.013035613316035 14.67874710223306 8.084666582779061
Se 13.453960062669474 12.00398583619124 10.379590584136226
Se 6.867414574502144 14.950509638388272 10.3629377136102
Se 10.101856471217179 7.797395734252809 8.9799647140208
Se 6.486990457998357 10.20030417593219 9.970266944631579
Se 15.225587211870229 8.164870401590072 8.640596316896085
Se 11.800088179240714 6.330919482782737 10.286749209428828
Se 9.626802357798333 12.95395281469373 9.966784218891995
Se 13.21790540341158 9.74765161395576 11.249147228484171
Se 5.34782116858068 10.292023189508429 11.882565597931293
Se 11.661642796147559 16.593814426925938 11.548110695934675
Se 16.485376667211607 13.711766234975936 11.195569084757098
Se 15.31692910031005 8.790723117553148 10.95478259055263
Se 12.754442570264487 13.388047630551162 12.063200030351656
Se 14.944662778031622 14.702614078589761 12.677316909864093
Se 7.1180602055848 10.796604366286493 13.597146171050655
Se 13.885576035051646 16.928965590824582 12.166333146136266
Se 6.996353977650473 14.655891163651273 12.71510366366367
Se 8.91651618589457 8.281574598498885 11.441381118846381
Se 9.206036585128938 14.380759935191387 13.790818723358088
Se 17.07701849167842 9.528009245771308 14.188790542208364
Se 10.45864931564403 6.5953356732523485 12.173603566860232
Se 8.975468637994833 10.767910095003472 12.293630755901194
Se 16.413989774845117 11.908993994537072 12.711191142463516
Se 9.623331711355286 10.78418615843852 16.284744779274686
Se 14.147619296701473 14.187650754729 15.963583873876297
Se 13.765475047132806 7.296232829259415 14.36537916007064
Se 10.948871123995712 16.13184140338365 15.222302024906215
Se 17.422091313759648 10.683371430168084 16.250464238916884
Se 15.998461103596632 7.488126130394059 14.966473704282258
Se 13.8398637715664 11.859561239379707 15.714396531318428
Se 10.49819844644177 8.966987470439124 14.946570001214624
Se 12.18402115978595 7.754972959996411 16.0914263189121
Se 15.280305307979656 10.748633609468854 17.223394333194776
Se 10.387228052047995 12.860981680247342 15.673547181215946
Se 12.059973605617962 15.019909031550815 16.88537539552533
