42
Energy = -143.00978044 eV
Se 16.592379518472505 7.258438600671159 17.640222119430664
Se 12.840487587621652 7.00624775134985 18.206750029511316
Se 17.20297472297033 8.733440519715074 15.904189699669232
Se 16.209453511070603 10.809326975513404 16.43182865557462
Se 13.91340498588159 10.352963138938458 16.04462054261278
Se 10.977161662230666 7.183642395656561 16.790012327981227
Se 14.67734608380031 6.041795945745501 17.01523234466975
Se 13.84175021142219 9.846825714375504 13.736524296229277
Se 9.474879059844461 10.548531491522606 17.51609129717942
Se 10.566430823260914 9.3099897895288 15.812038497750086
Se 17.673730375261332 10.690849400394127 11.544947898172895
Se 15.948671711775953 13.886409399216507 12.779560977288313
Se 10.992622182403 12.348626830418494 17.864533615006646
Se 16.833741532623034 9.326636322532252 9.838392998134074
Se 17.4808509427462 13.043065259301303 11.220607082742982
Se 14.863492150130366 8.2680540992058 10.78888013273203
Se 14.327309881418994 15.414326320661656 11.653176642065324
Se 10.749774287421145 11.530149786007259 12.462118125975007
Se 9.821469865098946 14.313328985757984 17.378670231247902
Se 15.602544202313904 15.866483004801482 9.043730383980435
Se 15.083457442693549 12.272820165814833 8.206040547862036
Se 8.391131516365546 17.046136654421467 7.799281252810528
Se 6.205729892857327 13.739031383284251 10.113602065512582
Se 10.410441458903088 15.801062185930665 7.6764416043059125
Se 8.876824648830757 19.132835136710227 10.879384371119718
Se 7.809633555326335 17.090922001556866 10.06375949401228
Se 5.455689118496662 12.68815932710977 12.104855881320626
Se 7.0198867425360465 12.072828656657801 8.656555455915838
Se 9.374377670940351 12.248664244562178 8.689515528516477
Se 7.435809553224446 14.544715656628503 14.608336646227531
Se 7.164086978637185 12.337737064773172 13.655009738866802
Se 9.883736629663073 13.663203072844206 6.84529922427992
Se 11.063678887574662 18.782037629302565 11.17610535204038
Se 9.713508014325638 14.76329716242475 15.027803713315338
Se 12.619558363908485 10.149595770844288 6.23973930623752
Se 14.050814553490772 14.56271694923889 8.121992319151978
Se 12.174554282886797 9.797672602645457 8.484785270557365
Se 12.60141397521663 14.333260064315523 10.732815030800843
Se 10.238986395544035 9.813139441253242 11.084628496332476
Se 13.165473185374593 11.803447601687418 12.581993626774146
Se 14.778588625448142 11.350061862951458 6.149705972333683
Se 13.470586585752113 7.805967009493154 9.00866457951627
