46
Energy = -154.76971603 eV
Se 21.423916774206774 10.714382441446118 14.166878581527145
Se 18.560733034076236 15.52029293194571 21.36405706167031
Se 20.16946298979588 -1.5169273158260295 12.535217225933872
Se 13.060839580835145 24.316503397262682 14.32249402366237
Se 19.771651219655425 20.172534970207757 23.64496094063998
Se 14.435766413239628 11.364179086428692 16.431767708917757
Se 20.68614195800549 20.097988597984802 11.493322060197038
Se 21.61294741697412 18.51735691612319 18.467968762901343
Se 10.96316333548431 21.892490314182417 15.364670194692732
Se 21.802819268199304 20.147051318665177 13.482304159226155
Se 18.673985657131 13.39151417141173 13.29177402094978
Se 18.0851291826042 9.252131999146371 17.781647405373725
Se 21.52031373247146 22.613859073235727 14.07824397483822
Se 20.298865620704905 11.922584243531887 12.480578799809207
Se 12.813357587113757 16.29586020987343 16.024203152393284
Se 11.387794275814976 0.522128795708487 15.645698899081882
Se 17.67518949245443 17.762503473004358 11.860124690343039
Se 17.971262445790558 16.803136228181938 14.041889972902275
Se 11.60096217646958 16.604931982278107 13.863040689261362
Se 19.977013618228895 17.57042087015131 20.82630051581384
Se 17.379691198463068 15.843075243440504 -0.0025540951438241936
Se 18.671980822925686 19.25427250144884 21.75265753594437
Se 18.723578056655512 11.090945605675767 19.116841448551266
Se 23.655795904320975 18.695132216870928 19.296294661177882
Se 8.347594510544003 13.051722537802586 15.368450243805807
Se 16.27163045169343 12.384128188716504 15.388385284890424
Se 12.654965115450182 20.722188131605172 14.068257179107793
Se 12.507216751831065 12.490839505318661 15.531368910529924
Se 19.14539480106282 12.877699618145874 17.63530707538164
Se 9.300206189816754 16.614294809137256 14.249577203164845
Se 9.682855215889099 23.9490066804556 15.562651380341723
Se 20.142262010011706 8.726074492573641 14.54861559488311
Se 11.835532221393493 14.139258147444574 16.99952570966227
Se 8.429768961708858 14.564533078961139 13.480141706859795
Se 14.837123489470253 15.891382536192435 15.137079179114636
Se 17.102549507160212 13.900421269485278 17.033827137255102
Se 23.350966986011894 21.024110046022088 20.370031571421425
Se 17.642490992779578 17.97847531595723 0.9376935556712274
Se 18.353885015557477 19.992618412783592 12.042998199595276
Se 20.080081624884723 8.355077158677734 16.856247854639747
Se 14.3436568931255 22.26390753114838 14.151134591627887
Se 19.840752041017314 15.424285490152526 13.963422249741106
Se 19.873657015553317 18.53976305416619 0.3909622860714595
Se 9.628403458805115 11.277427270305925 14.840533703518728
Se 21.263406930492682 21.355119359743206 19.768627622228415
Se 16.76210876042606 16.133825608475135 22.64914866874723
