42
Energy = -143.57442297 eV
Se 14.126726739279166 9.464139618542413 6.76837089046393
Se 6.778133542226333 15.153502963455816 8.051838949446637
Se 7.855208531003945 13.044622722467023 8.095403364965433
Se 11.371047745607234 14.236571979642907 6.95088974797433
Se 14.200828361825367 11.796601486818009 6.595931271688145
Se 13.525592072437925 8.632388930733073 8.923632495404865
Se 12.194624559290652 12.551099551717082 5.5398058576209745
Se 11.599695033083625 7.338043973575952 8.484975437180216
Se 6.727972293073342 16.00192448335858 10.254868882312655
Se 9.670663584621478 10.965762716066097 11.60540251812592
Se 10.126402823334246 13.249699775121375 8.704485296107189
Se 8.07634480857328 17.958511031372186 10.094523382030044
Se 17.4160566868746 11.775293549370872 9.78629869327082
Se 9.592433268732346 8.280092469856063 9.347875582552442
Se 14.223478802114784 9.4742577174231 12.825445464343593
Se 7.3987128885256395 11.443476159542445 11.239142714313761
Se 15.322707495795878 12.606415879156671 10.476907686538883
Se 10.1863053718329 17.257752435575515 9.380956405894175
Se 14.77678946978306 17.288794894287005 10.593473706430023
Se 16.80730592653225 8.13157493662434 10.480867236043908
Se 12.225301606304 13.504702460611805 12.776980301251982
Se 16.351676305554463 16.102343147836166 11.878435567858924
Se 8.850603491354043 6.7045753879643035 10.955741582263487
Se 18.13405681050833 9.975541779284749 11.14169361020453
Se 15.573924905312007 7.586853708322255 12.435767691068838
Se 8.03263475939387 14.025353497158479 13.243678868133905
Se 10.250933080765304 12.633005086047902 13.437441271711723
Se 12.915264534907953 17.78369600124022 11.965732143546294
Se 6.207224956993471 10.742317859224102 13.101085724433455
Se 11.333302523150003 16.19845687100553 11.203966088868306
Se 8.597033393454682 7.581433931374392 13.154093135656415
Se 15.616330286471905 10.749080063887693 14.255144748297631
Se 15.524839238372525 13.946566664259551 12.419695219100598
Se 6.913385248967373 12.632742097741104 14.638595153543754
Se 11.766164899477701 8.097752687381563 15.756826588290378
Se 10.05095082458591 6.564005973291198 14.660937032347027
Se 11.776393162618305 12.658970824009636 16.86361826502548
Se 9.792328254391322 9.49889546125125 16.544777281549496
Se 14.050339444692275 12.312371117211116 17.38948566162281
Se 14.854744078666492 10.307629330139795 16.465867383670407
Se 10.636059460724969 10.97642342982494 18.108450435577875
Se 12.481760742531364 6.679037359973237 17.313172677016208
