44
Energy = -148.72583808 eV
Se 17.824135269050572 10.525675459192954 11.755891723181751
Se 15.770499992789793 12.953348350792492 13.590402085870481
Se 16.37320122418616 9.27493780207958 10.280771053010904
Se 11.69124457037064 11.862844325000356 16.109191441037552
Se 14.604589366512322 6.515289251859492 8.148007330089083
Se 15.130422811071993 12.30946191538496 8.29563924650256
Se 14.112642892849207 6.386933292783183 11.933652560018675
Se 13.552762086802941 12.65981623994325 12.766716467098881
Se 16.684215246727153 10.80153640825151 13.7837035688861
Se 14.439149259986907 10.5414724731427 9.99429326464713
Se 10.206645534493392 10.152068284998032 15.510915268538406
Se 14.28233947961331 5.051319345378929 9.987271473681155
Se 12.71833364317033 6.58521624760447 6.782651305492683
Se 14.83311462613255 14.336719065172193 9.137334406351815
Se 12.102665951827282 13.477230609582229 14.425018247303605
Se 12.033805691871908 5.932926424923986 12.96751348697886
Se 13.091520747788383 12.155394422231703 6.760073790452653
Se 11.412819027951203 8.623919683012659 7.420017309481459
Se 10.430005815281604 7.507737463965189 12.31409198865557
Se 7.9603961849058065 10.858308842744654 16.001864268387656
Se 10.858548375020716 11.635703395625406 9.968242587337903
Se 12.992215401136217 10.04741781423355 5.8848446851428236
Se 9.656971248804604 10.982649086413954 11.788779924078861
Se 9.560004995383018 11.106102414590284 8.003619314487617
Se 9.133820624669859 6.202113732148627 10.711858259273026
Se 9.151044092743573 14.79461153622836 10.990793599909027
Se 7.090108507176525 15.445070222614302 8.099669088551922
Se 9.735104687402636 13.058131468823262 6.655749386692006
Se 6.78477424684672 7.954086232811954 14.606626332120326
Se 6.922169101684669 7.783339485060468 10.803130722985605
Se 9.810680387502387 7.910859518914836 5.58024132516924
Se 8.819211613632737 13.366951872030262 12.794538333596758
Se 9.248387572806333 7.174309616300054 8.553218266768392
Se 6.679149990063143 14.218471319880114 10.142573094560099
Se 7.501916464555129 13.820277417411555 6.461660826937115
Se 8.18874571502379 9.458482520377519 5.078224391638805
Se 5.771251949732036 11.085607943947112 9.43145417405738
Se 5.711785618992034 7.043542490259968 12.74439154675014
Se 6.760234652695096 10.429417924272126 14.036953600048294
Se 6.210998836002863 8.698592659405548 6.273683217489315
Se 6.511545550630337 13.093580133122368 12.931424493330644
Se 4.428037610945573 13.000256925790309 9.563147897918066
Se 5.116258914748793 10.58806830783994 6.986572188223715
Se 4.92031165776273 9.381611741086765 10.870267438198677
