46
Energy = -154.74210868 eV
Se 7.24644893379062 6.756891608922439 3.060771584736086
Se 8.059095774373676 9.277563429218072 3.3927128502893216
Se 9.458998932502485 6.131885879670674 3.3182477125991925
Se 5.996619787610809 10.40906817967324 4.007849237914098
Se 10.591426218163384 8.125182081067416 3.471259516280116
Se 4.255265256727539 5.096080982117928 5.958779460602233
Se 4.124901339069693 8.255975668207075 3.6578477165196515
Se 5.915903378799091 3.7729990937070026 6.548951189004945
Se 9.694464100236697 6.459225074848299 7.381739169969121
Se 8.666206919902695 10.328980093943235 6.756535878658497
Se 12.065179927078182 11.693108266796562 6.080418069683233
Se 10.897270169031506 9.640073098923596 6.349513774356311
Se 4.984028120664534 7.817680030645827 5.72546630299465
Se 14.142737745640558 5.192201620391465 6.932823382121449
Se 5.956904025839984 12.367455188067192 7.205893926199035
Se 11.183791374554318 4.7056528634676456 7.026964961770216
Se 4.189265023636028 12.097210919056423 8.721777334395043
Se 2.8170160622616907 5.21937903348514 8.161240290145715
Se 12.216684547547649 12.589024573019381 8.257732946902273
Se 10.819556643800475 14.48099519071378 8.316610961614183
Se 8.16896384466836 11.678729389195619 4.157986910341272
Se 3.270743978471826 8.80161585960938 7.1977352916618615
Se 14.331056944841947 7.7582284191252935 7.125027752509218
Se 8.751131267974985 14.072101387732285 9.414278489798246
Se 3.8126933059160866 3.4949531960387383 9.272335850732087
Se 13.542617954664394 8.491115725545539 10.92156206080661
Se 3.978425205093307 8.225365081063766 9.30317797067541
Se 11.571109215749557 4.599579721072074 9.628609144492524
Se 14.52422782498305 4.54605546092591 9.019631918593836
Se 15.20725115052001 7.947999231741722 9.223005191723239
Se 5.044417635189194 10.425006816247604 10.343824023289766
Se 10.081137046992458 6.436870907556805 9.823010812574791
Se 5.141604427843094 4.910514473095185 12.589403339324182
Se 11.545968970474224 10.455900734684414 13.176977595275423
Se 9.927502372148464 9.517412017868045 10.538637895885001
Se 8.284630483960392 9.108930473814851 8.900257595686972
Se 7.019825191184984 14.40423913119357 7.8517720050793
Se 3.7778385514493733 10.685409079724831 12.17301758433905
Se 13.53164475385524 6.618994238928593 12.314604879579898
Se 11.464981411836535 5.4598644925561395 12.122443168481905
Se 5.768374044352231 4.27712503981195 10.419534196088648
Se 4.868932098597483 7.277793198652032 12.462514593254935
Se 7.740196518776047 11.334605333843452 13.301776803889723
Se 7.913730906453697 9.140046780062375 13.943419960283
Se 9.961327376633566 11.567766700743327 12.039434293440047
Se 7.109557208019982 7.968798205108615 12.024538377319606
