40
Energy = -135.54081905 eV
Se 11.306243345522635 14.074674749994365 7.653139995866528
Se 8.307214621209715 10.307503399844457 6.688755330641465
Se 6.083746878793983 10.008476477527823 7.3497862925479955
Se 9.218425102201742 8.305431916937781 5.840307563924876
Se 10.50124252648411 15.860541379771135 8.985464574688706
Se 16.09205741495086 11.954510295851383 8.99609525644177
Se 17.715368141287374 13.045055618721763 10.229440403928518
Se 7.848327224504789 12.587028008166383 10.458166731593417
Se 10.831711908776112 12.03431827644375 8.70707915136587
Se 13.0370219507666 9.43375180278012 7.436149318669865
Se 10.099907370151868 6.9719933195402595 7.595374142906836
Se 15.90406157107353 9.709803864349007 9.90180835000257
Se 6.2220714733538145 9.896771911552028 9.793023184837125
Se 11.44224057661541 8.43812651866547 8.880377649891237
Se 12.20303110436163 16.029274352052695 10.645407548543515
Se 15.191658574780462 8.59464699206757 7.851725114844535
Se 16.922311107565175 13.65272362257493 12.474667838960679
Se 12.759041282963022 12.245651477241486 10.276213454083477
Se 5.854641809301613 13.37549078097438 11.040319306803129
Se 4.4193344481380255 11.047097019556865 10.441992328203582
Se 17.18041406161828 10.801179016042605 12.474601343991434
Se 6.732573928235871 10.982410860421867 13.656550802501027
Se 16.821940374444416 16.146380913520446 12.445359142292773
Se 11.255866331059638 7.707583154923039 13.42776330306402
Se 14.529760298778562 16.48802828170605 12.873711530566343
Se 13.31213348785649 10.348788948815745 11.395166961259855
Se 10.770074680691968 7.237756736412535 15.672667648748272
Se 11.116639210025129 14.619490391467359 12.286654416624156
Se 16.22652357444819 9.900230072637502 14.41556291054681
Se 14.342563777592886 8.519107371298816 13.906235704364539
Se 5.612359479050075 12.976090377369285 13.556707282894406
Se 9.019123087753092 11.425795930013825 14.186409467181011
Se 14.398725771339887 14.226150060116295 13.916782012130799
Se 10.822269855938202 15.869609531619892 14.17362488517098
Se 8.724254668927884 8.313836158597 16.156666464935064
Se 12.414801618347713 9.954030696087733 13.990086498458979
Se 14.056657640178644 11.766901982754163 15.411892273141826
Se 9.1624111525441 10.624491062560534 16.412414782184246
Se 12.86973793198666 15.20372564868575 15.568340072621728
Se 12.421881810658919 13.065912194613848 16.577880132854766
