47
Energy = -159.23625979 eV
Se 15.114174999746053 10.510169367828889 6.23969375847278
Se 14.61224752847153 13.31313022949217 17.12127405651069
Se 15.863202062983252 8.907075270802613 9.4700379238796
Se 11.85631469807642 17.723341800920522 15.129456581596017
Se 13.641184307871654 16.82150046374791 16.19680061359049
Se 17.269953413316422 11.220217530124268 15.597730078231018
Se 8.279848436507566 12.34144726970832 13.168376832115069
Se 16.694522091352965 7.714398739007172 11.640853543528475
Se 16.674135383135233 12.75647952329557 11.352971909957779
Se 12.193714205134238 12.212973158108115 9.620078496333454
Se 12.377062095644662 7.3285690843143945 15.053950721538868
Se 17.153262583530662 9.422703184498788 13.114270106066222
Se 13.181286845214421 11.86119105199452 5.896406915264772
Se 6.912407553311655 16.273775690316036 13.289535480597129
Se 11.27240019175509 11.74173758433135 16.106442451963094
Se 11.564934562609569 11.350580972141739 7.556474427437848
Se 11.581910006703165 11.281660232647441 13.776021887250714
Se 13.124232088707371 14.990795817930213 17.80536949300496
Se 17.913355182552326 13.367051114790835 14.971320951987469
Se 13.314910978761224 11.244733313782275 17.079743737828473
Se 7.963515219233298 9.460547699146057 10.164392258869125
Se 15.78823988425325 15.229131612356099 14.902909300961712
Se 10.431515882022389 18.28122508978452 9.322885921018063
Se 12.079255411028976 16.817254944636503 12.323885354732882
Se 7.218655356497408 11.954858443734896 15.186359019721161
Se 10.37140610005562 8.504240620900894 14.756511522879054
Se 6.828779318233896 12.919610100209677 11.377752965331123
Se 6.109289890001182 10.810261785109796 10.467725545972188
Se 12.906397559450763 10.127594521862889 10.840373625383837
Se 18.487163791252726 13.383182520568724 12.574745234154783
Se 15.332142619231638 14.888586542274354 11.102692422983887
Se 12.085090040298118 8.405157071852257 9.656518880609745
Se 9.496007594373143 7.086009509547009 12.935417630059725
Se 7.8075054225995535 17.952218213955597 12.029445173165891
Se 16.774189745186025 16.583917907397286 11.424386374490483
Se 14.5344357610634 8.292962418858938 5.973363197319768
Se 14.302127288784561 7.585975510054736 8.439170937292314
Se 8.7633694533935 16.854434840618264 10.036437968185496
Se 11.165321642744509 14.63587345663702 12.029499371833413
Se 15.139271651702114 9.844151204499278 14.381760884631133
Se 7.569098985713783 7.995984561083726 12.1104304918442
Se 16.902800425581496 16.95915147509255 13.928303241757241
Se 13.968233218192493 7.850963864700398 13.383934388853278
Se 8.529439097286769 15.513137789648644 15.0457887982536
Se 12.58379971687636 17.461309161521363 10.06107510711923
Se 7.028985413740168 14.24196470735261 16.179935468994213
Se 12.850638689366425 13.07195601624119 12.825126113865794
