43
Energy = -146.97028055 eV
Se 16.073886468217502 18.237959193089655 8.617419957285742
Se 16.32422260826562 18.738218024100572 10.958910244165784
Se 14.758748042385195 16.010059534893383 14.485520186874856
Se 17.521082259570477 14.364284816673653 8.55813650702755
Se 18.251127232752907 14.528373991311827 11.19645486563781
Se 15.59947229827618 15.969324369830474 8.534980949040936
Se 14.34196593266451 18.064958674085318 11.944548870603047
Se 14.114325232361178 14.046873449487931 15.57847755755686
Se 16.115038665243908 12.639365021172448 8.727019100404362
Se 15.198054671888205 15.539832798258088 12.118014873737414
Se 9.256532150621755 14.813077141795905 8.892983300426408
Se 12.897688321693414 10.371178143449457 10.708453294104253
Se 16.59080452171309 13.179124781848436 11.905586436260945
Se 16.023946346944786 12.951518724762117 16.47308250039449
Se 8.707470034705755 13.436726812427949 7.049609158022535
Se 10.683870952484524 15.311075577525726 14.213544864884947
Se 12.703621084200655 11.743802400733824 8.739104088165645
Se 11.407736027764113 15.844710792320624 12.003305363243552
Se 14.982794039165997 9.425480172777688 10.662563696129702
Se 7.199418892955951 15.426032040163625 9.866889216947499
Se 13.126145804617742 14.377217000052466 11.465169700725715
Se 5.5151318924871635 7.332469423972892 14.54019241354978
Se 6.831080715447488 9.275410595635721 15.87973821459443
Se 8.886559859455076 7.870495983327485 15.727511230189943
Se 11.172496611174433 6.011505774383017 10.83543639095084
Se 13.202775522222922 5.7095492807779795 11.710282342703263
Se 5.222670889553693 8.559650924718586 12.652129579381466
Se 6.827447361414966 10.948301972737053 14.411941266355251
Se 10.465484096987428 9.014690739209403 17.002549309290586
Se 12.588453255505469 7.5028159070639795 8.48531169526746
Se 10.189897673227335 7.737473851857216 12.296809584145384
Se 6.678287438236124 7.71411368066601 10.935309515870713
Se 8.70719418610418 8.916205668658021 10.931466040962968
Se 15.190099455786786 9.319344919439626 15.754704262603612
Se 11.577660880197516 10.504928052873884 15.520135538689745
Se 9.055053266163041 11.230396965792131 7.805525940313831
Se 9.257726919255726 13.439877274998459 14.071950727872276
Se 11.278405659400441 10.687694012809054 7.199506465091117
Se 7.109888398603401 14.319023695431545 13.551485356290668
Se 14.460427167432288 7.155861345771858 9.597996565021951
Se 6.58079712651144 13.687122512817652 11.346999948439608
Se 13.243250020388222 9.243241724101853 14.417546854208572
Se 16.44854556027395 11.167917776517244 14.992981570889551
