47
Energy = -147.68090004 eV
Se 12.422582138880491 12.821825250850303 6.44531636260408
Se 10.63404080280019 10.327747738805371 6.803889805617611
Se 14.428128239560554 11.763606728991741 6.534418560711392
Se 14.037657275703872 9.205853013122315 7.93270342079371
Se 11.541222211985332 14.193876058268497 8.335250439904183
Se 11.237666601374142 8.075255140102698 6.8759951740188585
Se 8.264440766505688 13.972999238505968 8.897486402067392
Se 8.769737341795839 11.802187946850307 9.000659597818347
Se 12.568174046769052 12.050950337308743 9.98595242640302
Se 12.57192360675626 15.788675386160515 10.28144838774977
Se 15.393391181165635 8.117764584614314 9.581740107845377
Se 15.007352330130445 12.86952274654565 9.241599496804241
Se 10.623281865545076 7.505165102376931 9.32337591151818
Se 7.5164077437591805 9.502514117893924 9.691212877857371
Se 8.660127846702746 14.350382207882939 11.536195106715473
Se 15.22344471157007 17.04407071302063 9.848121703999206
Se 13.159457985628093 9.872197619182094 11.191928524067254
Se 16.09567336988087 14.619069402223884 10.476283669028843
Se 15.670686215570937 9.72666311043432 11.443208971027337
Se 13.867062635344709 6.283746377767563 10.772563594308671
Se 8.46374439435809 7.31595362476658 10.104328426920896
Se 10.46123154206744 15.76640284107306 12.07927873065085
Se 7.614776565774173 14.570873711689394 13.960023487921601
Se 13.898593581526281 17.44499412258875 11.805931607416051
Se 13.745650394269639 13.710185318043337 12.26224311064628
Se 7.738553899045647 7.144611600080145 12.903311479081985
Se 10.301137008786359 10.034384581011702 10.829983901624534
Se 11.778960806909293 18.237401545929586 13.366260832978396
Se 10.402246224944664 11.880197744771605 12.471694836258923
Se 12.199026746850622 10.835077834859389 13.404229009739476
Se 13.069710986015181 7.0251186082061485 12.773220326232018
Se 10.082989174444133 7.514444548865757 13.40561563301672
Se 7.4061875180930485 9.815202303077628 12.925875842515843
Se 15.821183748316955 12.26721015030866 13.32891327866716
Se 17.420642610266178 13.858897119324494 12.719096235166816
Se 15.256290502756602 15.6357828740313 14.227818303166503
Se 7.152878275327486 11.49398501697463 14.59353214846792
Se 12.010111452458258 13.807590379586616 13.836330010897013
Se 11.187573817167124 16.540444692439813 14.871323306605412
Se 9.240605906435443 14.64564636481686 15.44436533371034
Se 13.326402339278193 8.472751903241013 15.997588945738917
Se 9.811434653569446 11.366709968685045 16.18522682272164
Se 14.427061437759281 10.561501365291871 15.445426245442686
Se 10.952510381190578 8.436258109815904 15.864246478708953
Se 14.34643969645609 15.223530345271024 16.117175159831284
Se 10.55063504939306 13.17612935262527 17.635728458475814
Se 12.726548976461165 12.410227759064984 16.327468113884578
