40
Energy = -135.65835517 eV
Se 10.44700188865611 12.812596122406719 7.1264472559934555
Se 15.471376603075132 11.434882251411185 9.214833719138008
Se 11.862351990061155 13.554459819424302 8.672757549283624
Se 14.497716148653794 7.995363825246452 8.052732994962337
Se 17.77042183442602 11.895245199745528 9.111709643701968
Se 10.106900207421365 14.858570408072277 10.31122738388836
Se 7.54609183651563 12.343772899375839 9.24878491442033
Se 10.010509006651226 8.24381865714287 9.343531487387992
Se 18.56528187195949 12.016779657443982 11.338051124884664
Se 12.16168969987458 7.096142144309853 9.133503053362588
Se 13.109993161543938 15.443461694415763 7.577778430442878
Se 15.249536936070802 14.832944208050813 8.219198908356974
Se 12.118494482586959 10.961199139385025 11.17959481907487
Se 8.337623728024354 14.603482235126124 8.930379913648755
Se 15.24450910408472 9.049423826264155 9.927578901222718
Se 12.128875715935852 15.464256050789674 13.430631363328859
Se 10.09538988145237 11.592507055500931 12.148663199857278
Se 13.871267244832065 12.444911341939894 12.117974093910927
Se 5.805528285861993 12.412521383440161 10.820520371557228
Se 8.595670692775986 6.866855629409893 10.65645994749021
Se 6.882821213422018 12.077438357939466 12.920197413901748
Se 12.921453439749824 7.4580491637756605 11.4123719964799
Se 8.194967795706674 15.749889995026509 13.285574149756458
Se 7.843975621001063 8.078694420938337 12.534180151705057
Se 14.94897944429835 6.511841949535005 11.668353952334515
Se 18.54171673570288 14.218978131551966 12.185700146366337
Se 10.011268371581236 10.571927478498306 14.290210883553362
Se 9.688018599695258 8.226826463986384 14.004337842731072
Se 12.99594354648648 13.264228936358837 14.119888794177404
Se 16.16125904099624 16.409179732457602 9.791344696082534
Se 10.163257841877416 15.88996684472109 14.643679615438643
Se 6.697193013347675 14.124812739058203 14.099851977463622
Se 14.24377709127804 10.842653801565724 15.711294319379387
Se 16.398251908429927 14.40785872340378 13.13382223623126
Se 10.174491908468763 13.446099339684256 17.038332372143625
Se 11.369079829074069 10.37934724350952 17.995352653877454
Se 9.938849398007893 11.950033058596913 18.90910471919327
Se 13.525742889711136 11.646456498183552 17.66767839592921
Se 15.387837612604237 16.294206686705927 11.971141047700026
Se 12.376903142178723 13.99033564968248 17.517242323721423
