43
Energy = -145.46543728 eV
Se 11.533146136016292 16.663628493709737 6.373145447361409
Se 7.986468092890625 12.709692408473666 4.66952671028759
Se 11.664354853551178 8.930381228819769 6.358428627210412
Se 9.386972527585646 12.343275054380042 6.3427760970428855
Se 11.96125083752426 14.521192235914404 7.22777218565526
Se 10.774162875262146 17.994838440510755 8.18551564443602
Se 6.128070082233904 13.837820736109409 5.996173572467546
Se 12.824383824623926 9.685312144760411 8.263035707493765
Se 9.544426342876552 9.220215805395915 7.392623748484391
Se 14.20389120274311 14.482611176437409 8.077688510588828
Se 7.026428394909477 13.755917094393855 8.005810291288723
Se 13.487605175411554 6.134977932807737 9.725801214176471
Se 8.641454799162434 17.162518844532038 8.700495377189753
Se 14.44081147618972 15.914999553074622 11.63625687997545
Se 9.800743326219497 7.470739901901011 8.899693804336499
Se 7.682838948660701 12.381857458143596 11.601628852150018
Se 18.70138767929068 12.39338819917954 11.351730286628241
Se 12.884446059629466 4.87704158653111 11.509369933126846
Se 12.103239408999391 8.149286085304484 9.950322131499755
Se 9.174641655285505 15.396889152426663 10.200330458689775
Se 14.135526232013834 13.916952980849477 10.344356387282975
Se 9.856947958306923 11.621920245032477 11.220221798895029
Se 18.606475407681515 10.589809556652408 12.609204674881132
Se 13.904301862704822 6.442351510454297 13.680740683239339
Se 12.798882647380948 16.077742257813714 13.301413312441895
Se 6.442746307708276 10.401590113281019 12.095893728111557
Se 12.421351534511318 5.267812404182231 15.041188947039405
Se 17.79777946326719 14.04774663697175 13.15787764111954
Se 10.653096601202375 11.262325923075574 13.501995260875262
Se 9.120470261625503 16.323167871631064 12.375869636259713
Se 14.238512083120758 10.610144374845097 12.590441117601472
Se 12.779714085775874 12.239431631127083 13.541477382424837
Se 15.707405043056431 9.699989899183036 14.253575380997145
Se 10.45110903327154 6.6061531223339065 15.107913486299053
Se 11.092544224117459 17.58283444699896 12.626375429312146
Se 5.777965644944906 10.507482508785122 14.3473154265449
Se 14.620517514751707 8.056745516249086 15.507329163721977
Se 17.556365538708427 12.552415825829824 14.749118953197948
Se 8.200736778316585 10.851085173875713 17.250772747434628
Se 7.25798881860358 9.28169236702301 15.746507113609052
Se 11.470109413444016 9.176679782093792 17.89729906859086
Se 10.480684316578033 11.023761531279932 16.72701187407406
Se 10.16301525688386 7.318550514666751 17.342945032997722
