47
Energy = -156.31319988 eV
Se 11.598379466371437 9.33603295961683 5.356707980428611
Se 9.527450329151343 12.780466771843392 5.248747190911965
Se 11.781238260313257 7.118916764384393 4.491818907570307
Se 8.219499676678792 5.150209446053034 4.995118085830375
Se 9.531402061793253 5.940052830595243 3.3062682763044497
Se 13.262420718625147 12.2862059761564 6.271810305673183
Se 7.512928775316631 13.473340150698808 4.294585082838258
Se 6.507117951922065 6.74508146291319 5.48789355942937
Se 5.736179099448538 10.178454846171617 4.982705239932696
Se 13.858832099997834 10.12308265343591 5.808126027037715
Se 10.548780955777769 9.355042935757261 8.329128057476856
Se 4.13030948827489 9.406152581262656 6.36331119889437
Se 12.541546459848526 12.512156642106612 8.811453228519966
Se 11.699643546921589 5.533869459632019 6.3059841884308225
Se 11.589678168182537 14.701216784870622 7.863549291147789
Se 7.282004547780252 4.333486999362274 9.26697000129408
Se 9.432267788047453 14.167150771841925 7.257675639524028
Se 13.635003887881497 5.9443178329673625 7.5429687161189936
Se 8.345701484389545 9.540242155079666 7.190499995696599
Se 5.733227994757383 12.539710772584538 5.547826868878968
Se 7.12274076913158 7.564637015497186 7.6287340141602415
Se 5.432533590311298 11.554147126868433 8.841757875251293
Se 13.649899039190293 9.651311657693098 9.192351907561754
Se 4.78101716194426 8.753472755662122 9.996651607071998
Se 9.170985482406586 11.927026274713905 10.071126892565065
Se 6.627734211497744 12.644514111295429 10.384744696754609
Se 10.259991518032162 5.354492489157298 11.401572498339897
Se 13.086517189125503 6.799351242802787 9.798846605803085
Se 3.9690170555015727 6.080698911683561 9.735471539097157
Se 12.549884740220387 4.67965534564037 10.862338903204812
Se 14.142452327138573 13.42912331558295 10.07586650314954
Se 9.888059223481456 13.377543380506461 11.830813769888048
Se 3.4393228260821056 9.5434554749305 12.190689295064283
Se 8.828230611423539 3.360128398832058 10.618178502200266
Se 10.01499379596316 9.684776338363013 10.612672585057165
Se 6.774190225290643 8.310580722661218 10.919884834640435
Se 6.436401767757749 11.2065843674982 13.327729689065654
Se 5.626196033283384 5.167239426730794 10.930261314166756
Se 8.102960023550555 13.61287138579739 13.301875424951158
Se 13.297771057654856 7.9529412490865985 12.422852709144703
Se 5.079328410051136 9.163443640899827 13.695750103880085
Se 10.008143758609659 5.344346840809563 13.648064064568976
Se 13.738024672080732 10.036489370600416 11.510873633350093
Se 11.442760845376913 10.611430441328233 14.347688346133815
Se 8.646114907407142 10.75052970361653 14.244622040755022
Se 11.130656432616677 8.353388205357932 14.118136176414048
Se 8.678338617438667 8.31850906309912 13.965175679868963
