49
Energy = -167.84401229 eV
Se 12.154095560198828 14.562900948016441 6.724744710595766
Se 10.091609180796874 14.058149197036833 7.543277253753603
Se 11.130728379849623 10.937062206290566 6.778576727339816
Se 17.168727315802194 16.78505680658111 8.873179039328894
Se 14.945273824443072 16.044075437372644 9.100178207203971
Se 16.42765905622657 11.096308254036632 8.247111935742321
Se 12.443732340807216 6.293446729285196 10.439212853124463
Se 9.338989051190655 9.73459299326917 9.398934029457173
Se 13.486528776367132 17.849275029323643 8.649083354050955
Se 7.2955933307530065 10.603608631309367 8.53379700119745
Se 14.641010933270383 6.542699876364087 9.986785375038007
Se 17.98342369868096 17.363193782245254 11.013134873162839
Se 13.047498548784326 12.058083479075497 6.555736868338717
Se 12.11367353126155 4.61459077254514 12.150498744768
Se 13.52345763951837 19.330335245582297 10.481424279776098
Se 14.133798318057828 11.165146887402633 8.641019032896526
Se 8.574635526844252 7.888226358083516 10.706807339618338
Se 6.293113084611615 11.595415171701017 10.431292028549226
Se 17.479554801428137 12.67902260871413 9.721631633270162
Se 10.196246743929443 14.736344715271718 9.860212447588184
Se 10.271907747275739 11.630404172171003 12.184443091044873
Se 15.109430285471992 14.327049665929152 12.741264455458445
Se 11.593811650078562 13.172840068657448 10.887381019388604
Se 18.63326361883713 11.326462384155976 11.262380383056003
Se 14.690364025783891 9.031079736717762 11.182301401165889
Se 7.582250473259048 8.943503844381421 12.593853057696688
Se 18.66849791530338 15.269467862500084 11.90678545580858
Se 5.905699659007006 13.232271875222267 15.001948718637317
Se 12.608928738883051 9.082045285340039 11.976699724630757
Se 12.17818214640394 18.514172317983487 12.239366955476966
Se 12.960036666748351 11.737271796944395 15.02397621097437
Se 12.163602452821953 5.509684297256053 14.322455380100486
Se 13.729157057568052 17.81713489753078 13.88798696315811
Se 10.004100164025132 6.227801634878806 14.84155616180219
Se 5.528373349925325 9.72593035797561 11.657556981485623
Se 17.188674523425632 10.890064488262333 13.107242116974465
Se 8.073490850042859 14.0203161372556 14.462579083292274
Se 13.662057741834863 15.474288367996193 14.190688873853038
Se 17.255968621089863 14.740215978641396 13.712049452812538
Se 6.104130720608296 11.626545360972948 16.72051331469167
Se 16.489276067102878 8.67920956090618 12.879126595445099
Se 10.666687125451773 12.338981301695807 14.386120605889467
Se 10.190190092531301 8.666445592339171 14.847982839573937
Se 12.368399778434314 11.72793765064445 17.280941586446385
Se 6.56934986085717 9.44104874229164 15.957343786054032
Se 11.974541958342979 13.996840583501124 17.913030417479348
Se 8.807060329018896 15.495364679161492 16.1798549587572
Se 8.816514226260171 9.058133129761242 16.694903812326288
Se 9.627419353022999 14.250669941657737 18.01174570395784
