42
Energy = -143.32481896 eV
Se 12.780850496224271 10.362635690717173 7.876757068793575
Se 7.4739051115979445 14.352690206134477 7.16855116598584
Se 14.03732776823736 12.025397399849336 6.747112482051232
Se 11.315860472450096 14.071952117149376 7.409915361016835
Se 16.15104625045706 12.400436832564761 7.744366110009028
Se 9.36090695086541 14.927640424564952 8.456730239640915
Se 12.33509942628808 15.896020665535515 6.297726366222423
Se 7.040516319546569 10.578629740303528 6.529745278779128
Se 9.342926588496288 9.866856511304078 6.671639874194391
Se 15.906964809514088 14.206368680367056 9.241507565421724
Se 6.712758493234243 12.299295568485691 8.092343387743739
Se 13.16942243308924 10.327637020092228 11.477454094765482
Se 15.82648244545018 16.142227262936323 7.8820705097205295
Se 9.761557126974424 8.595912326161203 8.50158045889897
Se 11.893757366042516 11.43842766350248 9.790800748587902
Se 17.11690625060172 7.735896613159577 12.142999777387399
Se 13.61622248553772 16.958558941070272 7.974486472698854
Se 7.852333228400275 14.98279564273072 11.737942181409961
Se 6.643982119139987 12.046620482208548 11.598273940119826
Se 8.328754426501513 8.397448185858469 11.673305583074505
Se 15.112053591911636 6.618195278947577 11.648936268336408
Se 10.520061592322426 7.539498435656258 12.016688963027587
Se 9.982843368994015 13.90778360657651 12.729280184770177
Se 6.377257963379369 15.35314178265384 13.358795754485882
Se 14.812402655558484 4.885995398161051 13.229920066917822
Se 5.303030743789317 12.766127351449342 13.192354392482363
Se 13.170984733196986 12.71911088430242 15.151523442015282
Se 16.60203200477601 9.71100693162423 13.414523711952363
Se 14.524130471226325 13.542903968983286 13.271035143738914
Se 11.615901886158483 9.41754029818423 12.97125111880725
Se 11.580379068944524 15.458326196686661 12.723188550532038
Se 7.453579912899568 8.504195371564123 13.842860623438474
Se 16.93812894017933 9.179813568020643 15.701295748231972
Se 13.318966557898605 5.6562059697334846 14.884891396900933
Se 9.271374030704976 14.23347133318091 15.464102399942568
Se 16.626171214857262 12.798515318604528 13.575198243859171
Se 6.379859521971885 11.772738740731906 15.371020814703641
Se 8.196923947297522 10.730435982876017 14.505023284584183
Se 12.92167818832786 14.521251759048932 16.544153492020182
Se 14.84219482082463 8.707109499146366 16.65335648548988
Se 10.914765171499182 15.724203976988273 15.711477592411395
Se 14.587644412207398 6.35892573975732 16.74375902240348
