49
Energy = -166.1782975 eV
Se 10.41172962844912 12.109817882990056 6.174265758354244
Se 12.726682718733276 14.501621207520449 6.4192563040187265
Se 12.057279658679942 16.349035390887448 7.589445129202026
Se 7.137892000433061 12.521465182453305 7.766582144981499
Se 12.366912057541441 12.577016528318055 7.824996583165487
Se 8.870890980890538 10.6197266535375 6.856083495580233
Se 8.372820340793169 14.287224898296042 7.335940274273996
Se 12.982745379263982 5.952704722639854 9.212661913237138
Se 15.036083356167266 8.53974662700741 7.555298974805484
Se 5.589175900505603 8.164376312380607 10.355402785594729
Se 5.102036128239123 10.383029668391458 10.414940850189879
Se 16.58577878311128 11.923605640839899 8.605595735060632
Se 14.050767044982495 16.59505900790779 9.13673209323676
Se 14.707389057688934 13.268194177570894 9.403080505066338
Se 9.466715888705158 15.070942599733256 12.052602709115133
Se 8.774814090698577 10.238128248589781 10.097801651108913
Se 12.838500018678172 8.157322212037254 8.184510937586342
Se 13.621462028452955 11.061605852786583 10.543553459459748
Se 15.658279371593956 15.348242979108473 8.113872367757546
Se 16.075375592950873 7.38277676772582 14.271902767433822
Se 10.668605953364164 17.11716900974279 11.609575206218215
Se 11.947292607679959 5.995724720926637 11.230153738348259
Se 11.929887698263858 12.634600952798205 11.088847265013653
Se 16.148895992349836 9.767610373016728 9.348049759826342
Se 17.64398820417124 10.689867626729056 13.510522049170246
Se 13.584147280071532 12.736272385051722 14.88685651581396
Se 7.923634690305066 15.683337184237226 13.695885832669665
Se 12.222278836258324 9.714580922699389 13.158095199561762
Se 8.134653442479562 8.136041511755256 10.565633476864749
Se 15.823284063552514 13.812365200088815 12.530071097403995
Se 16.203074012641608 9.493198993469742 15.118762856075575
Se 8.694208138866498 11.53371667573011 12.306646795296322
Se 13.778910784330664 6.820051256768647 13.118034466927071
Se 4.974063616075818 11.10538801930215 12.720793244027798
Se 16.083775247354236 16.098784836808967 12.766922373574573
Se 11.290127103403597 17.862103837243957 13.73880922187633
Se 17.50919679398918 12.89555774300501 14.124473615977642
Se 10.40820934425955 8.555174340239002 14.144879705511352
Se 9.189354103113384 15.626731378177466 15.7122520984175
Se 11.60237162703462 12.091005141466251 13.473484949974141
Se 14.954082359197074 16.820104937578776 14.763881726038408
Se 13.034825970634346 11.179439065009968 16.556519402936324
Se 7.070835857537449 10.39407762082603 13.518260316087561
Se 12.565666611522392 5.734748092047586 14.804155625296627
Se 12.704687178920183 16.184414635879907 14.693225841140197
Se 9.360252394266055 11.8439538858421 16.86168824783429
Se 8.32123144386245 13.936132965324104 17.12774589447897
Se 11.46219975602326 7.522498782757237 15.959700196476554
Se 11.428173580170073 12.058950063013079 18.04679156019021
