49
Energy = -167.2374414 eV
Se 16.78905948436403 13.12427556517569 7.3158364802917575
Se 7.166348721631 11.985711816336753 6.412179093545513
Se 15.855953454978033 9.650911968754823 8.184249407467117
Se 11.874228273811632 16.708867661844327 5.936216979679779
Se 14.891289092153327 11.753897435252783 7.630170661782972
Se 9.602286231519358 16.08935094895068 6.034936181510058
Se 9.402940894524429 12.38902329559767 7.070897703166667
Se 12.07016447071043 18.326780252271536 7.6429676578537595
Se 13.643654471366396 6.136630314788198 12.494766780544799
Se 17.22100399059524 14.564319577829322 9.134679319415097
Se 9.400552123306321 14.624525166538563 7.891831677872692
Se 5.0437246671302285 13.123196550437376 9.295714155685971
Se 5.9540344386057615 11.197305165794125 8.269145674080121
Se 16.50789721087866 16.694834251625185 8.337996934509631
Se 15.333119029777606 9.061852355312965 10.369235789986908
Se 12.336157796655822 13.988279688731255 11.366576302575533
Se 17.106037982273925 10.180148783922407 11.739035115490402
Se 12.78567512581926 11.741732800283412 11.978343621627904
Se 10.105163145626205 7.487945561727487 10.350654990155364
Se 6.036720752683179 13.31019964767468 11.433442823353078
Se 12.66363782923823 6.075423312596677 10.458720599674571
Se 12.782165284169913 17.07990401263925 9.535200159796668
Se 10.634358319141091 10.75465532031909 12.013204754067385
Se 7.6792557093584115 7.258274823630169 10.669811287024261
Se 11.194829440640435 14.975206432741281 13.190844845992707
Se 7.173621146795147 8.72096638636987 12.412746571478431
Se 8.177373512306652 14.269949920721743 11.298169176333916
Se 15.049457401727404 17.673616790423395 9.894662491825429
Se 15.244400771089465 11.442629945294788 14.863106866697288
Se 10.294734328632892 9.786610346000154 9.858045470288767
Se 10.542850346274024 4.246878261477656 13.588750053561103
Se 7.7477032778032635 16.652730520378498 11.101150802191047
Se 15.570389117490933 8.9886893297939 13.786585278707179
Se 12.87096526930297 4.215823328244738 13.754149834516118
Se 9.633310423184076 5.152051734599838 15.58536388561129
Se 9.288601908581786 17.426125256036986 9.634433475555568
Se 12.554258878491789 16.62667387922693 14.21915688654217
Se 16.630866009202304 12.351822938412253 11.919533207583557
Se 11.532646433253294 11.757565242710639 15.761115842459557
Se 6.975751199498012 7.57422941752168 14.47361122675791
Se 16.68491139312841 7.988916286976845 15.402761600519524
Se 12.445920718410747 9.656352147101662 16.517153522721927
Se 10.275648033786648 12.633192266771433 17.536006789487793
Se 12.0745760209164 16.023113345053876 17.898733554185608
Se 9.146824854808287 7.447350872500147 15.409556382648079
Se 13.978935522472126 10.099539873949725 18.14628707859382
Se 13.67187258810272 15.860849245130762 16.13709699278128
Se 16.035285545695604 10.857240648993903 16.869229560117418
Se 11.905943605250647 13.8509355526974 18.76304069884953
