48
Energy = -159.12441379 eV
Se 11.236876254508418 11.118253957446779 5.80658696883616
Se 13.034385275150097 10.682826334920588 7.250095461456452
Se 7.734149553009523 12.652853670232782 6.574686688176277
Se 12.416882113746452 16.206069019505417 7.623247202029771
Se 13.536601162874723 13.022327531549605 7.445544414290242
Se 9.612900652496926 11.55982351549691 7.539184454277458
Se 10.538469519681353 9.117878844272814 9.217500535757782
Se 7.437310351063614 14.774697435227152 7.5239023651322485
Se 6.832833888987344 10.644377038367969 10.551533634000377
Se 15.829997228540972 9.765562115908848 8.377703629513134
Se 10.828665259142179 14.29943251512401 9.522315038284761
Se 12.690320120971267 8.187537358481636 10.315416871752802
Se 16.274145334891355 14.534031717384797 9.50817862672917
Se 15.444517179764704 7.641740959032429 9.092959976252
Se 17.756857593717413 11.008491274547014 9.453793433985213
Se 8.94220621369211 8.25248699196676 10.564256954529004
Se 5.342883606482873 12.643510479392637 9.908976888469903
Se 11.81207639407489 6.75343205018976 11.77682617841777
Se 14.351385340395183 13.134524407372401 9.670539988070502
Se 5.533284297689857 9.0854110779782 11.500591985685835
Se 12.62772965898272 15.815011832865881 9.867012355932193
Se 15.48375930288228 16.532709607016375 10.460479527585864
Se 11.146322051245585 12.483897338790234 10.974806130685533
Se 6.95534600964492 14.270959000571374 9.860681032885092
Se 15.808882680667613 12.070850969667712 12.599101962526154
Se 15.12788997532552 15.583936669939845 12.666507350639456
Se 7.786695779273144 11.99455991255408 12.462734890310172
Se 10.586726286012745 9.475060865479632 13.230743481855216
Se 9.528097031167878 16.69789782175123 13.588533541045004
Se 15.325510462641965 8.297871258655547 12.885156194372028
Se 11.416313766796643 13.314347764881564 13.289732891952259
Se 11.489845935575278 17.07297640223458 12.500579708639869
Se 8.047380535585406 9.92766492429679 13.693594818066346
Se 14.245783128041726 10.196099236586736 12.243075436342476
Se 17.731664963260155 10.959297846029708 11.784304582251417
Se 9.520710349800806 14.221407661119429 14.658432738932882
Se 13.733501344356554 17.074348425780173 13.735376745529123
Se 12.56774000493195 6.909364597779262 15.242043371306375
Se 14.812847839097978 7.470781284185204 15.087855055439459
Se 11.502262625907308 10.922394647633213 14.763130073992661
Se 7.965213353103844 10.307851640248254 15.881576646404415
Se 13.086388031891607 14.148718318527779 16.360050763569724
Se 9.446693069886694 12.962892268512404 16.772424552715297
Se 11.762583639001324 8.828980632788213 16.592927222642817
Se 14.891472712538551 12.846646579346599 17.338502637718634
Se 15.007786312554318 10.703068857749685 16.377695197849594
Se 11.278334785631413 14.211578475530947 17.797090249320973
Se 13.673347416248664 9.357133258014679 17.80558593677907
