40
Energy = -135.42766486 eV
Se 8.8916055191093 15.284008807238225 7.098094868816131
Se 13.105389050768746 11.859804036433708 7.624070262484481
Se 11.226632806090334 9.306276738760367 9.12518422332098
Se 15.12326347969944 12.516248973458199 6.548771268906598
Se 11.152784850324464 14.936905588631646 6.602542286080392
Se 7.703463028460314 13.319245799484564 6.487559412020593
Se 6.721372080175943 12.47572003217182 8.463270520984755
Se 9.19867268479376 9.707729790127201 8.1975094751309
Se 14.142171719519705 5.101026689637103 10.466337603761763
Se 12.415419998694913 5.691325507062746 8.963964987784085
Se 12.120461188603711 16.06670200272058 10.953439978180471
Se 16.504086353143194 14.91300059079978 8.953368204074549
Se 12.389341860774522 11.825976218264321 11.769089983795935
Se 16.816907483382476 12.649580666236732 8.153824676080877
Se 7.827463290113139 7.710617961311655 8.968350400333646
Se 12.215254086066786 13.905469318637719 8.479681081612314
Se 10.52949105135103 10.237706829980958 11.536126577571576
Se 8.47768372225556 11.701448179968986 9.90641011688091
Se 10.330126353819876 5.033911117145822 9.83259010708941
Se 7.375226881305075 12.566602602771617 12.212889962208965
Se 15.037249795060552 7.001976045591881 11.525295985280692
Se 10.471230109621342 14.990399830470436 12.037616220599375
Se 15.712835615120474 13.30735831925679 14.223867349843474
Se 9.112459029705374 6.909564126909248 10.702685371126458
Se 7.148031637168473 9.97790869771875 13.23276823938972
Se 11.677816575191738 13.124747779422906 13.560313556255966
Se 9.153246323908286 11.069784792966098 13.778568341211988
Se 16.66499385371524 14.950477874159242 11.247332990717815
Se 14.312012082025134 6.814302732723702 13.795836556848554
Se 16.07874130087172 11.076724487728251 13.923124757795538
Se 14.563560582425943 14.360902917563521 12.379532010253024
Se 9.779874666612397 16.30999054208027 14.121161211345031
Se 6.896312024506338 14.102900499808563 14.227975034774667
Se 12.705101963554176 8.44455508600061 14.251528877366868
Se 9.684049391469003 9.221228054766891 15.455062879257989
Se 7.942997880509418 7.938347009798645 14.579916724102793
Se 12.969621815450568 11.86592759959554 16.047563052106668
Se 8.156396103740025 13.439542047612992 15.964664212343166
Se 10.238757290356109 14.984470531343508 15.893350385949992
Se 14.20351561926057 10.075204722362887 15.484381395034994
