47
Energy = -160.94609182 eV
Se 13.31566160120177 5.992255051538574 13.129184889791759
Se 13.650083569906204 7.517285204525287 11.471956537601963
Se 7.284843271518239 8.682827301982009 8.13811980171628
Se 9.101170302405993 8.911600786361442 9.619663353650079
Se 16.26825715780197 6.978023288551418 11.198744846034593
Se 12.623248457531192 10.90304760568828 6.743546327830216
Se 14.719300238954357 9.79873563478882 6.82332194454689
Se 13.274525229071418 6.909610905602945 15.31999123669177
Se 16.714995086437234 5.857257217881506 13.057164100810352
Se 10.877386462468008 7.276467776937591 15.448848154066697
Se 8.289040475825606 8.45405389803091 11.802056926516444
Se 12.795782699827008 12.663907363811227 5.1921366665315904
Se 12.822781836515725 12.7623605285238 9.980859612371775
Se 8.600238763560426 10.360654510903961 13.138265752434751
Se 15.606523208823331 10.688013728577035 10.475597168517593
Se 6.015481381564726 10.670134620112853 8.179332063102606
Se 17.2368037295166 9.28551764824167 11.388285311177057
Se 16.14860493733041 11.087760597801772 8.174337488775704
Se 10.462446909460041 8.983636294796739 16.938925953822455
Se 15.145547052693063 10.484421743215016 15.86721760761335
Se 7.071395564342792 12.250645282586715 6.780686204842134
Se 10.849079574789446 11.060025118091481 15.773072489961043
Se 13.448541762115962 12.939437284794291 13.579639513915545
Se 10.157745545243793 16.464902411209213 15.928867885469623
Se 13.11697287883318 17.701324697557848 14.510778789635763
Se 9.818157025008247 17.049958488594722 12.323195979213562
Se 11.301278139043282 16.112874548040427 13.700821203981919
Se 17.477340118473336 15.403964392527712 16.683215617233834
Se 11.12829080696515 15.880303498824004 8.989152935542268
Se 14.783990859848059 17.546036335610363 12.909214643508143
Se 11.56004677994439 15.783315354351412 17.657671819854865
Se 15.815165808848453 13.87870287782514 17.221291498612437
Se 10.949794969711812 13.638336356346175 18.464118422267486
Se 6.8425342315068605 13.796838016634384 12.84761255122209
Se 12.076532971328128 16.199218775931513 6.7594231189455165
Se 12.99255085370609 15.113414783112782 10.163889060093217
Se 6.543031880061637 11.554176834880504 13.433636433380153
Se 15.266209155232964 11.397459357971375 13.678901066057165
Se 7.276599062807587 15.117031256514407 9.238458189882794
Se 17.86274710524208 15.4818939666065 14.304382800514269
Se 15.813347153844923 15.393368211088028 13.21419325041504
Se 12.330652048770709 12.123401958474696 17.269129427264133
Se 16.76221641276727 11.677951844815087 17.101687829564728
Se 8.554025620934288 13.399970520492097 8.208741006412838
Se 11.8668517621819 12.09084101215949 12.064955256179527
Se 5.761027806581187 14.164819805969488 10.751119527907534
Se 13.659469092270461 14.550532663935234 6.392905097335546
