43
Energy = -145.84092652 eV
Se 15.491602896865604 11.800249660623173 6.3050904153429
Se 15.8252412464183 9.986041678813892 7.665822078909033
Se 14.974496460959232 7.92209492048716 12.321799521505882
Se 14.609597866287126 8.2192300127549 6.36527210619563
Se 13.940458285969141 13.631359042750466 9.847670700694461
Se 13.14332849297618 11.504262036253717 5.882333985637166
Se 14.12622392817155 9.731927014743691 13.333100700990338
Se 12.728254357025708 5.253485547568053 10.307716752756592
Se 12.278388842917323 6.160987114612341 12.445269915769785
Se 13.72280073308138 9.547346637692323 4.676031683151866
Se 11.520430110067153 6.613393992704263 8.765238685264386
Se 14.711241490852395 14.31653862840414 12.010456044575731
Se 9.050781462655962 10.066600268988676 5.30980108796596
Se 11.786361558980383 15.988771017300882 8.054950589395137
Se 9.471421285102684 7.810866709841227 5.980990090025475
Se 12.415276777453974 11.007702390509648 11.854791034706539
Se 12.852193640320097 8.82670346088791 15.347156187430377
Se 10.337647996773844 5.167677184631631 13.394822781192078
Se 12.521433757488373 8.732020007769677 8.736619983551691
Se 7.866635983354276 6.569549531589243 9.217619714225904
Se 14.140876556407154 15.504039950488567 8.46006127160625
Se 13.347550810170306 15.863049856132587 13.1213591967731
Se 9.506462028447604 11.47954786992891 7.127786514456055
Se 6.048272378033707 10.338943864190888 8.048741524968655
Se 8.98232746276748 8.88026513023238 15.370362563866905
Se 11.879942111163274 14.830005249039267 14.677538349799228
Se 11.139977597397237 9.580222801781604 10.604834367287113
Se 7.562406707861785 6.7378592158500705 6.763987075268366
Se 8.395880634218951 6.2959551374465175 12.641750268328993
Se 10.855589561262315 15.760288681821947 10.151071369935476
Se 10.965261292779427 10.165272086269427 15.568927682948045
Se 5.762180265747535 6.0062958645321185 9.858165818820222
Se 7.279709577904067 12.243211301510842 7.716163746529496
Se 6.445758910787459 9.706143903300086 10.398448626891975
Se 10.461655546567101 13.363252344378035 10.27619399636441
Se 8.59510343188807 8.634246682945932 13.04992625698857
Se 9.622452894268235 15.270558904756044 14.108772473510081
Se 8.238284304824681 13.332665526604044 11.1184410685213
Se 4.673148322151515 8.279499455795438 10.620545244812567
Se 4.997940055573413 13.08097250062711 11.547613142094393
Se 8.640055423671104 13.237447329030973 13.475727222494232
Se 4.382301989873214 11.707731043709192 13.222747010483863
Se 3.2265685979685332 9.888168106981704 12.533294725948407
