47
Energy = -155.84365568 eV
Se 19.41298179791268 -0.1701977662173677 13.683386330456749
Se 19.746083319803365 16.523375285710813 19.608875775712058
Se 18.600511391795386 -2.325821389270364 14.798101449915384
Se 20.50129848107215 21.98676884468592 14.572141167644466
Se 12.345890177727043 22.11903616683718 11.87908759307803
Se 22.406506051991872 12.859881222909106 12.728923967255458
Se 16.421657102410293 13.713150206870303 9.170552101712333
Se 11.859339047732275 21.162062789617284 15.545536787430358
Se 21.44215928353525 24.938301300630364 12.969398944089763
Se 20.288093245789568 13.25540796451807 22.183945798668578
Se 20.605731795161454 16.822302598016336 14.517671115560404
Se 22.854828202460784 16.147516273824937 14.631253085663634
Se 23.87877319475185 12.659436258109075 23.08220426500157
Se 22.744024992388287 13.796422962360399 14.873091832635142
Se 9.863597166208443 22.93054367112536 24.260891959184452
Se 20.659106341168126 21.33329857634252 12.285965752814871
Se 19.21484844125566 19.44526005678154 12.126799429416707
Se 21.68850786514933 17.292954322211123 20.87594556503564
Se 10.801965021101504 22.422614947858698 13.579712360142851
Se 14.698790554343075 12.357472083550066 12.078628201408957
Se 15.403230846809805 16.60117549418909 19.869721955015496
Se 15.214551302193914 20.337326112946418 19.257020579563942
Se 17.177851120201048 11.886349709618818 21.117153405061494
Se 10.428717093860492 16.48980747482291 22.590729572032366
Se 23.358541603735702 14.88411289895733 22.98206098533131
Se 12.850446611704134 20.60325340840772 19.344105500849725
Se 10.292313803011846 20.776795105687537 24.590004561252403
Se 14.17248933689123 23.043807731671933 13.096305100466314
Se 15.246782496594113 16.93994091708305 17.642409023893595
Se 14.26194076314695 21.29305099459638 14.617448682825417
Se 21.74712762601772 11.479447779182847 22.69147715665535
Se 15.024860823942483 11.948228575674298 20.623595145148496
Se 10.597891158995486 17.087431172690877 24.71310570662754
Se 15.753812147922279 11.646043926591075 9.815597699256632
Se 12.149409291632729 18.327779054762168 19.092179955156542
Se 19.16233800817759 14.436280100686501 11.808465473725814
Se 18.74963765044902 14.70408510900381 20.622621439804835
Se 23.381412262397596 15.723672220427703 20.685894577048565
Se 20.097070713389655 12.431624428917116 12.6989239345692
Se 15.569000201762968 14.392103969686469 12.38940728950914
Se 16.41470517647181 9.292527197328114 22.604037388024825
Se 13.05390912079286 17.109027901194512 20.814998654905956
Se 14.39806744740613 9.770993586515491 21.887779856890024
Se 15.759120042348767 19.39375084459519 17.239243907586363
Se 11.519803002617007 18.966059103865806 15.56561646724711
Se 18.765114720942858 14.023013096408972 9.521472373567374
Se 20.318152184554712 17.39922980149512 12.172721145085042
