44
Energy = -149.64849382 eV
Se 13.240390602137287 11.733491559169664 11.700995303486607
Se 12.174887149890846 5.6969969853409195 12.737228927338162
Se 9.913158663795828 14.561924535659763 3.9769839173620953
Se 11.12229599963536 8.376076571147957 10.023029674607207
Se 6.806082368864007 6.124476449470952 10.730935748371335
Se 9.609688295826285 11.671373502740769 10.969010988128508
Se 10.057818103944566 7.651617818715639 2.751740454403461
Se 11.260593652984026 12.523022788151064 12.653072135274188
Se 11.388966686530392 12.755828103288753 3.4708585087720905
Se 7.855041678489082 9.525615501996713 8.046908254913145
Se 6.990916115495043 10.718146263146195 15.14409089054042
Se 14.700843096581442 7.945143587310023 10.574762388591308
Se 9.221496588572409 7.592835747395033 15.082760711875013
Se 6.367914226010672 9.138325618430851 6.252817688564775
Se 14.20050642515784 5.2191818643897605 8.096329969779994
Se 9.268612073248619 5.155900065654888 7.4601207220690915
Se 9.780080028157222 4.903759973909883 5.179062772789266
Se 14.033361056034455 7.560105136938304 8.378787320814475
Se 8.462007242935988 5.405714974516991 15.485640987010434
Se 6.449335935433974 5.028282976436492 14.32830018820301
Se 6.232660160958308 14.454456706476304 6.5117805329898735
Se 6.899432831417596 4.253330640759298 12.134835491309785
Se 9.85944715233493 14.993356457128577 6.286961003978299
Se 11.156380717950519 11.12420917387483 6.759202873889364
Se 6.017288564010989 11.055865081352696 4.914250414176947
Se 8.968046993983933 9.655324949076906 3.431022557588566
Se 10.04199870229412 11.342959639693394 2.1599066010164285
Se 12.626356603946501 7.780894773396548 12.058099537527745
Se 9.286916503248278 9.126756634321222 11.19882492968146
Se 13.41895576202109 12.823893885676235 9.59960816435155
Se 7.8757193902336144 8.985442396288258 16.472032714822088
Se 4.2294349001188 12.134955658293315 11.014338441022288
Se 10.696607733648513 3.5394892480903044 8.470578545042306
Se 4.812147914248139 10.316894409700478 14.381334872221784
Se 4.930196041996914 12.527812828003592 6.448856788966233
Se 5.309212967654579 10.371298842295893 11.904800901246372
Se 7.569875696296626 12.508716578918209 11.432622147526052
Se 10.043037548724449 9.04162287150383 7.224001678615783
Se 11.29753774448126 6.593593993792315 4.451500789299817
Se 13.22196612190983 11.171783886149765 7.909141732773056
Se 12.445321184052894 4.6009309544650945 9.632277324273744
Se 8.29772681358906 13.698593944530746 7.48180829383087
Se 4.0063021112174395 8.672208471667405 10.50887829509934
Se 4.4387780553955505 6.523132156193144 11.155242021314573
