40
Energy = -136.33799889 eV
Se 12.708514023735383 8.149247931257362 5.68638239693502
Se 12.455486349213203 11.935573483521406 6.056375470410291
Se 11.199073558393222 9.961957512359195 5.699684346584341
Se 7.34210234344114 9.079082079140928 8.543096495866534
Se 12.22030322321409 6.827657810397672 7.598794572534934
Se 15.74486191328711 9.685198511578587 8.118988664629011
Se 8.192040379589459 11.481223226908897 9.28562218335314
Se 15.083522406872346 8.15255936229028 9.799030088572776
Se 12.829778296741523 12.121950910155132 8.389318439507365
Se 8.9260329173704 13.07709608529056 7.51079862268439
Se 6.998805589034185 14.39386780447099 7.758713462152464
Se 11.28452728149647 17.472640443199943 10.614196662590986
Se 12.29924383921262 15.58502611060886 9.804818374745809
Se 12.727724174434304 8.079246451892677 9.522187270239634
Se 15.172230384871208 11.8850648144799 8.70794851316772
Se 8.136705687616917 7.889179051148843 10.312483643118043
Se 7.521492761884671 17.056894017805302 10.6595385098424
Se 9.938917189208361 11.074643109645368 10.641973710840976
Se 8.1745996198434 11.832885796538216 13.044971576831196
Se 13.29655800751424 16.42422347092653 13.396978351512772
Se 6.707916349500059 14.921151421452612 10.055136403076625
Se 9.44794659573505 16.779826363156893 11.980375812191022
Se 6.678284001412524 8.371399856794989 12.169499721874299
Se 13.973938263207573 15.105383525720082 11.643914036014973
Se 16.546569826753892 9.739021598144085 12.833070377801802
Se 13.573942604255938 11.070477493222832 13.2093991764491
Se 15.746631659963883 7.608384799539324 13.861248576071494
Se 8.054849458417094 9.53062489023809 13.67485287777804
Se 7.060161409431543 13.124136571605112 14.745370712851564
Se 15.112897326266086 14.094968833797015 14.710502922096772
Se 12.832239957693599 13.566623617550965 13.954641943315947
Se 11.846047823665426 9.673244777362088 12.839918129239003
Se 17.52140501406925 10.98012820729502 14.501534887198599
Se 15.863455248135239 12.171514124383624 15.819551756838546
Se 11.62978387461072 8.30742960676386 15.012478674325939
Se 15.373225271428481 8.044200014009578 16.05236952986177
Se 8.320447108674546 12.812523782822586 16.71340359031544
Se 10.292113663851703 14.103529292428309 16.73569230983912
Se 11.95749339610407 12.56898484204202 16.035054608792336
Se 13.211144539196933 9.264241737401344 16.30309593729455
