47
Energy = -162.64127694 eV
Se 12.89643385680846 12.841702222333346 5.674126128486951
Se 11.251060211306113 11.155906503722244 6.012502458026595
Se 12.410568285087304 9.115830156671777 6.1875439503501495
Se 13.026464859584872 14.313088695279728 7.490955451602577
Se 16.42043894861328 8.037786615137986 8.638037281978047
Se 14.65189097872985 9.537120929051435 9.173122407204175
Se 7.3360883852919505 15.038421941939045 9.531803475935558
Se 12.642811601596025 8.52538478593536 8.468774417677436
Se 6.857787961438803 8.564182798625625 9.347370325003528
Se 16.364419745344463 16.286466153727975 11.122666137437363
Se 15.717696066819276 18.5717819664049 10.952940544331879
Se 14.793590986962077 13.48880456606158 8.886575815608309
Se 4.767091826761895 9.124689515444867 10.258180131415033
Se 7.821350851093393 16.43264385101886 11.37494123134262
Se 17.24044017572141 7.156157671296617 10.647517290275093
Se 9.56209180472516 12.042137215480214 9.622919962530219
Se 4.163886013746749 11.986322747445444 12.541405057847943
Se 4.698215320723759 11.504597150121448 10.307645923613636
Se 14.026979315138341 13.5055991916598 11.103236826116303
Se 16.03456663195779 5.131372770222803 11.02113011470213
Se 8.587071727016278 8.804145257629305 10.944242658476872
Se 18.208670645623176 16.259708790144664 12.599305109232827
Se 9.415336766232617 14.232395263447644 8.754002043403867
Se 9.129216011044399 6.71403351563521 11.912964548488622
Se 13.59212127039865 18.978131138264775 11.847127540322111
Se 10.562401265775568 12.202258730641928 11.766163888100403
Se 6.089489634215681 12.128695496568286 13.918358415842324
Se 14.849471433159835 5.31498732894967 13.023698741562669
Se 17.578123896309535 15.507562646128912 14.75368380878512
Se 8.437672852277219 15.050589208769242 13.185695901552178
Se 12.800687781747419 11.50164036278522 11.522499620199982
Se 12.572186600202228 14.76316487483498 14.256105737135488
Se 16.196649656560293 11.975839601487081 14.2909673721942
Se 13.958120188694531 19.666600763061137 14.102153844570108
Se 18.15083147584551 13.223343872130675 14.78843132357308
Se 12.785363307025573 6.4238781294943275 12.52415202827544
Se 8.231077570777547 6.653945270816287 14.102825755008087
Se 6.503202958930036 14.402770878567441 14.380514749464124
Se 11.537391168576603 7.63402281405993 15.810858196138886
Se 15.561257006616588 10.816151536357632 16.24220759359468
Se 11.089368491833518 13.716335675427398 15.776959998489593
Se 12.830275090636873 8.305619635758044 13.94068925754859
Se 13.785054156439333 16.211915122583076 15.676076411419169
Se 12.6386832098956 18.27126137319734 15.44620391138254
Se 11.941572660160775 11.568918488895243 16.261525913916945
Se 9.349461456872117 8.352553016553411 15.297920651045914
Se 13.93135475632811 11.955520626875757 17.50725691543686
