40
Energy = -135.95512432 eV
Se 8.36940672913649 12.550397264134437 6.700309418579973
Se 14.326646367065932 11.458506181619178 7.751682711303893
Se 8.261803544851704 10.492168589750365 7.666564115098037
Se 10.253539377767689 6.724030493637267 8.393933283680562
Se 12.994161164485835 13.324737790551174 7.917185671009931
Se 12.826847638825063 9.937246454662777 6.528550266858183
Se 7.8600655129895305 14.259314470004686 8.069818372847156
Se 13.501408114992726 7.74611041236863 6.776200527425404
Se 12.58828531551764 6.679578630452726 8.722008770605246
Se 11.541373153695806 13.453140901551274 9.92691727146412
Se 10.039383915561727 10.282214615814624 9.780910867464433
Se 9.478846016713984 8.029340027932935 10.209557022480872
Se 12.454067350666586 10.411207262498104 10.582209161279605
Se 15.635210650732429 12.345646420923826 11.521144363421131
Se 12.189254448844986 17.222388167530397 9.559261513040685
Se 10.667789932181273 15.43746776623269 8.983826468200075
Se 8.238203771452833 12.30494062827572 13.288583327670406
Se 15.951266544808764 14.6396502998401 10.572974049367444
Se 14.908181337738913 6.418948480538058 12.045374673574287
Se 12.735534887129285 6.996986571090107 12.81536282023248
Se 7.187784466853967 10.315620156140403 13.457722670395974
Se 16.16620477476839 8.335728806005386 12.626255823187606
Se 12.460026472889943 10.368427204663586 12.887180880145763
Se 11.196444082772539 18.36810771939777 11.355164112988575
Se 17.01221005907379 15.669602411785302 12.33016598202656
Se 12.272559551882463 17.840493781918404 13.376758115955196
Se 15.612968753431959 14.877120893209685 14.118985593299772
Se 11.943913977591043 12.681153835583881 13.462246962842329
Se 16.4564359130737 12.703124124909852 13.660101391091494
Se 7.720255879604779 15.877483434671223 13.031049471563145
Se 7.300165314561124 9.808317907039909 15.964771265477113
Se 11.219688682828606 15.929670861242368 14.328378467440084
Se 12.98864120740826 6.723384115411671 15.167179532222931
Se 6.520453116148522 14.03090009283875 13.727902356124503
Se 12.158699406805107 12.443325067748884 15.818971353369005
Se 16.42343813990792 8.068966790796262 14.964424903725257
Se 9.039337606757272 16.62211719257912 14.883706272518344
Se 14.258055329640404 8.628730592315858 15.755050915288692
Se 8.558465193507878 11.478706031037554 16.825454768245912
Se 10.853939941499199 10.685961197460115 16.617118132652877
