42
Energy = -141.11681947 eV
Se 16.055037488696005 16.552122605139825 16.27243457555524
Se 11.08216847519638 11.055203434232611 20.030521549027267
Se 21.43627664426842 20.34458880806081 12.03456295465232
Se 17.497289834141448 13.086761468115396 11.339605655396124
Se 11.004978663468263 14.634146559761815 9.96168466877099
Se 16.635182292432155 10.826440855554988 8.160373313380292
Se 9.350352446199015 15.813936855058316 11.07901158156326
Se 9.41830938786508 18.09770692894717 10.341959781511331
Se 15.043981590426966 15.952723157495262 20.752998429410635
Se 19.58589779536175 20.106163566238127 10.681411172836395
Se 13.77687162607401 15.858994765931277 16.11501635888631
Se 15.473064267282737 13.875163284742204 19.730794492575185
Se 12.341819430956972 18.989557580599655 14.728206022145104
Se 11.95426373958579 10.459990630475325 16.575334096722656
Se 10.61834252503418 9.076346772855876 21.351578730827192
Se 20.46823452393223 13.476356983351842 19.553094278210526
Se 10.63979749974995 19.02958924932684 20.410884858929816
Se 19.53599165777421 15.477987669761673 16.485037018680295
Se 15.848280344469414 13.068737154400058 9.614643653405697
Se 20.997390955765958 15.439265349012027 18.441763026631012
Se 12.989282261354429 14.759602297927106 11.34075096573197
Se 20.157250259769736 11.385765372461826 9.35895965267211
Se 13.072081975389944 16.732131640083182 14.077583962630255
Se 18.93984541039214 14.018755386857077 21.33367655748675
Se 12.193963432436634 18.434514106975627 18.973733748770698
Se 11.50672143138999 8.47849543022124 17.895788355811366
Se 19.279250828476755 17.379309289558854 12.656688522871514
Se 11.86865000353649 19.962770535604616 12.679449252894305
Se 16.989096171842764 12.74422880990981 21.175131189647605
Se 9.570800643602631 19.448944596610502 12.240644609384812
Se 15.990707012660199 18.271226203480655 17.889294011478192
Se 16.788941035816222 17.279019208769256 19.879852231676402
Se 20.987935431937498 18.5901725098772 13.80509326343547
Se 19.39086882778402 17.682283630051586 15.87581559609959
Se 9.873411557670979 18.598232992142922 16.945195951368984
Se 14.714389494479459 15.281250000436003 9.878459311432675
Se 19.80517166059843 17.729827432031016 10.398362479319498
Se 19.542780220448655 13.492614111209418 10.246252993831815
Se 10.127800620536503 7.5849038057300175 19.684677266244886
Se 12.457203854909357 11.953372846392492 18.236533296982454
Se 8.68630880526504 19.168177347249085 18.713339451443467
Se 18.77547306957547 11.186464813378993 7.422640505744058
