48
Energy = -164.06500354 eV
Se 14.232520482477069 13.093589313324987 5.018259143966444
Se 7.635753877343063 14.621095509674468 6.350850985838769
Se 11.105128628360912 10.033739955820888 9.068583658783435
Se 14.446729492580944 15.036824363828305 6.359964798688436
Se 10.436327704200213 10.455881311682248 6.861781343853295
Se 14.335651447623071 11.070021585462893 6.197380376866401
Se 10.92297497669229 16.615741948765343 6.27263410553092
Se 9.630421073895535 14.985859881801415 5.154333812126984
Se 12.469610921683199 15.418718226195981 7.596991797190918
Se 16.62904978901704 10.52948279969427 6.63466742855309
Se 8.10360592031563 10.8758335211456 7.072992457246664
Se 16.993221167343656 12.188217750465055 10.106573344453038
Se 7.986853256011168 13.011302892501718 8.056403927929102
Se 11.493940752868856 12.324046864093493 9.823426633916588
Se 7.951481308040699 8.366778621282041 11.483817707598728
Se 15.044573644554115 13.44718092072193 9.80353223631134
Se 16.637658388448617 10.144430682490654 8.940244186873247
Se 6.9928868908847726 6.861721101665058 12.97339992359126
Se 9.812462937333978 7.041684513492923 10.537277746681884
Se 10.160006396582157 16.230696201667506 11.318413746725975
Se 9.545267817084577 12.184848778756312 12.189812903037879
Se 12.24716692136858 9.348556784130867 12.419753415864205
Se 6.6906509668059915 13.796896542570193 11.631045861082074
Se 14.60878671149259 15.034227315020091 13.315004128364922
Se 10.54791525348795 5.853232324719556 12.330172251151556
Se 13.891215510497334 16.672802720026695 11.403297050852107
Se 11.944728054332142 17.695013627931655 12.04568971480206
Se 16.99821152982896 9.354626420499157 15.32563270780017
Se 8.48270171916714 16.421151099775283 12.999866244175344
Se 13.371747725468827 12.429555842829995 11.214115089245487
Se 7.582696477955859 7.392666311133547 15.186329241334926
Se 11.242308043244872 11.275952965939195 13.538455478078891
Se 12.11619954883517 7.376374425212854 13.582937553264404
Se 16.316864218652594 11.60429850266521 14.944082512808606
Se 14.224718935424256 16.332624757536156 15.405223944127547
Se 8.67071622612819 14.907645010238753 14.703082347950733
Se 11.965319509445603 16.287332000400482 15.836156719684652
Se 7.4741057835668645 12.854032251973488 13.48734364474269
Se 16.84465154671003 14.92928348283736 13.32871830258652
Se 11.417898436592925 14.10280538556759 16.690419168184377
Se 9.417724089020776 5.971209101482261 15.830661859741761
Se 15.175656448377309 7.880741693128068 15.085827132863773
Se 14.195159346938167 11.907579899080789 18.083955502971502
Se 16.279106259023212 12.516358443305405 17.114192033166546
Se 10.426626895895659 7.1272623368653285 17.609005216808253
Se 12.097352413983927 8.771552794139236 17.159717711928156
Se 12.873323330353115 13.800084034781104 18.526369190939445
Se 14.198589739603625 7.686705697220724 17.249872225258546
