40
Energy = -135.00444621 eV
Se 9.00714037682244 11.486598529435843 7.064268254774918
Se 14.793022067804102 11.74430288502158 6.600264135904031
Se 12.759348698862457 10.774755624769629 6.058041572880884
Se 11.830873413672872 13.661211196021311 6.990313705511735
Se 10.081179752830987 6.985425727142255 8.523839785718772
Se 11.272578523770532 15.970566730692681 7.33423715630572
Se 7.508615073603988 12.87099149087877 8.211190493034868
Se 14.115086909422178 13.781036580191483 7.732737685209146
Se 7.969959458524514 7.384233972135397 7.603994140851009
Se 11.497746319149233 9.04024757794981 7.670764484890714
Se 15.779381330071239 10.335546859774915 9.76431562916611
Se 11.996120661507327 12.115091083753805 10.034958150727933
Se 15.595213436335273 12.685678416100773 10.659141536819925
Se 5.688959938920008 11.467996164954366 8.77643443659869
Se 11.635452523473557 6.594796053216695 11.731436313315132
Se 9.140562471457507 6.766129748647079 11.889173292758404
Se 12.635614736979456 16.27024956448775 10.546702574712256
Se 10.440908559126134 16.125612352222884 9.52217489359227
Se 10.276459641261928 10.60859235725961 8.999055681126045
Se 8.716195000676393 12.426795528487212 11.926798457854526
Se 6.419447524642601 7.800882889171309 9.333897823997058
Se 6.648479915893893 9.943120512016456 10.32061218756772
Se 17.044286168648036 9.181944743820075 11.279455063711671
Se 8.79947824948291 16.330266070297945 12.371695422136481
Se 16.97181837462431 12.77099677448772 12.500182473831286
Se 12.149720367116279 16.413975493187742 12.854318067602682
Se 11.976782949477487 10.394571297737654 11.545958689148241
Se 9.82123779402397 10.816307854366661 13.14799924828988
Se 12.174507166511338 6.418581323218702 13.962019871760134
Se 9.14094722125292 14.41396250950609 13.455496219093916
Se 11.783866437918773 14.328386262604539 13.709140034962921
Se 15.56223958462251 8.536626814750834 13.07921016346868
Se 15.579443816864217 12.06757644253619 14.331300418678476
Se 8.89170279785022 6.609548276685101 14.177985462716586
Se 7.980063076618515 10.224441538298947 15.206591827815254
Se 10.66965087626047 8.06819164718935 14.914781358206636
Se 9.762071477864746 12.673550678024126 17.348705767634822
Se 7.594281539666679 12.212110037565534 16.170045683474967
Se 16.39096292487673 9.907151197296463 14.80008814148556
Se 10.98861763470723 10.881973987290621 16.940698485859432
