48
Energy = -161.71028017 eV
Se 10.806722003796544 15.979667810220318 4.989310782356743
Se 12.203220966091555 11.961365234071385 7.242252442755162
Se 7.1006932623731425 14.68895844069894 4.8331138086600625
Se 9.279205595741322 14.140164826961975 5.246070023940735
Se 10.587526933187538 17.466750048219502 6.796809977447603
Se 11.168870123286995 9.866306885464876 7.2606708859028295
Se 7.853169749495486 11.115817056858623 7.52620623710181
Se 12.225958821966707 12.519330165841351 9.600248664457773
Se 6.226885883298269 15.07212413791279 7.192552905765147
Se 7.509592871716372 9.063298239903977 8.512302136370767
Se 8.604275919017283 12.341917504859625 9.457736691751759
Se 8.048156565356596 14.787459872383636 8.481550011534196
Se 13.265406644414918 16.230030772390254 9.43827451283456
Se 10.960383330899514 16.347175091423697 8.831332795624427
Se 14.042554647168508 14.18786314569471 8.651745672010783
Se 12.853989172412067 8.936893048093737 8.699366471086986
Se 8.602046743793036 10.062239244850392 10.778933247578108
Se 11.967096922889336 10.212563389324169 10.50524598052999
Se 16.14160386414743 10.420815011084288 9.149226511709804
Se 14.350587152697331 8.533134857753547 12.007926275069151
Se 12.038646413786415 5.484618432300276 10.91574905136333
Se 17.520971141156686 11.58000511331252 10.44219246083955
Se 9.945881886015048 6.394013881213091 9.987430844936018
Se 6.680819242495579 13.72282322668639 11.930295473430983
Se 14.755382777881959 12.947694364337119 12.81380919814385
Se 17.850615477065304 7.907900822143543 10.755758143197193
Se 5.51742488975166 11.89442074621549 12.882585418803345
Se 6.832515285352418 15.280814661404147 13.712259171214061
Se 16.373159018185568 7.337897949903116 12.539314526570042
Se 12.704070268522306 6.906694786898226 12.62952988038068
Se 8.944574634792948 7.633198466710166 11.630394113504366
Se 9.923498300041834 11.61291418948164 12.329975026344645
Se 15.401961464271661 14.852213878300478 14.058164318480266
Se 16.600376604823456 11.489079724014392 12.759435362148007
Se 9.085256511243252 15.316397714524795 14.369361967255447
Se 14.26570600938089 10.766793716474714 15.35499901057461
Se 10.319416970684244 10.146800755181156 14.44023885176133
Se 19.072801386629454 9.668322228302811 11.530141872301794
Se 14.340634861718152 9.016494449211203 17.27847998734164
Se 6.640193342113315 11.47220487420686 14.911445358211077
Se 12.577192963691855 7.499264891219346 16.0229731040955
Se 8.000084036013966 9.581326721071543 15.025965722396661
Se 16.013412061416126 13.88846463051938 16.13759187659841
Se 9.411780035167144 13.75592044933482 16.161919753862083
Se 11.114367836231917 12.299479278649931 15.582744283619178
Se 14.067492502277394 12.668169109748366 16.713634529075556
Se 13.15452908515004 9.999300918776875 18.861909892400835
Se 10.712482802713458 8.606090218170037 16.684019748986074
