49
Energy = -165.74008341 eV
Se 12.189107817828825 9.44942543973389 6.773839795469854
Se 11.576909971238562 12.272339612463643 4.576214559687123
Se 13.364795824167714 11.178263417417876 5.5369190485930275
Se 10.940605882875342 14.050818867794801 6.093720754023513
Se 15.711406558425288 13.326411506446371 7.435327099360564
Se 9.200618936180781 11.545269378537368 8.559555799107786
Se 13.49104397619611 16.484708336925213 8.87274630672577
Se 13.407653470741096 9.042618243170834 8.71613748183119
Se 10.996685393993696 13.028440629957107 8.186301248137669
Se 15.863737342588768 15.316456185375149 10.310751449088
Se 16.837089170586655 11.816740226311653 8.564619812764109
Se 15.065063357045354 11.757195249157725 10.827936111525773
Se 9.721211229492951 16.77036408467798 9.20718650303622
Se 12.086642799137703 6.6718319913337645 11.643990030836225
Se 7.354284458964439 12.835321581980933 9.292172410542486
Se 11.923849354999366 17.542656367071622 10.175176342892684
Se 12.932229179316897 10.437356755131336 10.614614630373566
Se 19.094878615523392 15.384692934885068 12.02701855105694
Se 14.055760042707066 13.743074679991626 10.018358383255599
Se 17.652362147674935 13.813503845753143 10.958314343906075
Se 10.697077599554575 8.745785192947025 11.503900233438761
Se 8.118375478956759 16.17182743454684 10.772264582901085
Se 8.155435863173354 13.844876335576838 11.263288227785756
Se 15.532831966132159 8.289005326420048 12.2357275795023
Se 13.14802772891691 17.571929202122984 13.78107810015394
Se 11.995527764698043 13.221918676852512 13.492916393927226
Se 18.425874184626657 15.90681461799965 14.21807775173112
Se 11.49116631577541 16.5740506307002 12.522279419675217
Se 16.98287025013759 8.248215486581067 14.0377665915772
Se 14.523232828690306 15.774114926506448 14.560724801002904
Se 15.76036249097603 11.801405985199205 14.726206452385233
Se 10.687125633809835 9.583951144876616 13.690266313472776
Se 13.633075884932731 7.075721151103576 13.254552053980706
Se 7.852962307628837 13.005571113735256 15.266366149867089
Se 18.89075863220936 14.001631333879331 15.549705222305924
Se 12.613641879856328 10.958767485218603 14.002934656965417
Se 15.921808943240906 9.655128074146164 15.734064584467347
Se 11.281951695184016 14.149337595096599 15.539228409663343
Se 7.74523160271676 15.247506285683288 16.1952442751476
Se 6.929087943532655 11.627389644311478 16.926258348257605
Se 13.20390743575007 15.357017199282371 16.460943567414144
Se 16.7367391645941 13.329134754528788 16.246948962144288
Se 13.037965601464272 10.064439033670215 19.180629676164504
Se 15.111613783551364 10.661704881462226 18.546025082832962
Se 8.6876249376551 10.326296109260387 17.812433032965103
Se 8.551892861730446 15.137790409610858 18.372671946990497
Se 10.890956387904446 15.005775455119903 18.568599312857636
Se 11.72474453660688 12.274815976271281 18.945084366535212
Se 9.684127357767707 11.402523794630703 19.68484783313051
