42
Energy = -141.95458851 eV
Se 10.323353375513932 17.78840966715914 13.914442282992313
Se 8.86225840026939 17.452371088870056 15.512690194090316
Se 12.405166096042278 17.036396141813153 16.383041946763523
Se 13.251068412479787 19.305092524130984 16.292061002299363
Se 15.257299851584056 19.001068401154647 17.49445797806572
Se 17.03297695002761 18.954252739688876 15.984296144926459
Se 16.97278814145731 16.719392370940604 15.062347225587864
Se 17.9382777151957 16.99407553226171 12.954563491739131
Se 14.881251353081213 16.210696895185443 10.481813673787705
Se 13.407532266552382 18.36747417231428 10.276748939921282
Se 9.873715663933591 17.24131679563138 9.136791392317582
Se 9.970935244944437 14.576612437587084 13.441256831166394
Se 12.187182700104737 13.403929295379397 19.526203945846845
Se 14.118756782928683 12.904960910436182 18.406643478704904
Se 17.699953457252914 12.510465261792634 17.822510900720655
Se 18.93555314851967 12.655250013538565 15.881456832960012
Se 17.410025658657002 12.804348466014362 13.939704072435052
Se 18.90682733851682 12.644017978349774 12.287956740087944
Se 15.193778203496567 13.97703160822205 7.854756957754754
Se 13.262204120672617 14.475999993165118 8.974317424896684
Se 8.445407755081623 14.725710890062738 11.49950407064129
Se 12.070122889384406 17.753358297645338 8.476221728801342
Se 9.681007446348387 14.870495641808667 9.558450002880637
Se 10.875595409616025 9.44531163424758 16.034040771651416
Se 10.347983953573689 8.426708163912437 11.396664758674845
Se 12.49970955052009 11.170264008415867 16.899147229813604
Se 10.666121842646831 12.321827471933263 18.091253513205434
Se 13.973428637048919 9.013486731287017 17.104211963680005
Se 15.310838014217042 9.627602605956122 18.90473917479995
Se 14.129892491121511 8.075868379470332 11.088899901301943
Se 12.123661052017244 8.37989250244664 9.886502925535739
Se 18.51870250333192 9.92858981473125 11.868270709511128
Se 17.50724523966769 10.139644107969907 18.244169511283868
Se 10.408172762144002 10.66156853266099 12.318613678013584
Se 14.975794807559021 10.344564761788149 10.997918956837927
Se 17.05760752808753 9.592551236442159 13.466518620608987
Se 9.442683188405756 10.386885371339737 14.426397411862169
Se 8.474133565084477 14.736942925251672 15.093004163513358
Se 10.525350769570222 17.066682904909484 17.622335564859423
Se 16.855610134031078 10.314277998691956 9.758625338741876
Se 16.714839060954457 15.059133431668037 9.289707390395868
Se 16.505365493985423 17.935649269353686 11.346920131950025
