48
Energy = -163.94870208 eV
Se 9.384414667367611 10.218853892069765 4.21148623280455
Se 10.50401541885878 12.242703437669899 4.607408401638061
Se 8.878345022369071 13.72211298344148 5.469896998042739
Se 8.020387336505271 11.971327143600298 8.760095745623156
Se 9.173319784908182 13.802841012197812 7.8091374749627605
Se 12.75225123797311 10.06446136942196 7.641067250431391
Se 9.569704327844052 8.872597841961397 6.191755916009353
Se 13.241368396014922 8.135735512706267 6.655062544975067
Se 11.085204126252322 7.214558397145682 5.735167370667538
Se 16.148678900342247 11.987273106328121 8.01810549731626
Se 14.78161978611201 13.94977769325106 8.13067319030141
Se 11.034203420707527 16.187250797390593 11.355823757454159
Se 8.720818713602684 6.516089667616339 11.298609433401673
Se 5.712196647490491 12.49193806274771 9.024733308653797
Se 13.00931161267578 9.48110570385863 11.141506536543151
Se 8.839026914057053 8.514895530415288 10.108424031230033
Se 17.675349591955033 9.198878398586745 10.925633058644898
Se 12.99089615604497 13.268075528274741 9.490026246344751
Se 8.84342369984785 16.511348049081246 12.219136732412798
Se 14.313646730609742 7.487061856906686 11.243534238549227
Se 12.356048577923707 17.739441654687536 12.527872776860557
Se 18.031592131850992 12.563779770433987 9.209176896109046
Se 17.621121931158928 11.998399959457954 11.579929824224738
Se 5.380389262295159 13.7392900293397 10.960718855478222
Se 6.658893046980124 6.40006228633718 12.473209855758935
Se 16.899440233548304 16.07418289277699 11.624518095467957
Se 15.149098920399307 11.194302142280732 11.564557596417835
Se 5.516267817894469 12.034361559108198 12.679565162858509
Se 13.815524137209728 13.143723042591487 11.726223020107478
Se 9.525408906855638 10.262957865727703 11.622089435926771
Se 8.547188069379448 13.471460462716296 14.65594305356764
Se 13.694754875922328 16.378978033328536 13.967861015325306
Se 16.331602746853733 8.0094017664655 12.386064854424331
Se 18.227206490993588 14.337666295227823 12.457067002110458
Se 8.758619845041915 15.82805697308888 14.470144689572834
Se 7.232410206673202 6.546658702695602 14.750549963537438
Se 15.886655687259656 17.131600340437664 13.479750798681248
Se 11.288707962954197 9.420809049014402 12.887394082748866
Se 6.908852631863316 8.771091963833149 15.476374128711162
Se 6.152627214217758 13.176885668727511 14.593313258686864
Se 11.42878412964438 14.482630750328754 15.91712038867434
Se 13.417060311899997 8.568316861065602 15.66146137344982
Se 14.413819099917262 12.217443746238118 15.849535712182037
Se 8.975685530014616 9.913547721275764 15.262649389985196
Se 12.721668644929162 13.226048751126699 17.285153627267135
Se 14.846095354973373 10.120986460868062 16.764636906220392
Se 11.691426886402098 7.971292494706416 17.159349337313806
Se 10.17552814763659 9.768398065673525 17.301146226555918
