44
Energy = -150.78706708 eV
Se 8.695212314578253 15.151012603909043 12.347371637611309
Se 7.796581778687082 13.508320907887933 10.831527797085215
Se 11.111961816404069 11.853724072688836 9.815450804371519
Se 10.925130190696635 13.829198758437627 8.687460588610431
Se 12.294401997303423 18.541507940813197 11.79503183320334
Se 15.618907368834387 16.176354769034756 11.131003498229498
Se 14.761554560390131 12.416712470468045 10.54015515458217
Se 8.689451805025149 12.371780341632235 15.167470160287268
Se 8.957557261925437 15.952267902370695 16.36759865331596
Se 11.77501116992838 15.527669403010728 10.189572946087482
Se 14.914553176262247 14.533548885520908 9.494563482546543
Se 8.987535878861422 11.58063081219311 11.129138202993667
Se 7.77383017264451 14.020427555934702 16.666695682015266
Se 9.745086592722137 16.605628123766227 10.81201615477073
Se 13.8566695357167 19.997286545332763 12.782435138962857
Se 10.918404352439119 17.937661419534734 13.796592897305535
Se 13.989282221063654 9.247144640046177 11.50747149960787
Se 11.974342433532149 8.246506273822607 12.157262307280416
Se 10.92456500233449 9.60467614485615 13.74723932860889
Se 14.726605463648005 15.143840889874655 17.008851652184475
Se 14.87289166850554 13.024042894564532 18.053403788872462
Se 19.419482320838817 10.901920837065813 16.43610239152384
Se 19.799649820012576 14.6948542616542 16.586535576088444
Se 16.58861293293131 16.40689743898257 17.75030821263569
Se 19.45898991090055 16.658187782921267 11.109037241917546
Se 18.262100245852448 11.223767703723873 11.54070107283332
Se 11.749892315776771 12.01780712661125 17.3535125319325
Se 11.079046913806835 15.69368609706958 17.68880944911958
Se 18.23943579718642 16.343621723042574 16.0500805199508
Se 19.836711839602113 12.861158833789005 11.008441691245581
Se 15.586987309884918 11.37889339684846 16.42542794708714
Se 10.890018310896048 13.728615251168874 18.835732365539968
Se 15.336264579533344 18.679596498388808 13.999944599363507
Se 13.961165916867486 18.300630299430903 16.066577862811485
Se 15.344676482405509 8.870886208126993 13.587989419906707
Se 13.856392884079394 7.546491264272016 14.787530780055508
Se 17.265406477432006 10.276802938772361 17.53111274917946
Se 12.278391025005533 8.994546437542779 15.761945680539588
Se 16.632339912007158 11.154452040439963 9.821206926467493
Se 17.295122466901024 17.28886387798189 10.03382304061252
Se 11.9504645823681 19.298148238246746 15.395925401411295
Se 9.726612652162629 10.930438427748287 16.723779410130987
Se 19.086306799936036 12.80029483475987 15.232760951950377
Se 19.143503045201 14.776606428803841 12.341512272253738
