45
Energy = -153.49529956 eV
Se 11.327678057942784 14.955105274142706 6.346695971985329
Se 9.972031877328005 16.854926984329325 6.448807567219654
Se 10.664053798592759 11.292143409352954 6.340549537706765
Se 9.81453053006924 13.212106863239272 7.160054871704028
Se 10.298135699001543 17.90853358903455 8.519861349700378
Se 13.926086706089398 16.38951547873156 9.386915902896584
Se 12.350762750494523 9.69471728179118 8.229364323035302
Se 14.492148808753079 9.407665598549142 7.426189498187941
Se 15.834390011527983 15.058853525830322 8.985123196236628
Se 8.54687175454382 16.81053901632331 9.828022719183302
Se 17.75581624221752 15.85435816012905 10.083600236868907
Se 9.041595124547543 11.520586511957925 10.831871289682287
Se 15.929366754404915 10.353413911383104 9.10533892002065
Se 13.813901778971292 6.459010468843258 9.811524239620937
Se 8.159604809922193 9.382397874389731 11.31757152718018
Se 12.809058710735178 11.026545328736445 12.594495718931748
Se 11.906044537885835 7.7087854207287645 9.792932468692726
Se 12.655522025878545 15.243665726792692 11.029302965113718
Se 16.907763583979865 8.436285110822995 10.046466581858436
Se 9.035710116696137 17.182082592499306 11.975595661505386
Se 15.262936855086824 7.498612263740127 11.438083210706793
Se 17.73300484212092 14.64150110838266 12.132714270574688
Se 7.273009417893919 12.945153995689882 11.49203285922832
Se 12.50210444594107 16.701706294927952 12.892558716075667
Se 11.751312572281329 12.965372115167193 13.505458865816177
Se 8.514081988137477 8.837903021626536 13.604577450752888
Se 14.07124406062511 16.155893833778528 14.561947988197014
Se 7.923028514320611 14.096055964204673 13.468870583160463
Se 15.067967315015549 11.665245434044834 12.878512377554305
Se 12.139138998714522 7.43159837922855 14.234566454542124
Se 16.211610568715304 10.278058016584744 14.387966517672128
Se 17.83209498529007 16.200961268713908 13.892055378120334
Se 9.895511524044121 6.927705194453963 13.69885644949101
Se 8.272000288684513 12.385303351923325 15.04839147817958
Se 15.917172041320693 17.548229943486565 13.964269476380817
Se 12.56016568272792 9.399750205443809 17.539947820058455
Se 12.273997712063208 7.262092631049926 16.598953564024505
Se 15.823505973758287 11.228382671823466 16.54409353678122
Se 10.620326632049045 12.661395800746552 15.529041621073283
Se 11.602951860512087 14.992845588957183 18.010166798681244
Se 14.53412139583493 16.077685897789173 19.028348644844847
Se 14.915590514523096 9.525342214570907 17.862857118301644
Se 12.095212056555713 13.374951607516087 19.579389842668746
Se 12.320399663604999 16.948644820090845 19.201201798807627
Se 14.340354098990929 14.192287936844664 20.338770319368066
