49
Energy = -164.64669313 eV
Se 14.426042139095449 9.129339957467094 14.392282067310934
Se 11.544690808077501 5.013445859329843 12.085782288918168
Se 12.157409362816164 17.545344734518345 9.770040600634387
Se 12.903794012661464 7.396042857016455 9.238727826969852
Se 12.1366854624969 8.456349100401864 13.422620879778686
Se 10.141098500992184 6.517467278619756 13.289286455074436
Se 14.627112554584755 15.029962817639163 11.164578744393179
Se 9.043715232171625 15.744333985492213 14.600953983003837
Se 6.809312775923783 14.27069038707068 7.877397829722843
Se 8.07412880645028 11.158214709121907 10.885799379405292
Se 10.52887135764951 9.318030781541841 8.52369104692111
Se 13.430805246612659 13.37549445669324 14.570848219388402
Se 15.948939278691173 10.859282261694704 13.424527180033868
Se 16.576333446255163 12.389439321762135 9.436079213671471
Se 6.315494005877222 6.6781549700992695 12.901334013804009
Se 17.24732735727068 7.84869057931098 12.190551596853938
Se 9.984500786617835 9.761952274551165 10.77763168119036
Se 9.678514742718255 12.997443280611341 5.596733253366781
Se 6.108754819864226 9.838531078269277 10.918374396097121
Se 5.9061493351807215 9.047259426178428 13.114132495047453
Se 15.623674530460805 12.290478542462381 15.215139848727116
Se 9.849430143643348 17.209792330881747 11.402101759076663
Se 10.297632663328512 10.097093341616882 17.06001206574114
Se 11.40288852006205 15.503006215058473 9.155698199830969
Se 11.884984938303338 13.004078991520542 6.485773457781821
Se 8.102546097547211 17.352401184404183 9.580546195633943
Se 6.9959458381612185 14.990287275587816 10.045341574674964
Se 16.51955491881429 7.824414621239212 9.734025669948853
Se 9.01467115545983 7.539600198608194 7.787736552670296
Se 12.489881606655779 15.197190783881222 6.921636977577722
Se 12.315072659587907 13.377173218622765 16.846785607420735
Se 15.010665100358226 6.099394360781876 9.58596712182569
Se 15.466752202012984 7.095818454032078 13.445151624953116
Se 11.445978531529892 5.6169031464810155 9.80050989315326
Se 7.857805507770664 16.825614592325707 12.89492464723547
Se 12.200699593554859 11.339722066350854 17.88805936828386
Se 15.166515768931767 9.37337909370637 7.731025367417522
Se 14.491535534554897 11.278862600111957 8.78755044586204
Se 12.740997596031551 6.9556843249380975 15.12336602669743
Se 8.254310637432553 6.423674968220419 11.691124188189113
Se 9.480402443524069 7.435890549812299 5.601868425290853
Se 8.291481630231367 12.425761413008274 7.404004510679918
Se 9.588404485864695 13.545652737597791 13.930263052228087
Se 12.744534792931292 13.83401884748081 10.61887447617946
Se 8.028004073046928 11.999129859839266 14.798855072636059
Se 8.955337943871404 17.116564979280863 7.548779606268562
Se 8.51098297133955 11.608283402036994 17.085198819541603
Se 13.608294824259435 15.601962634077626 14.399142742521857
Se 16.03938985359066 14.63074690774339 9.217220145234796
