40
Energy = -135.79907377 eV
Se 13.18681173246404 11.28843729271628 7.203093922189493
Se 11.616306424361992 15.81604298244545 8.323641015880433
Se 10.843510115671585 14.591498835632946 6.457406401462668
Se 11.195236429511604 10.054408967767124 6.852549118407237
Se 12.84271600940022 14.428094811335708 9.812528255316549
Se 14.86946763519623 9.687927519793263 7.722904040595014
Se 16.14222298388231 13.559302904126728 8.055944368832575
Se 17.25901408915661 11.946712064966897 9.348212254366352
Se 12.011306145391401 10.73234694028543 11.602831993486621
Se 10.0114981400586 9.580886037333363 8.802538060631454
Se 8.526371858445014 14.344848665254279 6.94323242621036
Se 7.885771202793068 12.10369237791833 7.184052561296918
Se 11.045566910106857 18.44569644723938 13.468368118726843
Se 15.583973610369867 10.308952658919079 9.868305427586392
Se 13.860728374945284 7.185787689772736 12.203325644953823
Se 8.651312597307959 11.48971677297755 9.3674274055984
Se 11.833983299277104 5.912895105884394 11.428601529359984
Se 15.082506437922117 15.106124701664132 9.507576734032757
Se 8.823522752954432 17.600278223365752 13.070009162021842
Se 12.4850841422723 17.068713861904204 12.237016257918883
Se 10.471617218589977 5.931737117637041 13.237486608162659
Se 17.113708638759068 12.151957622463144 12.703491314586982
Se 9.992438673449888 11.46431572104457 12.24145766304648
Se 12.21551403093551 13.604201525554785 14.003739991238836
Se 7.331559462086533 7.800862064527935 14.10034731449221
Se 8.847327093683466 15.300171003744712 13.35528699529541
Se 13.603333704463438 12.15531856175505 12.94485342868289
Se 13.853785692639365 7.002575601041663 14.489673954365486
Se 14.23906919835977 17.05816383839143 13.94694240068352
Se 9.295857454401181 8.112117229153242 12.990759326044934
Se 13.221390600410096 9.162120173840165 15.382011203911752
Se 16.063035881226657 15.550329019688862 14.011834567231675
Se 16.55210576964736 11.843993896639896 14.856596528108833
Se 9.428831466648578 9.973722860580043 16.305683557456096
Se 10.447725412424871 14.730266467264041 16.711555486845615
Se 7.877737440479094 8.268822837519583 16.469241916473724
Se 11.528288009013126 12.726037311754196 16.236709737991017
Se 8.352349259193533 14.69513997503751 15.594547456683419
Se 16.13849122652762 14.071845703515582 15.819181875115678
Se 11.5248221519113 8.999835883882195 16.9949332510465
