40
Energy = -134.91080673 eV
Se 13.234187353561978 13.768438687463524 13.514764437862103
Se 13.920408759275855 12.843976428661726 11.493415246125307
Se 12.710383450731243 14.91137441232956 17.954302333385474
Se 15.521889521719192 12.613440609029796 17.52670981386346
Se 11.252965330841132 13.501066728429041 16.790982216535983
Se 16.57916764578394 15.491843826536568 12.78371106631789
Se 14.094147207145745 11.082809808653487 16.443391015354663
Se 13.739049558190652 10.453668260509986 11.702209071191575
Se 14.771708128166253 14.750837881817885 16.785316678682864
Se 11.877751830515356 11.182298380976462 17.577688120447586
Se 15.152783291126866 16.862108572241752 11.583432837115783
Se 10.375656177364856 15.85200176825119 14.718370743490947
Se 12.120762782830694 18.867283960447345 10.215655732700169
Se 11.473781892807013 17.908515392287605 15.233057641426566
Se 14.071687522756779 20.012107529302185 10.801385978103509
Se 14.735545723923883 18.957525099538888 12.781782485308549
Se 10.821986681602777 21.007914982677498 12.967599262970268
Se 10.327955588071102 20.345973033030063 10.781539759063016
Se 9.909803307719812 19.549463871908173 14.593851575470948
Se 11.16676752128818 14.835960536261458 12.77035933111099
Se 18.745987275837408 15.761348186779378 11.664717980550138
Se 16.41934311448271 9.688282649700845 14.380548621493759
Se 19.003925165606205 13.975210494649223 10.289067543642847
Se 17.992075872897196 11.405912169529053 14.825076229879755
Se 21.07647291598226 12.912830261668681 11.536249741932693
Se 21.213896422512082 14.09255511595542 13.391933990956986
Se 20.77955895559485 10.236709924497832 12.254019626137032
Se 19.238415422869323 9.320168036712857 10.943924491766857
Se 20.102923642557244 10.467123565974067 14.666642155590466
Se 16.01466559660527 9.88919393393766 12.032964893885913
Se 8.469921836239497 12.146881980496058 10.787079743304274
Se 9.590730579109605 8.218378870549541 13.483367849608134
Se 6.699768476779122 10.863742570913878 11.117446687494198
Se 10.87045449787972 10.019842913864357 15.911450070315531
Se 6.907828397437792 11.226502440734425 13.937680885092812
Se 8.807096059895816 12.350339574408158 13.854161210683294
Se 5.830091082799009 7.785922564494515 12.690627424367678
Se 9.473666043715273 8.529361762947456 11.14816731337955
Se 7.228854259612677 8.55001546456773 14.23773773921164
Se 10.447676084230569 10.532808691850523 10.59935144898582
