49
Energy = -167.34598456 eV
Se 11.91348098408723 11.741432733610472 4.362628832122036
Se 7.702647668792911 12.418587998031864 6.5945923871226615
Se 9.009236954111548 12.777777934257204 8.384786551517093
Se 10.217941545352001 10.119154057238806 4.432796653133402
Se 12.09935331002019 12.529566040653078 6.603728457454632
Se 11.060891709838181 8.01561280020898 5.110219860615438
Se 14.319870800643496 11.99839666723556 7.241970049555006
Se 6.3169114601814895 10.408094264714462 6.985028967263264
Se 10.23407144985893 10.563425838580729 10.551733762966427
Se 17.208473653744704 9.71634900838053 10.164490837364802
Se 8.513072659694451 7.360776772359535 7.807592811799126
Se 7.627738752950487 15.919121527458056 9.675717180580936
Se 15.375744654423087 14.09993009208996 7.143383818878229
Se 10.76813827525546 7.945234556382157 7.453719159100714
Se 12.891483981633012 8.278086846541662 11.225983482156623
Se 7.408352625751141 9.28914057645821 8.693599001468082
Se 5.5231259489771345 14.891830677545183 9.3608122276885
Se 11.20329319216253 9.726794160540747 12.424527392161696
Se 12.839425515182151 15.524967168333518 9.529185208200364
Se 7.554922161883099 17.484234081918423 11.466254578983
Se 11.855255869195949 13.51198879970344 10.359702216366237
Se 18.354788672319287 12.463487931797383 13.945425370320505
Se 18.36163356685073 8.42024776231556 11.76869961599135
Se 15.123694144604697 14.991976659128273 9.327494051463548
Se 17.258975309668408 13.055040641953536 11.925729241455764
Se 15.879028128781354 11.206688396460786 11.423243173587153
Se 11.488148154532908 13.81995175454893 12.71523744868838
Se 6.651116179187794 10.953538634351359 13.187866940584293
Se 7.110652902593096 11.96300375726905 11.091871292141876
Se 13.534170521216812 6.397293670522762 12.421205155430451
Se 9.909960594884708 7.708458222808714 13.242623661122114
Se 13.001981743127624 16.893679912666794 13.686135673446074
Se 9.16089777117595 16.706367365394964 13.010339404760689
Se 8.779081056384397 8.355203903196198 15.136493722866492
Se 5.11636144801588 13.365604745184898 11.082109694927397
Se 17.251016569195585 6.368468754818013 12.038379289654335
Se 15.546730478067941 6.7143984236956795 13.638430240828853
Se 16.71954086635741 12.779181072178096 15.591474216339464
Se 13.381487651376105 13.114265043005126 13.817641975274595
Se 6.373749886591255 12.604656057534925 14.85100947012189
Se 14.510930405795285 15.365985152432492 14.217122228706392
Se 15.512121817651757 10.684443346127127 15.53791885112342
Se 8.116183820083782 15.925770149806528 14.999139968275703
Se 8.458191300552208 13.630402013743229 15.366327242018592
Se 10.21408834069838 7.924648518549922 17.017505488907204
Se 11.837797234901151 11.43753136978961 17.30184458464708
Se 10.184938330606817 9.957309584887605 18.176977314272968
Se 15.343061045391577 9.965469182613276 17.73804369265695
Se 13.705188474190477 11.435374959519411 18.700207142430816
