49
Energy = -165.66824443 eV
Se 10.394948257624195 12.124362996356249 4.274845234329499
Se 7.642827622154999 10.885048580443028 7.322558862133303
Se 11.232143471725994 11.620703806047997 6.560250648880842
Se 9.64257105293895 14.26465145310807 4.810157501683143
Se 13.152296760310984 10.395521626201043 6.375490737899189
Se 7.363983537211515 14.035820947829002 5.410657961035112
Se 9.82492368938793 9.982393519351133 8.027790478452859
Se 9.668640826283683 13.081563019678814 10.068610615067882
Se 7.360739812405689 13.206033673762821 7.633564008547493
Se 12.889639357256941 16.067645951432464 8.867029073897955
Se 12.19807051682725 8.576081422141304 8.147936340236534
Se 10.603563644589354 17.033545376997417 9.407941420488404
Se 8.987497820862057 14.416541263076674 11.786658897579857
Se 15.668586331330035 9.849368868715679 9.475887729844665
Se 15.103135441598987 12.140508343365996 9.954263449071485
Se 10.864788241209462 6.7194804190052935 8.908422360250013
Se 11.280908283486744 11.319196639447114 11.070182150537969
Se 7.312714051521669 9.316956322883538 12.320945153890474
Se 7.0905127544603115 12.315292478050837 13.477234514877978
Se 13.571199839064679 12.10323321298444 11.696655486171094
Se 10.308180920592823 16.57511759767068 11.600927609072157
Se 17.119325148642428 9.085697006489001 11.109283709906695
Se 10.180719091140412 7.406499656116234 11.098378764620758
Se 15.673327259383088 7.559201095606327 12.42990437981683
Se 13.751068116572426 15.699562302357757 10.93712278988941
Se 17.1099519289973 6.803216724046748 13.992027232693612
Se 17.350345202223117 10.599093490995651 15.294547498886677
Se 14.828905930623499 17.7349362741435 11.757713953005174
Se 7.722909608237654 7.169384199977153 11.634993354506488
Se 16.744004363383663 15.693045764282921 14.212216641283778
Se 10.726024500227242 11.121638393171532 13.264885700935801
Se 11.16917589024645 5.938595863354557 12.847366939199404
Se 15.361347479398727 11.300252276170292 14.492865245264342
Se 16.98695724739837 16.970984319393025 12.223918436682542
Se 14.443893297280706 13.101381233705538 15.881177817414102
Se 8.04557058644253 13.120873751643227 15.354546725564612
Se 16.340707396618363 8.186703587525164 16.10130471894283
Se 12.218414737870134 16.93562918879315 14.99473929368606
Se 10.163543555992241 16.05742337674561 15.55352798015192
Se 10.930684344088196 7.30505905982635 14.693550963539748
Se 13.38401231343668 16.99269874452789 17.147172495620765
Se 10.532138987805208 13.62307331105598 14.885043433823276
Se 17.07620573357855 17.03260124284742 16.110711511156534
Se 8.568535933063856 7.280801686130122 15.25672889934906
Se 7.8715124529811025 9.42393091971692 14.7139331380067
Se 13.009531788796659 12.468591107455504 17.589207321880718
Se 14.215424553695078 8.559249269599674 15.671254421763148
Se 15.135469659600727 18.369655254682748 16.4934421411455
Se 10.802730934433077 12.05546365609202 16.684734532318448
