45
Energy = -152.76970939 eV
Se 11.252108882148738 14.711202708440172 7.28359731905323
Se 12.505959440345013 8.80454186681461 6.566388596773772
Se 9.099370910348885 14.320673219136859 8.050460572261684
Se 8.73896685821777 10.469008305674008 7.017484220302908
Se 14.333224148937706 10.080625071148996 6.792354115041231
Se 11.042147281411799 10.722836534621774 7.243600340086716
Se 13.635616839172618 17.030694712817386 8.950477435607969
Se 8.2267807211424 16.44493820826485 8.882951132694926
Se 17.556102325479607 11.046677828662148 10.0041140403058
Se 9.741304956459935 10.793008124362613 11.833262864460329
Se 12.799802365794688 7.417317309545498 8.693788272615096
Se 9.730096705014331 5.202600934975361 9.353704381231442
Se 12.124431610449362 18.617554132723622 9.817970001080177
Se 17.08831493337658 14.051933634851043 13.146385530715506
Se 6.908385306502078 15.76200203449215 10.634640749282873
Se 7.830210275023435 9.484912053778425 9.000020859974397
Se 11.101345034392516 12.683260869822577 11.15793614538452
Se 12.779852658033153 14.841930449500385 9.136818083195633
Se 12.028847693580119 5.282314855885402 8.521406777668163
Se 15.62200292027126 10.126271719621233 10.550694211293035
Se 12.169549266420713 9.174996855472013 13.452580001773123
Se 9.604233669213004 6.7818105748280155 11.049071012364452
Se 7.693871707423677 11.100683208236305 10.713383979791631
Se 15.468922565219813 10.622732231985104 13.15430728801422
Se 12.803028120566085 19.222677341257636 12.00379466054255
Se 12.54663065952499 6.837796453502054 13.36686422363414
Se 10.368379210889092 5.89123654659394 13.115507419926274
Se 8.556172694023005 15.493406488110235 12.458897457856683
Se 9.068086414070445 9.623301136461558 15.762544798842395
Se 16.173392404506146 7.535189116027696 10.855621026605702
Se 15.397392092641827 14.470814824027624 14.704564745395915
Se 11.204300601166523 18.486748367271122 13.566339435108118
Se 17.467464739887536 11.668484446711863 13.369478053811031
Se 12.203502414286588 13.200558799608787 13.152831267117127
Se 11.490029179467314 9.866585371385455 15.656357387945807
Se 16.120681659930025 12.152622516928318 17.56955039523028
Se 6.759382760689208 12.422384613288488 14.203097739637863
Se 15.797858861751768 6.9665066783242535 12.974333490804126
Se 7.100036927581253 14.77264944771892 14.136846606128245
Se 12.142345481602701 16.71519626135349 14.83000481991683
Se 7.976424892654607 11.649772856896762 16.121635593662454
Se 16.3273942344432 14.388843026509846 16.889359271343288
Se 10.910803072920594 14.725675794166815 14.527841704021078
Se 13.966775431170255 11.970934257277674 18.61926159863992
Se 12.406774249088981 12.232393388156495 16.97617555009657
