46
Energy = -157.16187137 eV
Se 11.44381127220665 12.461997742686686 16.176252910486678
Se 12.874630216719636 6.71994039855734 9.533932099624579
Se 10.857719902540845 16.859578378438002 9.306495835684261
Se 13.05707715845116 10.475363498632728 15.958996526678483
Se 9.97263565587481 11.858217027345944 6.351910093131145
Se 14.972779139562636 15.070141201315815 11.519342662021035
Se 17.455268007294165 8.214615235712154 12.869425383746805
Se 17.648814197881855 10.081025662925734 7.563828958194572
Se 10.603910851964924 14.803161037067936 15.03753073630428
Se 16.4831923584365 12.140996897408966 8.522557176250979
Se 13.076470750633257 10.736850838819569 9.31709106389293
Se 5.630271119235622 7.971197177865384 13.702483635531266
Se 4.024171145792264 7.7746397304475305 10.210141895936996
Se 17.087812423197498 8.45263644732242 9.026298648805083
Se 15.740994284425636 9.609029787802255 13.693016829850047
Se 8.570247309789675 13.906724197181976 14.561540164292284
Se 6.546921509938026 14.944375091788556 11.284065478845122
Se 11.269267154661604 8.219431921984441 6.427391780178478
Se 6.367733773348459 10.139112067065447 14.292119802728628
Se 3.652076321566178 8.377335537088591 12.492961854843895
Se 12.993457010946367 13.940600327006756 7.7901570858201445
Se 11.514395038486429 16.274169843895123 11.559272785340577
Se 14.107492807403467 13.451810806148632 12.997585775401914
Se 8.384219928980116 15.47658855833351 12.555608090561206
Se 11.041610093128284 6.548115477298309 8.02554280947824
Se 11.69746596929473 12.292950153385263 10.471383276102033
Se 4.332692835812819 11.283462715099507 9.073222802398393
Se 11.704826763538742 8.577470528802651 16.2229105969521
Se 11.004481900747603 6.89690710404875 12.867661989012595
Se 13.695724146105475 17.026427501521635 11.983053968329337
Se 9.381426568978014 11.562715189738807 16.052448418539672
Se 7.570134886741913 13.33386967170934 9.748300885147527
Se 12.614453389673743 16.289068717190844 7.87739440636077
Se 7.0642349607656465 11.170358346530474 12.268423973288455
Se 8.97982165273793 9.980090570672706 11.587717614323493
Se 12.467137732791173 6.927351201699945 14.706314587559525
Se 12.062469588137798 12.906322173639635 5.880662404683939
Se 5.546009612434004 9.176420547807405 9.169165330024503
Se 17.023428392762664 11.495249526165011 14.522653101605096
Se 15.370098456650723 13.096318871164389 14.985127254054328
Se 10.894273479121498 11.14896341111171 12.392372296755866
Se 5.90671667135295 12.766217926186892 8.190508625745695
Se 12.081011646851334 8.239540292227536 11.189954890304103
Se 10.27949046054879 10.028212022057227 7.757180867265487
Se 18.543783981502497 8.95091284232339 10.936147980047211
Se 15.296172550634472 11.236914727637423 10.235596034488092
