46
Energy = -154.13048637 eV
Se 14.16989666191372 9.848202315055344 20.094425163706862
Se 14.695508226920296 20.739239279772725 13.159000562613198
Se 18.118955370262356 13.484855048471065 17.27503124889773
Se 16.354737145923036 19.507283837890093 18.78429239634854
Se 11.514957107683509 8.138334742312313 21.00134104263823
Se 10.797354100486077 8.917529913802557 18.952766828134692
Se 17.373583552145902 15.96984308766481 21.657964029065976
Se 11.159649004878316 16.62790823378452 8.622717771024552
Se 16.43426276989502 12.588698002016535 20.608593451146188
Se 11.608401652327766 16.591892060702264 11.868201862997918
Se 11.569505516381213 17.08529274019702 16.35895438909032
Se 18.965281212759283 11.722938810861459 11.62812544160802
Se 18.801532526450593 16.72429362462959 18.377319920809274
Se 17.175381736565768 17.920704232509554 17.196503855382236
Se 21.712699025363065 10.558592988935862 13.947634534343067
Se 10.602663576517218 18.379672623421918 7.401982589252553
Se 15.10587935189948 15.83793173118641 12.712607974973308
Se 9.675018689530052 17.177851618569242 17.522175815737796
Se 15.399296329108621 13.89939371294317 11.29373330357333
Se 20.339342648167076 19.040141744520643 15.408784077092797
Se 12.457745418879664 15.981392811386481 19.750719229558356
Se 19.36447396274126 19.5391204119091 11.797351726591437
Se 16.493897504435445 13.993700188538028 0.15627466499576798
Se -1.1072750295629281 19.89458125282213 13.555707910775103
Se 12.868919353456937 19.460888540407737 14.16439568241919
Se 10.180767083572833 16.270148096861043 19.816320062640955
Se 12.897040223536013 15.63790912158728 13.583557320352323
Se 11.289709600834449 18.957929520406942 12.578914062860957
Se 13.749066833962207 7.510741810317631 20.459415960704046
Se 14.064347032104068 14.920756912218495 9.541088019399652
Se 16.59677472137323 20.04803545599531 14.307848845489856
Se 17.3860649499428 12.662569033209225 13.225333550588175
Se 14.514404640029 13.07619181719769 8.064960979833302
Se 17.61824138092203 14.76244102933417 19.34823246671029
Se 8.740869177230286 19.29267677857344 8.903152038074163
Se 13.385918701325217 17.96531042739207 20.702262579921733
Se 12.814461334929174 10.216321546445755 18.26201023996643
Se 16.998920407761165 11.489954369055344 17.83768073091686
Se 15.840682274552675 11.731343212562274 9.317697590077463
Se 21.002935032195314 12.410171032425993 12.369839412894493
Se 14.020479400697027 19.366297505670772 18.90234298904842
Se 17.723344293158917 10.136158100450952 15.948687644694683
Se 16.305735006110204 10.80376020403011 14.197177500578492
Se 17.824955439553587 18.394351527874306 13.024178112644307
Se 20.076640328304396 9.064484094334036 13.908762750701232
Se 8.819906476617895 17.752053239059265 10.482059446986739
