43
Energy = -145.55049682 eV
Se 14.045820427983776 13.053529983587453 6.667012934931569
Se 10.441508421843679 12.296891960807544 5.689764041430167
Se 12.116724575874462 11.679908356869388 7.148540909379116
Se 9.105378439090446 14.12653734806821 6.593758610103519
Se 14.688290337123158 14.016075743401508 8.740199248026817
Se 9.382778483951133 14.170501696953039 8.903224185622943
Se 13.757732807217218 9.22691924427783 9.064405883591048
Se 5.619844112347448 9.098640289399581 8.909777813269793
Se 16.937836407191508 13.312727634488471 9.040376938895808
Se 10.704575068557073 7.249506424480014 7.913200467522273
Se 9.4805377421134 5.537949111865391 9.594839578592076
Se 6.0967175703761 7.188351721802556 10.103540029021447
Se 17.27822558476029 11.430542112689565 10.436115634490601
Se 7.621791307628023 9.75523836301836 12.826262108061771
Se 13.012939311754687 7.040279701203638 9.001288654300666
Se 8.400232525425901 12.355327791101816 10.025098794491543
Se 5.975985151114342 12.719929913776825 9.868180606038463
Se 5.217419046232707 10.716882900155245 10.709005119515371
Se 13.322371872589235 10.144411671857462 11.185177021447384
Se 14.423580731835255 17.128105115529735 10.03216947648571
Se 9.800282703094382 9.177947346316854 8.538787426005017
Se 10.999843119854011 10.952053650620973 11.149757984948312
Se 16.42456390277015 17.110573253046578 11.764477216990512
Se 17.892885036868865 12.23302666745662 12.570782013652863
Se 11.62447999101728 14.646824890320296 12.370461765003693
Se 12.856222688193348 17.52904631962178 11.53625417298935
Se 11.20646715340751 12.296199202851467 13.031168868452099
Se 15.178150726096689 17.532126160827183 13.522165708029767
Se 9.80453242857201 15.536972952498363 13.563655315699101
Se 8.447932457948308 7.152360942506622 10.82040068394862
Se 8.691761161202354 8.678314742794031 14.494076794251155
Se 10.782766800271954 7.295639163264823 13.655317721518779
Se 10.601777501202669 16.21768377240513 15.675454100150093
Se 16.1768854046981 11.593824817175715 14.076797171430398
Se 12.565677644641374 8.623436116062205 14.142692316491015
Se 14.49650998086804 13.266678252235998 13.905669839586222
Se 11.260757254184078 14.142300548489306 16.671722868570868
Se 10.023995062756219 10.388989327099926 15.771048204900532
Se 14.733663698427288 9.881510281209192 16.772519921819814
Se 14.80946201629475 14.983570110676277 15.474959795123432
Se 13.146478257003661 8.322812283933988 16.594942833788423
Se 13.456410348929422 14.487185645646042 17.398912282536358
Se 10.849134183817926 9.16359591473621 17.506966386025713
