40
Energy = -135.69745456 eV
Se 10.286154734713122 11.65062016569105 6.841016807308354
Se 12.573296436296285 11.398259968863114 6.28167177476408
Se 9.567601513354633 13.77586507716186 5.992910529311322
Se 13.991773659879684 12.00449609507045 8.024733864413149
Se 8.129780104250449 14.728940322536602 7.543964512926815
Se 7.943127268709642 8.328471970204472 9.731142247736816
Se 15.012586497368842 14.093951587093217 7.229590342045237
Se 14.736376177841153 8.231568019873087 11.093504634264951
Se 6.146391325169184 9.831674995249152 10.029262644604373
Se 11.470872054709918 10.079916848101616 10.070041322846217
Se 16.674303215216522 9.210353981231137 11.876127110031922
Se 9.306538771174052 16.373528459941554 8.88811583152752
Se 16.16702455108031 14.598148488532496 9.154054713419326
Se 7.528740503882677 6.587046095531536 11.305922008806087
Se 14.229217460329334 5.819375310966049 11.914928431414353
Se 6.686677528819485 11.66405679116708 11.406499539411428
Se 12.811704727939215 5.509005522916035 10.225222100358051
Se 15.234918607948785 17.769162486383287 11.181996541366052
Se 10.494534527494148 11.992345287805618 10.91151959603127
Se 8.37703902821315 16.283356222745624 11.019351315270644
Se 14.478452460790116 15.729081997004915 10.535699058385896
Se 12.715577342410429 9.976457097970643 12.459022962718315
Se 11.498683031690296 11.955016471398618 13.089747345164401
Se 16.043344122263676 10.851136867843186 13.56955280057803
Se 9.084419799652379 6.914206352072746 13.017748290461919
Se 9.66876693033536 14.90107398204331 12.462079732415084
Se 16.39488575541845 17.23682717737078 13.393647603477802
Se 10.637366527509066 5.109608097867408 12.353628065911055
Se 16.61223654088435 14.999515328404925 13.375846158997145
Se 7.209423568233335 11.753730135244906 15.233599211883849
Se 14.114109890901046 9.828648460083933 14.528189689963293
Se 12.18582645956788 17.014455528728806 14.633874326973995
Se 5.709752002037272 11.165841268836303 13.525814083669198
Se 11.75934362587882 16.147746535553757 12.568579982995969
Se 13.56921015468285 15.247549949023101 15.761098844634587
Se 10.68387308139237 10.252097395140632 15.927983344603375
Se 14.42142366620459 13.96615838025058 14.098141278413987
Se 12.283905063864786 5.109050795848816 13.873925563471031
Se 8.320636626598345 9.908709149251616 16.216396081056832
Se 11.598353207383104 8.361193885083997 15.012098258455495
