41
Energy = -137.88372388 eV
Se 5.64834430865558 6.559548157372933 6.971426205774919
Se 9.4135437304767 10.002483715487845 4.196756051637402
Se 9.992014446813595 7.651527499336386 4.446179447380657
Se 7.33483867708523 10.16155017603747 5.163041425530387
Se 11.811542321659068 12.382239051217176 5.430158034393553
Se 7.373562151766892 5.189680977542737 7.515950550771049
Se 5.697537735177933 10.0016993924659 8.379007813678582
Se 12.85046798118585 8.366656568667294 7.14886394911188
Se 10.308519323080587 14.181120295429473 5.339308798161719
Se 7.850976276361907 9.7789605187674 7.5500834561252566
Se 13.948237472039892 13.177261756477092 6.127564905569098
Se 12.277253301135989 7.708817777083121 4.947831863015204
Se 14.29284791066374 11.803328499467913 8.004507921881489
Se 6.336007029632702 13.803826212090641 8.114489560980289
Se 9.87872469434663 15.067722618345202 7.503194746180746
Se 12.817447875928927 6.425053632106451 8.527395117960243
Se 3.9332936728084977 6.359406356715327 8.772284628031317
Se 8.977100873960625 6.239719683495911 9.191076392007103
Se 11.45641432623033 12.783874027902131 10.516464588258842
Se 8.684751566833791 13.497963303065973 8.773134153198182
Se 11.451956216489535 7.055560064637185 10.363162731088206
Se 5.075813234303383 5.377115984705328 10.511189376805019
Se 11.20486635016485 10.319474456083954 10.409970592804797
Se 13.766354170073292 12.836505649420976 10.074641598474695
Se 9.10752098796957 3.9201945666897022 9.986899948268494
Se 11.212576227478067 3.2869086597251136 10.341463008381215
Se 5.605222921203053 12.129274927829506 9.56334121534918
Se 8.614000464814529 14.097559335410969 11.79675361267534
Se 8.925931103519353 9.967258731116694 10.45063839078119
Se 4.599594408502398 8.382013894970338 12.242573176582237
Se 13.358565550750505 7.282991789586052 12.132808515514165
Se 6.505729422945171 7.077684101885836 11.472322972782445
Se 9.74956724351346 7.459411774675136 13.254800185738864
Se 14.665414709323839 9.229111455892536 12.13577247874592
Se 13.882165770560952 10.45601646980131 13.947067792730435
Se 8.539990164228783 12.577542751434097 13.462068813525613
Se 10.774193717451329 12.401823488758158 14.387114400440494
Se 11.785958354841934 8.771380378850557 14.067486387041694
Se 5.225817037785791 10.534722603064349 12.435603743086103
Se 8.326599952192952 9.241890900276927 12.737975005597354
Se 10.678835780237236 10.393217260304189 15.547725908132783
