42
Energy = -140.74097117 eV
Se 12.94982936111217 12.724545277223053 6.37685667673021
Se 12.776396126760645 8.747400050356637 6.257832624845006
Se 10.495822956640346 14.238038153834722 7.9836297456297185
Se 10.92756714732171 8.401087630369322 7.478038769318711
Se 13.962987963613513 10.925830367642382 7.222603022810502
Se 9.400620416455633 12.101935441603327 7.738765225848114
Se 15.070480764182353 15.366421612070775 8.835030543732117
Se 8.838598459996076 15.868095453129182 8.420814882833653
Se 14.748195215352613 8.379750008475707 9.29903878293676
Se 13.192678833015751 10.344996593662726 9.599954093303012
Se 9.567498537884976 7.250171751448811 10.96984576208079
Se 8.324582706219394 11.786759551382264 9.75580703853573
Se 13.117003306608092 16.954148371267028 9.31725052883192
Se 15.400979194510327 11.478911815187011 11.019261820310913
Se 15.525743934802705 15.245776722197055 11.094744284101719
Se 11.30500268870983 18.24155778138297 10.78111253685709
Se 12.285348271449626 12.831635987160295 10.38780728767197
Se 13.703903923520429 16.759001837395427 11.699555794992524
Se 11.81650095076913 7.17188920114024 11.736681405516979
Se 16.378092510573143 9.25568363490313 10.757552304906126
Se 17.092766016008788 11.958523469465664 12.790013235588285
Se 8.261143146582517 15.969198213167946 10.705266720939518
Se 10.266283594765111 16.469482902453468 11.887204044216627
Se 10.029604907620797 10.961949723089354 11.281975474412947
Se 13.2689084673134 6.846982141326274 15.008316307765966
Se 8.719762200410878 9.01829251751597 12.253742232248515
Se 15.223280321344802 7.824028089205878 14.058116414531778
Se 13.390295026279977 12.337842262321367 12.396827793402185
Se 7.758731193105233 12.864710174246923 13.661668963000135
Se 14.361793765287661 16.2183043772906 14.359321292079974
Se 11.422444364408538 7.897945358524093 14.012510232778629
Se 15.802210637188649 11.58564328746656 14.707008776621233
Se 6.994475648504701 10.775676409343987 14.528612239662474
Se 10.05806599769756 12.622418014636898 13.359553008711206
Se 13.209821007901057 14.317562336731452 14.91985106283438
Se 16.271555432128835 9.382497843267661 15.475690081461805
Se 10.808557833286667 14.687322161738813 15.209539852675054
Se 11.43082865239096 10.80307169904586 16.517557318975886
Se 7.614892557593728 10.617967306593572 16.800952293929573
Se 9.602804216800411 9.373958373661303 17.021856054490282
Se 10.263199254663524 14.251777968716551 17.503497027378778
Se 11.69300579180853 12.473471430949223 18.14099974309294
