50
Energy = -170.82992966 eV
Se 9.294956297588916 13.971765064126117 6.078615081789601
Se 7.943717712080947 10.870854580293733 4.428538327311963
Se 12.67256293970253 9.646671227127118 3.67341671154564
Se 14.69785528097538 8.8942538978054 4.542195319271193
Se 9.128746870720681 8.688935270148674 4.265299826663795
Se 11.584681841788287 14.35030050451136 6.637886193050136
Se 15.888293371479332 10.756340732214811 5.40283645711568
Se 11.088761651016092 8.889708758083534 5.398465076110102
Se 4.357987189517719 13.298700747202307 7.201773571385638
Se 5.140782990440945 14.942630055213746 8.669759563429631
Se 8.349640678017913 11.820850760699203 6.528362673457187
Se 15.252819212614476 6.757325445393615 10.544133806133885
Se 12.196306553926041 5.839054084089555 8.439019050422036
Se 4.931154080065897 9.678682631013157 7.440950686574573
Se 8.451555261847034 5.96371243608301 8.222230272103666
Se 14.054226955664253 12.583078035081009 8.28018889984249
Se 12.079245704330313 9.365318557620487 8.801889269776373
Se 7.108153896833167 9.638939100440924 8.385404711420579
Se 11.638252142232151 16.103332848821463 8.273758955890967
Se 15.557078749554597 10.859637323595875 7.747484342889113
Se 10.301303067325616 4.5935947064233265 8.897562413802689
Se 7.397581978480028 14.5314568177309 9.312035141097686
Se 12.95510675906017 6.198231445364853 10.777425909558222
Se 11.865043349836565 11.58756258605179 8.016826650543933
Se 3.6612595241570105 11.374673075199402 8.425842073580311
Se 7.059286109869775 8.631331133134935 10.47578357158526
Se 15.838199446710977 8.50545695208288 11.972912781309182
Se 15.373845419559068 10.716459125697607 10.966092550895194
Se 6.818645398990626 6.328597723772526 9.84928659980113
Se 7.263740932422631 14.13909755210194 11.62576011955092
Se 13.188764422793762 15.659933520232718 9.993974153443068
Se 10.688964809455456 9.237607803957973 10.715803933021425
Se 11.876182532510256 9.378106447431565 12.759436023010458
Se 7.5876028395057755 11.791273885219521 11.992944718301237
Se 5.57370229533843 10.784662119489647 12.52710971503629
Se 11.735381009429464 5.328445698018278 13.947657585725448
Se 6.783715988568019 7.700532724936104 13.554548174737148
Se 12.902972160587101 7.360692098661178 13.610941197852839
Se 7.505595070265368 5.446112859415848 13.290996576168022
Se 11.969508243011962 15.438020079371096 12.002062285319548
Se 15.592260450240088 12.297953274982158 12.642234477705541
Se 8.954686099690111 8.71519011123421 13.564778063192051
Se 11.816944222737146 13.133657476482153 12.476066767968288
Se 6.985965740133359 12.705621277726083 15.489909185592936
Se 10.38481465772326 5.577583537842122 15.870316906669382
Se 13.57755517089676 12.564525143260772 13.909449519492988
Se 5.609869748201782 10.94478281387479 15.027852980632918
Se 9.326954911403684 11.77554318199403 15.634531791827907
Se 8.281410753262694 4.566893785823002 15.31269260515114
Se 9.152284614479834 9.512236089965093 15.840883838286215
