51
Energy = -172.86294117 eV
Se 9.43395768931856 8.145097738156688 4.595355748946513
Se 7.576737495075866 4.981329023636947 4.572302891692743
Se 11.413816126992565 9.025397295246664 3.64030626010024
Se 11.195428827242617 4.440870886726563 3.9170162308168024
Se 6.8985706233095 11.10085559606787 4.78603838735189
Se 6.051967445798017 5.871727200991597 5.965356133476858
Se 14.156799116802054 7.028779058173903 5.374273565981157
Se 8.648724901621375 14.382152148893821 5.499132850182868
Se 7.984786969611101 12.930679438969053 3.7562271889099144
Se 3.3200132063332806 9.630329693710255 6.821637269407523
Se 8.467917174719375 9.80466687781494 5.973929148636817
Se 11.694990185412747 12.25093627329442 6.358764654733782
Se 9.237782069294537 3.70287409170691 5.9603753180308265
Se 11.421311216912892 1.9477400030641174 6.590418129979734
Se 7.824118218264866 2.633405658555505 7.560362234903256
Se 13.119808789100402 9.172144000818186 5.250928269639848
Se 12.270208848296217 2.5448938798512857 4.568941234572781
Se 3.605432959349996 11.926768054306386 7.26171777275302
Se 5.12093998741932 8.456617833416884 7.867134056255358
Se 4.019343197735476 6.65113642791443 8.96240744792356
Se 11.010974963665403 14.313854765551214 5.447072970280147
Se 7.810428833009914 14.744346240084687 9.425274462007975
Se 14.12964952948235 6.332199432855877 7.633417441078506
Se 11.833897740016447 12.391866257846265 8.722244465397774
Se 5.549509268373068 14.553545877884106 9.702244249756529
Se 10.69838678613654 14.787860172539958 11.80909389063587
Se 7.758531300566001 10.821982482220982 11.355718352983335
Se 15.299322587876516 9.659727600259929 11.068879189361667
Se 14.074500903254815 12.902903932844575 9.3281671181471
Se 15.268257645115686 10.881913151779093 9.057669989775787
Se 12.276951008300184 4.963005191995536 8.035112419262646
Se 2.7258658228248644 12.437606347712848 9.363950474762916
Se 4.96068596777433 12.154116608104314 10.487913563123263
Se 8.647616826029138 15.707957093826597 11.531764235356631
Se 10.692746192144067 6.418882481386641 9.233519237085812
Se 9.557518147749278 4.8827502063256 10.49624976608256
Se 13.345090500729054 8.302080935996875 11.029182055350178
Se 3.362226670255352 6.970409504179683 11.18900693167258
Se 7.373473788371052 4.3909070563453865 9.245294188846657
Se 6.280408097145399 3.198303794369192 10.800489541596114
Se 9.795045635788455 10.58098086190893 10.48326981425086
Se 10.303239379126616 12.770005997481292 13.308902280264238
Se 4.668125324808488 12.034806028506624 12.707374439737347
Se 12.117191915799477 8.01196132552719 14.632728033394862
Se 5.145629789998388 7.4811514725052835 14.425755664211577
Se 8.068292934659391 12.512522336978762 13.277172187630743
Se 10.26875656273801 6.548662708179124 14.61781885993948
Se 11.93284576358268 9.313499392683054 12.645897879266716
Se 5.0455333137393445 6.000460929145424 12.594989630577853
Se 7.115905854531197 8.801864260484203 14.387630291578276
Se 8.59891428031574 7.677642753690963 15.851749964807102
