5
Energy = -14.21898706 eV
Se 9.706796860902942 7.341251455713422 9.557340467945306
Se 7.5176462678151434 6.605269413663757 9.735286295642311
Se 8.182004417318517 8.820159803600784 8.146320648448851
Se 8.052842581468633 10.892770509294758 8.88468468028946
Se 8.87168299173182 8.662547085134639 6.0291410628321325
