53
Energy = -181.86569094 eV
Se 10.524811697092606 10.406961375676095 2.6560145232876984
Se 13.208497903437172 5.2625318458398445 8.046316510016938
Se 14.428448843824453 9.498868522669097 7.709695140954487
Se 9.367279850356427 7.301135944409844 4.74489939469371
Se 8.614399829827978 7.432867684133948 6.994323739133355
Se 15.19316576097246 11.150174718511991 6.151805757619208
Se 11.147542621354942 5.7304754912753415 9.132309660571346
Se 8.665736879686554 9.187113263787667 3.4965277752075106
Se 13.468734997668319 11.364546243013697 4.599692569182242
Se 14.783748331526223 5.010251140045079 9.789814076554439
Se 12.78501074890555 10.611028516791192 8.962901645274718
Se 6.056874659074431 6.823157918558207 9.834487377597135
Se 7.040872092540388 11.055719840752992 9.042308589519662
Se 16.06982998172452 8.518413602653556 11.206565328848704
Se 8.595530633094564 4.44478387263436 11.652720394072734
Se 8.155544577718523 10.957939164057313 6.968214100978572
Se 10.96254953411127 6.824408984876431 13.181999901534049
Se 10.403639705009333 7.887528552770718 8.49443830591303
Se 16.463394317224978 6.680941224100829 9.767802842572664
Se 10.528042243391699 12.62332061438128 3.38802647755524
Se 14.16983455282408 14.07650130322817 7.181445626881932
Se 6.349364455275172 4.830690381297708 11.017220077908329
Se 13.186198835170641 10.34396034928255 12.671829089469682
Se 8.890032804419342 9.245787488785625 11.849260939466577
Se 13.837756355767395 11.67060848432895 10.803864295941677
Se 10.96045059289416 13.40431595129142 7.28400387410363
Se 9.162754638445552 5.4134838130038485 13.750553038743105
Se 16.929128578835417 7.926715102739937 13.341542585592968
Se 12.911321939156576 5.476161321631837 12.981123044024015
Se 12.3189339081479 13.421817577252344 5.248195730444383
Se 13.698757475641784 16.220799251093787 7.999351455651578
Se 4.574590207825569 14.971287811974543 11.565874440758735
Se 8.749175653516096 13.251734424522082 6.573165988993723
Se 8.801481687938297 11.286889968826383 10.61696217978131
Se 4.423167167896497 7.955714931380178 11.347583972412824
Se 8.291613595488503 9.790739370539008 14.041428747851263
Se 9.416305614672511 14.76775020542999 10.8703803568279
Se 15.094143639503738 7.872104834411663 14.817646334865646
Se 4.839825817423883 10.12267232871804 11.612653755330422
Se 5.46602542378209 7.180796358555354 13.89226324394779
Se 11.326778670421984 11.531375229062801 13.490212066406762
Se 13.088172769501723 15.862012421483229 10.272860095282985
Se 7.6396823085720404 15.274506699068915 9.406633250372263
Se 14.199377599196605 5.6775322237982495 14.93850407935828
Se 5.891158665053122 9.330906506664327 14.375752415249883
Se 6.074153611195499 16.552249157802468 10.642743952252319
Se 5.044599202956289 14.67220195092079 13.849117433284464
Se 6.680070050588649 12.949108696134735 13.967190659766821
Se 12.281635635904548 12.881635145475409 15.26103385664794
Se 9.167173283218213 14.248465246090694 16.6495685967869
Se 10.943948683273508 16.626816333245927 10.817360972057259
Se 8.688424768198747 14.17860893800111 14.363929668224353
Se 10.746630230910919 12.454598734115486 16.947512737603855
