50
Energy = -168.04754348 eV
Se 14.863462970904202 13.04337204758107 16.486642293740573
Se 15.04074837595169 18.29879430558282 -0.6564354564842206
Se 17.533536053452835 15.31421890944919 18.279179480650438
Se 21.06106229430711 15.339110514432415 17.28006081595875
Se 16.16999441900513 11.523026184193025 20.82301771638938
Se 13.874070184910972 9.907014718904295 18.308579006007434
Se 16.450655538347686 13.61520149504378 12.180780418949748
Se 13.3273376076005 12.170798828608131 18.074741191421115
Se 20.433480274361706 18.91012562040818 18.259060938617115
Se 11.92926520769118 22.32624101853481 16.370019203762634
Se 11.441518679094504 15.205876657724117 16.041992720600255
Se 14.810926307347131 17.07675213320047 21.59559981438288
Se 13.490210173188114 16.504249709397186 23.48579565459991
Se 23.48398334887585 13.609035760908649 14.99632513870155
Se 17.05825624368908 13.191013083439923 17.30388945596311
Se 12.50022049914951 17.500569524386016 13.446433467507804
Se 15.258224832944256 21.207787225719812 14.910872171701941
Se -0.28888902604807104 15.10559686000307 13.24089377656666
Se 19.93716719672187 14.099721765028114 20.867259669164905
Se 9.167829715547697 14.01355781652988 20.82176514209296
Se 9.79713318248845 13.953699645615622 15.016940774230072
Se 10.62416161510874 20.634004275281825 15.449675537235928
Se 19.462330859379904 12.033131715077335 21.925525481065208
Se 21.098561688031605 -0.08479394633477319 18.244262427250344
Se 23.361077005390644 14.860530695946887 16.99127838018034
Se 22.496163761492344 19.367551761963917 19.29404157414314
Se 17.072815603327605 16.4726531355825 9.82138685602788
Se 12.836085743841947 19.64962817626752 12.588479335545431
Se 12.073166613372852 14.179020262803633 11.806023642442197
Se 17.78154461535396 15.101805415301524 20.617067720641405
Se 21.59803087392411 23.77795943237254 16.12443531097779
Se 8.686523748944557 12.149251438041512 12.236625847215908
Se -2.3680149763293987 15.997447185444145 12.561274105878919
Se 16.13195861199595 18.436139563797692 9.321490618842926
Se 18.499623909116227 13.304168728298897 13.354998018508306
Se 16.13083624530252 15.911231665989359 12.011173116168402
Se 11.96158704855233 18.877470149407188 16.50163151770147
Se 22.8297119738485 23.09813104739854 19.65670178146359
Se 10.635139979176039 17.12402348201721 17.288280781539576
Se 15.111728001986044 20.26595923193283 12.724760830855463
Se 13.660196998443293 22.938353850137087 14.849296325502468
Se 20.755542149718543 17.51241093957384 16.38202250419719
Se 14.647311416614986 9.818315237623004 20.599160795885325
Se 23.526147228476262 21.308099764836705 18.370107072017465
Se 21.030807584438456 14.676018543103833 10.824935582074263
Se 12.198105111607694 16.39308978459031 11.254467963342591
Se 8.482841938795135 14.574016258185967 18.81252443457544
Se 20.15395490264894 12.698667314430182 11.810306861062324
Se 18.424636034165314 10.692388288575088 20.33411997297684
Se 9.618627363544723 14.15903302129228 12.481624913594969
