52
Energy = -175.82576404 eV
Se 9.30869733041279 8.461420015377076 4.76703789636756
Se 14.268433615504417 10.148296385172792 6.545450774286047
Se 10.427479412119101 11.872485889517893 4.616311947994513
Se 6.992882118795592 8.698998070044809 5.011068563561953
Se 13.933790840258768 12.180097930945161 4.695541078378465
Se 6.8127272632839935 11.704460723885708 6.343612561549663
Se 12.70762593038706 8.182832217712704 5.676584708774662
Se 7.66165762986538 5.791541888650227 6.801004896734792
Se 16.52970663902103 11.4024722120004 7.292665225711187
Se 13.251721235408732 14.033839882837842 5.766436184938915
Se 5.971566084707841 7.529861944211821 7.100419683928376
Se 10.700397555733682 13.823654311199778 5.714335425058153
Se 10.444568476082079 9.951468668170573 6.230478456932547
Se 4.8574649324990675 10.896661478970255 7.392399054546197
Se 11.778239702649632 11.375763123110904 8.882956032200212
Se 16.960766938622008 11.948827999993286 11.090569435946314
Se 8.619257979619245 14.075919349147322 8.710571847515695
Se 5.603903620939073 10.088508398351737 9.495192505448477
Se 16.040361345707986 8.632856971436164 6.212780133872757
Se 7.0732749132086346 14.013712170985187 6.935140385676185
Se 4.069102603398079 6.34811359643742 10.826827733116987
Se 14.693929161157037 6.9368078216252105 5.185754623179787
Se 7.72333693036114 4.74663173825698 8.856505232304498
Se 13.165745663302486 13.332936602779007 9.244454043258115
Se 13.109020229283308 6.261309794778842 10.164015801858296
Se 4.563780444257133 5.795093135954725 8.69355646663677
Se 13.75493494044889 4.763157053748051 12.059799309102948
Se 17.14628757530272 10.400826492626134 9.323777299639026
Se 13.882698934919125 8.309586036080454 10.95643496133295
Se 2.885842709054866 10.892269237418107 11.850633242609257
Se 8.795509593274392 6.349593085904958 10.332949034431028
Se 4.899102363602495 11.79832081458232 10.97645716338424
Se 9.807481192370389 11.521726326917669 10.11334250868497
Se 14.712631028104468 6.327674726974295 13.477604219220153
Se 10.232800013437052 9.883167465426773 11.948974311599665
Se 10.428402080977488 5.151340940496753 11.544519315158364
Se 8.47460176919089 15.992928973630516 11.8898682310046
Se 13.51069052045228 13.449857890661608 11.544468437418033
Se 7.109310151019087 14.808111453198395 10.52054396278826
Se 6.120919413853339 6.590842887160973 12.326475796526521
Se 3.3139339912255297 10.687147323458298 14.167691934813373
Se 14.86714857130169 11.587010464564885 12.13970530773949
Se 4.772214557526141 7.0925805813630225 14.254354302637697
Se 13.18330535321955 8.142660611191257 13.233505285578072
Se 8.60400445898587 10.700335600597475 13.350222621557867
Se 12.096628764016549 11.727653042361657 14.427161000636511
Se 8.472457479378804 14.53440640580731 14.02902158819066
Se 8.892956187972148 3.7496138591764137 12.83812649156464
Se 6.689042342028252 13.236617487172772 13.675042821970841
Se 7.562872934570734 5.200996542003181 14.007860401874474
Se 5.236962653393096 9.398633029575288 14.549793258843545
Se 9.968716249061139 12.15926377161861 14.9008909171873
