52
Energy = -174.75486204 eV
Se 9.09903258373258 11.573581230530339 4.0436412592564634
Se 10.51326187386923 7.417842067736722 2.7997207481909907
Se 10.381339503994937 5.158326973411868 2.788457282605661
Se 8.240746640639662 7.963004867879689 3.9081224379351847
Se 7.476240973783293 5.871019136035086 4.267297835746914
Se 11.992602238912143 11.913164087042578 5.740597550895167
Se 4.665576445098198 8.048188379846492 5.326381607625302
Se 12.781403866147167 6.373682996498736 4.9936521669290626
Se 6.958241371631267 12.17653079576031 4.7775808031081
Se 7.066362107493158 14.268376826441392 5.913933072301853
Se 10.1519441283868 10.272843306998986 5.798927175171106
Se 2.7002629386495496 9.385415923855527 5.615117090552021
Se 9.659615385142004 4.707465389579595 5.234711716706671
Se 9.169964312371699 2.5446298837809627 5.263934375250994
Se 13.759918053007517 11.350989979705698 7.115092943588997
Se 4.971721796449645 8.189198097869204 7.7102761970883495
Se 14.099564713006773 5.277699017702437 6.692850722310424
Se 13.678234641855818 12.979239653628312 8.945987588787627
Se 11.026264790626618 7.8581941941747315 7.788477844212476
Se 3.629716350993877 11.368519251911682 6.368438383209377
Se 4.240320597857531 4.65064693349074 7.489291858400681
Se 13.75265606743524 7.614801007682062 6.870421636659649
Se 5.974832461853325 13.920232550094346 7.965661030480452
Se 5.419946681159007 10.456199552207025 7.865315780833546
Se 9.729952336422988 13.510653776556483 8.87431942939876
Se 8.827816326949483 8.323661366065677 8.683938930765388
Se 4.1983959180114 11.68925476065206 11.014299631335337
Se 7.900982575900279 5.085739812976896 8.430448357991837
Se 14.4914200479663 6.104200824782334 10.96331677523114
Se 6.402108942266879 3.721747755789046 7.20456485338669
Se 4.581123542763154 13.91639727783275 10.814895693749344
Se 3.199824023998259 5.051949426290489 11.145862794252338
Se 3.2787556983020454 3.5387841933844095 9.354767541694818
Se 12.415226473641436 5.785578371385478 11.868516046729319
Se 14.204970952540874 8.375943376033161 9.849366470076104
Se 8.498525365754789 3.5973434539973486 10.290216421356783
Se 4.057713489790278 9.246473737877588 13.888206220939455
Se 9.02211667241845 10.875256433597078 8.664354401530328
Se 13.844465717687797 12.065409194189098 11.05526302874267
Se 8.158110628204357 10.607762002652516 10.985489134853925
Se 11.945140577072923 8.697794986653664 9.89649088943727
Se 10.719857379700638 3.3096919702252423 10.28747286639578
Se 4.495725033098578 11.484934946304088 13.417436249372434
Se 6.395126647395134 6.90495792827669 11.878858976074547
Se 5.270088716463395 4.860038572940942 12.286108576229221
Se 12.35111900535531 6.911497981729817 14.011233158670365
Se 6.139737335116007 8.084696832596284 13.901481507128079
Se 7.7450191755340505 14.19282991288998 9.790800690579339
Se 11.544218149232796 11.952277371775166 11.879432830899862
Se 11.786367756175862 10.800897461046905 13.895273361770041
Se 7.970271948356243 12.68795755735533 11.923678396832933
Se 10.771075051805331 8.631502622302245 13.815043668750908
