51
Energy = -171.64945 eV
Se 15.05963285704578 11.400505633328658 4.706610320648393
Se 15.136908106905446 11.738205431228065 9.97776689529659
Se 14.396038971732906 14.25376192979486 7.481965343108638
Se 16.305786622566334 8.237473950084558 9.40157401056934
Se 15.58241442561401 8.109943571293734 7.161301022406988
Se 14.31682625954301 6.098370482217701 7.018633298801968
Se 12.259439471617524 12.519968281359386 4.7140847125520695
Se 12.814222163044603 13.244329886067788 12.262722884898766
Se 14.098571367498474 9.476124174838562 4.227621698519776
Se 14.316313646897337 11.922513565005563 7.652639279669333
Se 14.565680572364114 9.516123797513261 10.395731199300872
Se 12.49307055224642 5.926524957785267 12.367728507815062
Se 13.727193681530593 8.481269275438025 15.042789952765636
Se 12.415696971022982 15.008196373115208 8.609209520334272
Se 12.467559293222061 6.378140841251345 8.441918684962952
Se 10.685391276558615 15.00987866594918 7.066235474000604
Se 12.265921187486493 9.808644792417358 14.019491742055811
Se 11.026860866867784 7.532027284616887 11.919629158685757
Se 10.282907324956192 9.42324929542374 7.373058625013194
Se 13.353758010730617 12.149271205628903 14.196877675317637
Se 11.627142165530538 10.470535488779673 4.214826950477904
Se 7.3124364600342275 4.388817671707775 8.981959137094385
Se 10.024753197055837 10.878068217132313 10.957952848696026
Se 10.56302772124874 7.088015971563728 7.2104672729742285
Se 11.529097215613707 5.060398108715714 14.526735224472633
Se 8.870783196321232 9.650140203042685 9.341204351843876
Se 10.82963096584301 14.534308891927743 12.950047861991866
Se 6.296779693519508 8.795855109793564 5.835237045919208
Se 7.648089468113109 13.341139510632436 6.227427726952719
Se 9.191648672138756 11.908603133280984 15.37215294052083
Se 8.15013228735559 5.809658441371245 10.686345550161683
Se 9.810634363453628 6.421102487465156 14.773321905217506
Se 9.728165719690445 14.886742756457005 10.977089483287942
Se 6.5279936194644925 6.238195867067355 5.686757183284852
Se 5.59890968927223 5.317459673866539 7.593442953004105
Se 9.599294423912685 12.828728506566108 7.383281693499855
Se 10.423145345310095 10.038006336736471 15.814701637113915
Se 8.339236924821261 12.864892180984446 10.449534529041639
Se 6.3921259322144195 7.593913481482125 13.41734973862649
Se 6.08749086142702 9.277566127920949 3.6792067528744274
Se 5.523836977312892 10.39998553685872 10.290872291166217
Se 6.935152593009385 12.916720293289346 12.548035275874057
Se 5.247542669231094 8.39324605008685 9.081906957881442
Se 5.941974576929739 13.336413935619168 7.94298918094555
Se 6.960283421287734 5.280564291513628 12.639805365235354
Se 4.110594366288663 8.807282221486743 7.074554125115888
Se 6.691763153864309 14.797056239474086 9.57176247801247
Se 6.500907772193775 7.532662431092814 15.643793665577661
Se 7.3408419183118605 11.147508854383146 13.965192788391452
Se 3.95646658045358 10.048087168945912 12.153708237398794
Se 4.003712909133227 7.785943627834591 12.494734019724763
