54
Energy = -175.74381476 eV
Se 11.618751269532293 14.43562458120547 6.834433558455248
Se 13.819834731626786 11.925208800708285 6.011202574350895
Se 9.275212971001022 15.305647358458378 7.236097850550167
Se 13.147202967457728 15.741174197081568 7.750077077452345
Se 9.701031298338936 10.163341868511212 8.401547670507865
Se 11.769516937453572 9.579612974710415 7.304595809056146
Se 11.373845198049844 12.916069545184673 9.468566816952439
Se 10.410157544945815 17.292697355912296 8.321901063438307
Se 9.14399875911469 12.509321213145222 8.177665155311916
Se 14.524253912882948 11.916084258535141 8.16817280198889
Se 15.602200226251492 14.764941031448267 10.138095722979129
Se 9.268611522023171 18.603916434055584 9.820584537150934
Se 16.88279923180384 10.972244324590617 8.946913065288575
Se 13.376514430399782 9.76536913406169 8.94209248551407
Se 12.859342519412369 6.539086542296171 11.15034099821287
Se 9.340053677594378 9.927051753812952 11.336443242509079
Se 12.070404132407006 15.028705008347423 10.34179136264823
Se 7.208696459876997 16.209946883881617 11.091912803314191
Se 8.423521516563422 14.346212185179871 10.832377794703206
Se 13.446823022395483 12.623903486399724 11.180834664857604
Se 10.498068364411337 7.9204228518717965 11.366889470549573
Se 16.564216724057804 15.090365006550114 12.136581572736917
Se 10.121562970880234 18.13905585694814 12.152063070153945
Se 16.620762908217987 11.171712961942237 11.149559860046859
Se 15.633295206483437 8.97355544916934 12.715128704628201
Se 12.828539954524684 17.36802535934975 12.11065532820848
Se 6.155728784658768 16.112374238835816 13.404509008395712
Se 13.463685562792294 10.291901125978145 11.950314385107243
Se 17.415802955282583 8.181705537638031 14.35215195954279
Se 8.924465220304569 17.88388360530713 14.41900160886146
Se 11.731360702294376 12.39497036416172 13.273809391677764
Se 14.865077597058296 17.737796241158215 13.284689357458658
Se 10.52773535409614 14.34757013244955 13.040169188775616
Se 17.68793476855678 12.983851150712363 12.65842055767303
Se 13.729264120237726 7.016654385845539 13.20246202934844
Se 11.377079889191227 8.260288278420695 13.928566227565371
Se 14.014717704427238 13.286996235231069 14.395328275740564
Se 14.878171557621954 10.95479218406621 14.923513935789723
Se 12.52408395249995 15.333815318029796 15.399410005538368
Se 8.822658807998772 9.368400351263483 13.719532484166036
Se 17.648204436149772 10.096815007001235 15.608642606658579
Se 7.401335119631403 14.448210974778497 14.378480418501011
Se 15.846671687248765 6.642999949792675 15.973793481033924
Se 9.286036405413112 15.863007250676317 15.421010829515817
Se 14.404779954114305 16.641368297282334 15.531169831717635
Se 16.263770558098656 13.931579177790521 15.444907667092462
Se 8.46661953428733 11.240173357674596 14.90461600648989
Se 11.55282690492616 9.252437353047757 16.319025643421266
Se 11.031840707854082 11.548186590370772 16.519579212859778
Se 16.071300202737387 12.11213570855131 16.884420677601817
Se 14.31928847335861 8.094856510881483 16.808277379605727
Se 15.380816577878546 9.583714025071549 18.564383839369455
Se 12.638939101286493 12.185920367976001 18.358617370797052
Se 13.43500183686119 10.368716791221242 19.63908849270053
