51
Energy = -155.72281843 eV
Se 6.298340556284789 8.137512366666895 4.885650799066039
Se 8.801434833796538 8.94855885005593 4.614660541214316
Se 8.922654884765866 12.375145073071348 5.886514019737907
Se 6.102932187676862 10.551816622857285 5.261206564616873
Se 10.788861510520558 10.16055688148077 5.491001250795044
Se 13.201416074990657 11.04983986669266 6.573336418341158
Se 9.995027803424312 7.034561772565893 5.595606492128208
Se 10.906923769842997 13.510648477988692 6.309885880958297
Se 7.7885294499971875 6.243414966486795 6.263410791334674
Se 13.067573217545009 8.65614025122368 6.774860969272442
Se 5.067440006362607 8.690383189519952 7.122106799193616
Se 7.551062270820141 13.649355121027419 7.609214422729606
Se 8.142152599683621 9.18217534982483 7.780312347326225
Se 5.86259048885145 11.894086201175927 7.80963054940105
Se 15.144591462266169 9.930496478517862 7.94222233424893
Se 12.75953044793646 13.028596818210316 8.826333277236488
Se 13.448945956774436 7.01842847228849 8.981365728074628
Se 7.773465019048224 11.493672024886909 10.523199103591395
Se 12.080838731112863 5.681293718774148 7.749491858373583
Se 10.315617235598985 7.745382569351519 8.402118778262743
Se 5.497293061964689 8.871690618437212 9.519374857110973
Se 8.873453978223637 5.386669298304241 8.363446179336387
Se 9.979455890470492 14.023197288073883 9.188327479316335
Se 9.865065554258978 10.946482922303097 8.001255713088678
Se 6.839303830899207 6.089967358353084 9.157632201619306
Se 4.957755395988429 12.679827858271311 9.773813426196547
Se 12.533328612231255 9.972750757578497 9.959096989234164
Se 13.118911102943366 13.543167135306776 11.310056331361835
Se 11.333219580789866 5.467249471472289 10.70547694909534
Se 11.412413907728682 8.804935048617924 11.775182835563758
Se 8.508105400159463 8.72398030102665 10.19978989246501
Se 8.100602964826972 6.135561341498004 11.231001978308992
Se 15.014973531503609 8.962657872043913 11.295929618268616
Se 7.827132240407834 14.121060679322865 10.511194107568347
Se 5.790860367811066 7.325213204388142 12.318526403081181
Se 9.955753692067766 11.411369879171207 11.198974235180508
Se 14.96731594590035 12.148933549666078 9.846554278097425
Se 4.999913795200092 9.504964663456049 12.138373667638406
Se 13.28159562602769 6.734539192855183 11.392566788845167
Se 6.448236497584732 13.018792802521103 12.851667898891431
Se 10.031120056713839 14.406120325650528 11.813015466241243
Se 12.587816432428053 11.138195735839039 12.222032000114707
Se 10.644751201496296 5.655126782516672 12.954709503426356
Se 7.96477697367818 7.776893918039796 13.57306156775341
Se 7.551215667833258 10.06351354955358 13.330652919932673
Se 8.681347424453074 12.893042715874026 13.816165883270504
Se 14.423384710779416 8.348756868917116 13.449265606302255
Se 11.670626564680745 12.498504895041629 14.031548809023082
Se 11.066336941402577 7.7802366040595885 14.067329733784637
Se 9.811135709643827 10.112809456789966 14.449794086920788
Se 12.521166824551088 10.750020824330614 15.430351659007147
