5
Energy = -15.67450018 eV
Se 10.916326550088394 11.276006226700028 12.274690601298905
Se 10.310734599675074 10.049310284159318 10.242711010279882
Se 8.151010145670766 9.666863149981236 10.266683564132284
Se 13.354410245503074 11.805541351245822 12.436240349907772
Se 13.598320201033859 12.866186526305716 14.387970245741624
