52
Energy = -173.95914449 eV
Se 10.106981447149279 9.29595640921378 4.379978158643742
Se 14.703391799006052 8.719022280594858 6.105369092012941
Se 12.14162044774866 13.015455290324791 5.358938558423793
Se 11.159296022920353 6.177246344240656 5.6317825843342915
Se 15.71998944054387 8.723500289666694 8.094159460215609
Se 15.608251566934673 14.297555986072725 9.031719997285814
Se 8.403656090823633 12.969400961145846 4.211278691542488
Se 12.618062833958488 12.3168210889875 7.552426782146333
Se 7.767201859746618 9.360141674159765 4.343888900640932
Se 15.06790380138069 6.469774827307038 9.198310686415102
Se 10.829699944178989 8.444757605058326 6.482733486067104
Se 14.496545518302156 5.278442825219929 7.326857947387032
Se 16.718423367402774 11.143827251555976 10.93907239519495
Se 12.098463425571493 4.935558445345515 7.3345262678386405
Se 7.220942321594052 5.994191870663064 8.85872043573177
Se 9.99169675507453 14.061960365405081 5.531147125040336
Se 13.266491936627256 14.299093354967956 8.696169533536306
Se 14.967040975142206 9.639056697819196 10.62062491606362
Se 11.71271090476987 6.181680863136067 11.016104352821666
Se 7.262320930788505 13.776508361919475 8.351851597124021
Se 15.87988012586142 13.344133994188585 11.161810840491913
Se 9.016275353351505 8.064749494185316 9.685524098499938
Se 7.2880629223803215 11.356074152870761 5.555878520687518
Se 8.616480806761341 9.671886487862515 8.086539893008961
Se 15.135889269879875 6.922935462278374 13.719889064049207
Se 5.379759686487705 7.194186407892739 8.614198544804426
Se 10.693942728840131 11.581780102420495 10.635763843759449
Se 11.482921988831896 8.152086925834228 9.734147336049078
Se 12.0158731119468 11.65061113137833 12.443356319407513
Se 4.49588261505198 11.30629704819313 9.539861074780854
Se 11.612842171561555 14.904922372677357 11.851722080600993
Se 9.882247538168716 6.248949376124956 12.45255354776594
Se 13.938221030448448 8.71825316464387 13.13520889773704
Se 10.048433626621412 14.065165050850517 10.398478696083265
Se 14.682307639975383 10.110706716148231 15.11676413381562
Se 6.293227075026986 6.106595432770683 12.007834997627183
Se 13.827719231269558 12.224054915630402 15.164787827392214
Se 6.853896958059038 11.618486669559747 9.422412684044017
Se 4.620051724462889 7.232842256638056 11.062970106873074
Se 6.138589408808145 15.455549304100133 9.601908957291217
Se 10.483488245216021 7.586997496118067 14.500997630739834
Se 9.64498396925405 13.013445527627331 14.539674648746628
Se 11.63889958018296 9.543743095106619 16.7183972738745
Se 8.312078890915434 7.996646956151352 15.262738020588639
Se 6.959170513308824 15.654369885444746 11.731468568616357
Se 3.9864595749168417 11.550897730408503 11.806115019006473
Se 10.54494731029207 15.135434486746727 13.999048779143694
Se 6.224614194776233 12.918535940777518 13.031948369346694
Se 5.969969359865987 10.505156283836785 13.429592827195656
Se 11.607260470941647 11.735087602145155 16.50545024706765
Se 7.732402987061856 10.289852741713624 15.216247782034808
Se 7.346940248417773 13.607457683458014 15.015150636750784
