54
Energy = -180.43060137 eV
Se 14.526207780020812 17.94429435338822 6.965786357242623
Se 11.092274049694517 14.046373772984625 5.656573822651541
Se 9.771748271148033 15.606645248094496 6.779819046536429
Se 13.276166925210216 14.560277879572505 5.819335053359528
Se 12.334324421901252 17.008836040034403 7.35236952647251
Se 17.105831544228383 12.553210931346777 7.362951301517255
Se 15.86521731978016 17.709501799652326 8.897879368669457
Se 15.754945637169293 10.919591804216497 8.452098076669747
Se 10.056370741070292 10.532686510281282 8.159502243288618
Se 10.550014806973056 13.025226691982192 8.244963733686909
Se 11.07100430635717 18.690166687242908 8.589103885350278
Se 17.84790571925059 14.233445308626447 8.818202615270165
Se 12.628526564316676 13.707492985761878 9.317487701519257
Se 16.85222782017333 9.28861930713256 9.786352073649317
Se 13.453259169254375 11.949923878207937 10.645718075182574
Se 11.463415124923122 8.984914210237923 9.019629339643945
Se 16.007761680470292 15.513468382986572 9.719168358839987
Se 7.9859109445105885 11.209939379602375 11.996099195947771
Se 10.537398767027787 8.42558040944227 11.257334742616843
Se 17.011799730429114 13.198486732847885 11.84373239781606
Se 11.086128218532124 17.89993302945668 10.810298580354331
Se 8.217481142175291 9.08377419030861 11.01878535724553
Se 7.477524741996285 16.338583924244666 12.010878323215474
Se 15.79103462064298 9.238969220703698 11.934880067008269
Se 6.676786043201884 14.250959980228533 11.734239641767024
Se 12.207917662946965 11.69879566024808 12.70959918875293
Se 11.33193436852279 14.710863379100081 13.648980376807048
Se 13.550549002718583 18.03019780429448 14.477925927900346
Se 7.6516995602039 10.128173195034856 14.172705082664947
Se 6.774991950458327 11.587156130177082 15.743590581821925
Se 12.874120985602612 6.6998495561840254 11.221372079778876
Se 9.684400708997659 16.016384017256378 10.910435365506503
Se 14.30871678823682 16.057385632517757 13.764496083076768
Se 8.20496238273827 16.49122577633508 14.49042164614764
Se 17.450466656963787 13.996174164740719 13.904276759780295
Se 17.287089891236366 9.07540670112799 13.776500900207543
Se 12.995010059124201 7.973084749496184 14.737815935039327
Se 8.521383559071365 13.155683152309724 16.335349412185792
Se 13.832278462489967 12.136003900760382 14.367128193392562
Se 10.501912401211095 16.841990061613682 14.357498692566667
Se 12.7595320175754 6.007869818616195 13.396207612346293
Se 13.192254042053733 14.156164182039207 15.418938750179434
Se 16.70332976313239 16.28817176508877 14.133337709768815
Se 17.910645922419253 10.888262738469022 15.183986099289175
Se 10.851851662056232 8.902670410915148 14.507205638872694
Se 14.265941917854827 7.472786744853824 18.75133912945869
Se 10.42886520883288 12.006236868438368 16.918362007091673
Se 15.53251269099776 13.43999517791077 16.822954932339687
Se 16.26222244717898 11.222091079522132 16.878422058465784
Se 10.509198765234729 6.547344987783316 17.524601083417082
Se 9.715958465893292 8.521988336678417 16.669225915549287
Se 12.208470429775478 9.874158428609284 19.082627319291408
Se 10.684057990463304 11.602946408695939 19.2984459925008
Se 12.113863305001333 7.3074416720496185 19.360465799728555
