5
Energy = -15.79311067 eV
Se 10.927621625987681 10.506815661311789 8.809066442224282
Se 9.61227579281624 9.76966533141285 10.488259968601655
Se 9.588601438853859 7.248161845743831 7.720642041339977
Se 7.484116984682609 7.714738283194894 8.231548878686098
Se 7.399739154792864 9.7319710318245 9.691659171650269
