54
Energy = -162.4625712 eV
Se 14.130308190670336 9.643792725493157 6.944217898126795
Se 11.561149081860034 14.941277979415817 7.076937646807753
Se 14.289297241048441 14.807216552723327 7.166798666259829
Se 10.267512785700688 12.363068985584501 6.265947034635182
Se 11.73341919041452 10.283031876871794 7.386848779176079
Se 14.5773301775092 12.496928097173507 7.5556423034780416
Se 10.457515680354726 8.22630822783146 8.093503630324033
Se 14.597073287908122 9.211502963527543 9.540340521413848
Se 12.028140784622709 12.827910895851634 9.092887584113686
Se 16.571215299998038 11.940186069197441 9.916708730954646
Se 10.892102507135618 15.968735174337322 9.195860193821156
Se 13.906981364739844 7.337998702855402 11.407854278551271
Se 8.563659794026654 12.224549790562824 7.872947608450387
Se 14.065847514136575 15.697061397435679 9.735688254491727
Se 12.296470512959475 10.073575678385321 10.217267857320856
Se 11.120250729229062 7.183133459563149 10.724679455232483
Se 17.496774042112257 9.610110027091821 10.140916430239187
Se 8.662215793947135 9.663170649439909 9.203631751018309
Se 13.167967496337633 17.72493636774004 10.377426502295823
Se 7.2771022414504785 14.273909274294533 10.186863442262672
Se 8.265823684366211 16.153460399916284 10.069940848252667
Se 16.437624131868017 14.67778965804151 11.341182345267102
Se 9.640485899007327 11.70485345226397 10.385410476452993
Se 13.896064323532716 12.840894157040413 11.012108871803122
Se 16.637601188440343 9.863146631698767 12.457806476136957
Se 11.11465186226647 10.643198370920125 12.831642720368103
Se 7.007361610098126 9.360236684688035 11.606868317495008
Se 7.420806332475765 11.728553634983166 12.183575950522075
Se 9.151439569101491 16.98775414499479 13.026015724911415
Se 10.572302950389707 14.613279543743738 12.190873903762396
Se 9.399711102531635 8.453391880292761 12.15928572105055
Se 11.931038588189681 17.01084030695046 12.431483105416325
Se 13.322923468758386 9.778536038471142 12.969643567267072
Se 15.41438755056384 7.152803030451474 13.231454641670314
Se 12.503891414946342 13.311602719494212 13.224254996164456
Se 6.518798054503831 13.097122195995109 14.106465897077832
Se 14.701969525324303 12.000133227745502 13.52489864248661
Se 16.785033420086904 13.984630428310608 13.553181624524486
Se 17.852478526482606 11.28252246150991 14.210175289272211
Se 8.862213120578398 14.661194770411498 13.942153291068195
Se 9.769375680222762 9.055973009707408 14.747210356609662
Se 13.200188573743889 15.535501893386728 14.354795553981502
Se 8.851654436879755 11.597406897480825 15.000335693744587
Se 14.568422634085422 8.683467395458043 15.627265771399417
Se 12.033195647164273 9.358735158451132 16.10091404180909
Se 12.06800003366871 12.277139082258348 15.441392270787956
Se 10.792692879699668 14.766887180959811 15.82515603915227
Se 15.354992159105759 15.52949253637161 15.364176624615457
Se 15.98587283681981 10.693894275951854 16.463527676794747
Se 14.689930852238659 13.086741035538209 16.82264207223224
Se 9.395613293519236 12.338979920152125 17.317137683436023
Se 11.666229219687423 10.474470280862164 18.490427294237097
Se 12.91770921003238 13.239742150001094 18.637091527229334
Se 10.790708380627494 14.7407464272897 18.430062291196677
