5
Energy = -15.53507473 eV
Se 9.394656047944322 7.916253206679242 8.232422749777347
Se 9.198640735531143 5.811870056116089 6.816260538608158
Se 8.196347220979865 10.321799971385584 8.57293507237646
Se 7.34592305866106 6.938801135271287 8.171857747910687
Se 6.188293509231078 9.32473877685652 8.474590888663025
