52
Energy = -174.94655398 eV
Se 9.98171768762442 8.4871855718081 8.021281211782668
Se 10.87211111832462 14.170483414142998 17.20240137481683
Se 9.750583834731197 10.271663413138524 17.01544311936907
Se 15.5040543086814 10.556091908165417 12.648130321070903
Se 11.226904707983543 8.337560223945598 17.502517572431504
Se 13.659726877962985 7.945042275872119 7.135549350845811
Se 14.930708458574319 13.317841960105442 18.359466449128433
Se 11.11866244318517 12.551506323876533 8.31778068149344
Se 13.141416940740475 11.236494884167522 5.440767230195879
Se 17.282630899590824 12.38658033989807 12.697428027364033
Se 15.808916001499213 11.686351306088094 8.178725252927558
Se 14.78513654054036 12.898025908772663 6.2989137300640685
Se 8.727715055155706 13.630301121442935 17.97464825709113
Se 15.974836016348686 13.834500795822962 14.956609533055037
Se 6.20594715495326 12.540976528033907 13.073793632195091
Se 12.942343464617496 6.129114712370962 11.051419610291978
Se 12.912919864895514 11.976497164412134 12.964261805811416
Se 12.378942310235816 10.856615651866319 9.301314264363464
Se 7.279882710461821 10.553115171473571 12.481260757164376
Se 12.067806109788371 9.760917755469707 12.203755450413471
Se 13.076906854970959 8.418189022715381 16.05284968347664
Se 14.175314118455576 11.256572905370755 17.49494668423782
Se 6.877802742690289 9.198234859764101 14.437885619094496
Se 12.825443478073536 15.749885665268573 6.418090812683432
Se 14.749624731361136 15.270952763829191 7.573388452179303
Se 11.524857251410497 6.9600732988267175 7.074593505653979
Se 7.754542825504162 13.797620055178141 14.333583136782382
Se 9.110245624200799 13.409140460818248 9.664229044673549
Se 16.342197791900464 11.12897850817773 16.364307265267154
Se 14.440882866374759 14.823104928705774 16.63027390457697
Se 9.069978554084669 11.07268255262706 5.188518012308347
Se 14.082545941069357 9.101766490069622 5.103308197194609
Se 6.691530394170116 11.120884599632275 8.163545007655873
Se 12.053276455809279 16.029335245415886 14.15929126097548
Se 8.595256786122546 9.066350602101895 6.123283149558343
Se 11.022937435031647 15.098800778919603 12.19166019060903
Se 10.957206865225425 7.345125513376659 11.248643216535916
Se 10.622242433433044 12.854846239711911 12.711454021191095
Se 15.610818811502073 15.660243091743078 13.378528191998788
Se 16.69503468094641 14.33893392123259 11.653598397538557
Se 8.64096062853356 14.390988483571737 7.623046092329929
Se 7.2281638922654015 12.495363178834259 6.529079203414106
Se 10.49680138410356 16.187839391549698 15.903268647309618
Se 8.910093892708625 8.620307352048505 15.410526376166997
Se 11.883338357226123 7.863439953932189 13.910807911836098
Se 7.671353679855317 12.11075134711133 16.506863650846327
Se 16.33738208983468 9.528025992852056 14.627598651279072
Se 13.522866382035406 6.181905838809432 13.389809500072477
Se 7.330319614958752 15.346753628462665 10.557238388357925
Se 13.029645089703523 14.325692941716062 4.627976598259001
Se 7.968285262215288 15.824130435927321 12.653347577752253
Se 14.348949656779903 12.064203623495189 10.017993787798051
