54
Energy = -183.00074898 eV
Se 8.834038380990016 7.387977471046805 8.345594099014527
Se 12.92346003884726 10.275627602624887 10.934724872997034
Se 14.567886793406316 14.364431079686383 16.13081091018015
Se 8.92506073796084 16.57288682044815 13.68362704752681
Se 5.519206289110457 7.864763267595177 11.200209776745105
Se 8.544723783984507 11.500384844588122 12.368476494625778
Se 17.923387133920937 11.638124725402731 15.658627872574206
Se 12.826884200495025 7.9488745859369825 17.007578053314116
Se 11.424054924022562 17.70013380260338 8.7644780391685
Se 16.21882530936181 8.199275857357609 9.077465291645229
Se 17.14707982966059 14.408776553860633 11.360774372754342
Se 11.109091688220884 12.863611801118827 17.4394847582629
Se 7.77667684696375 15.675870031477158 7.928177303118183
Se 18.86477491148857 13.027567125015027 10.787856218001881
Se 5.10018053860356 10.54357484969462 11.107644404489589
Se 13.631317005299186 15.576689697320452 6.41217944045552
Se 14.413992829889683 13.536666494487656 7.27776478109863
Se 12.102134665500294 14.258597730448333 15.880068928666839
Se 10.449948696683805 7.440142104540827 10.090470466182998
Se 12.45313238255111 6.658143324226272 15.047245983384393
Se 13.099357290909287 7.971086431642572 6.906298590304211
Se 16.884741318574207 13.66085694744593 13.633322438545466
Se 13.838912457511562 7.744781044946007 13.483271499065143
Se 5.241023524050035 10.470836162051999 13.529379530161812
Se 14.618881899383458 11.60434371176483 14.05864395905418
Se 10.29156746414245 10.897856943985262 16.27427724254566
Se 8.855464127106126 9.396322373349069 7.196622987751976
Se 17.308639200690244 6.396099085279569 10.073107953886234
Se 9.155729955779831 14.425779948388087 14.537747130813699
Se 5.554004047591668 8.080519181629331 13.482622802502854
Se 10.083912335698665 13.263314201192278 12.566255745674924
Se 14.901442969176523 15.437599110473709 14.081405639124617
Se 5.960313861074861 14.750648671280466 8.970858497711804
Se 9.895627883920472 9.655634549872662 13.223894339782172
Se 12.558170883962875 12.115380995735743 7.652590991798187
Se 11.113098510646857 17.466214510993648 13.684426312057406
Se 18.690132109992735 11.997779356666069 13.282324293436123
Se 12.01231639104145 12.235438674034468 9.952124258647881
Se 6.463317946845917 14.257503748768967 11.342109175314324
Se 15.822895739651479 5.247828307095499 11.531792635094572
Se 9.17761726153788 13.79378798522778 7.176765255457789
Se 10.668344585351102 15.990360510290634 10.245711858650065
Se 13.628895617029311 17.14381862699241 8.191777504001136
Se 15.03664911904313 10.792956253341199 11.794773598556402
Se 10.760835310050648 8.96083825759961 17.516352006744036
Se 9.143623081901925 7.7987666357011864 12.053517515552935
Se 15.187335679840006 7.185756466471762 7.10189820282984
Se 16.072847031553277 10.203655763247028 15.252927428561751
Se 15.862086455249324 6.493131703816605 13.519847067590524
Se 7.155601592340908 10.977748249959111 8.247941567304002
Se 7.685428681388286 12.34624914043451 6.197783598605572
Se 12.142325377773108 15.997403689579476 12.086108277012821
Se 4.559467702142106 13.000087170190508 11.735640549455821
Se 5.093458503936562 10.077418724921865 8.192543336048196
