53
Energy = -180.88949765 eV
Se 12.032295204253955 4.714199865893629 8.549341636986052
Se 13.270656891146952 6.376847798843942 16.361852172678752
Se 12.68350090091267 6.5373274140810205 7.143351715756322
Se 13.815609252909018 8.457685846287335 15.364463605400699
Se 14.114395442130565 12.53481941114282 5.401812216451422
Se 10.784483181552917 11.986732959501888 18.100671129292873
Se 10.249003269583037 12.418304887684306 5.912883363963803
Se 8.429034267974666 14.770869084303364 17.263476608077006
Se 9.96357365938334 5.450226645890571 9.331245613844589
Se 10.938305011976386 6.096215940777889 16.24209495928575
Se 12.802555766923005 8.293176757049643 8.696382349450994
Se 14.988837753630927 10.830007573742117 8.426956181060739
Se 17.749184016897154 10.136600365267816 13.143984490321483
Se 15.097568459955488 13.232535254579783 7.4171912210485305
Se 12.756854882787838 11.831740186580351 16.829088254982125
Se 12.065959611681222 13.682482924885269 5.091294556301631
Se 10.381444992862026 14.288729485756736 18.488304240598847
Se 9.691479967418974 13.362876785824202 8.007837045737807
Se 9.043552988156232 15.110998602256526 15.01826364713037
Se 6.642081406810144 11.762799540883021 9.951423418425081
Se 5.4884851569542805 10.722543036567105 13.359337908266196
Se 15.018317087731681 8.408329601374492 9.56335816622398
Se 17.094944819579634 7.921396356975601 13.723503283228434
Se 10.51313578586474 6.941304129919137 11.139120209170564
Se 10.339045528406794 4.776526381349651 14.374923201037653
Se 9.156744750318582 6.236644236659001 12.931017523547268
Se 14.786345485893017 7.939098373329188 13.258016794558731
Se 17.40591363571049 11.086385774864455 8.189755441141296
Se 19.276212138483633 9.917646854614478 11.3846172171901
Se 15.971499759229271 14.680889173502408 11.546634502363407
Se 14.643406513961404 14.189300816176855 15.128205094663288
Se 12.113317154188728 16.234731918131157 8.344049931241901
Se 11.63213840836138 17.9483621254757 15.052057476633939
Se 13.439074544962615 17.975465599796273 8.640070890023605
Se 9.40169580212718 17.44177252378867 14.711416145901593
Se 5.796530454871417 15.139956354899464 11.358927705750682
Se 5.076767216318221 14.431937720427388 13.659293976960775
Se 5.005815712177745 13.55372659729384 9.92786198132662
Se 3.8679766438172893 12.520711889689371 13.397201487929008
Se 18.223031526536364 9.220353249774263 9.362246934307832
Se 5.446474228680861 10.093848764805427 11.100116145562211
Se 16.483472706618894 14.062299312721294 13.844394136886319
Se 14.570893426633207 18.97766670641816 13.189354381428203
Se 12.911512994158759 17.518890424049363 12.913790056254978
Se 11.17187462798927 18.386805720363263 11.203612666753319
Se 11.088263340208567 10.079851762762962 13.932132408675628
Se 13.971507335849713 13.549056193816009 11.065328268093522
Se 10.424006972069355 16.459656996167983 10.31696715673541
Se 10.053140990540456 10.383409954925908 10.425587714077338
Se 11.174569137929595 12.256158712079007 9.502451982474708
Se 14.438911393461703 11.24506622546797 10.78848936452482
Se 9.341169886493402 10.950239561349642 12.621503164174511
Se 12.369249311819532 12.076137730034684 14.502149615356007
