54
Energy = -179.86870165 eV
Se 14.72375061464695 10.300154571171026 6.728409286186364
Se 12.484967473925048 14.584463667917035 7.119332491364999
Se 12.764837243232211 10.869452767142752 5.427017412300792
Se 10.833529493441992 7.966029046763739 7.83518202465715
Se 7.94771505108659 10.724915540251255 6.485864135658659
Se 8.203628359621696 14.700548407530711 7.855253633154484
Se 11.376728863171957 12.06242032578929 6.91788929900217
Se 11.030608101033312 16.28465151212373 6.434806676294557
Se 15.645935198687756 13.738498413250468 8.756579680183837
Se 9.84256209349582 10.25354051375176 8.129560402434299
Se 9.903516681996646 16.42078086156926 8.580127767284132
Se 6.039865419115553 10.622709120836937 7.901615011526695
Se 14.508489445167509 8.003880891053464 7.109110302892701
Se 12.898464870707356 7.745598187264293 8.885375361014926
Se 13.396646594676785 10.869361498714394 10.257355521970645
Se 6.758856481441671 14.060988615593876 9.605755805482312
Se 11.53278888599999 15.023430679552053 9.697577390013993
Se 17.597833961180967 14.200777556985454 9.942591998217827
Se 6.804396840292791 10.292338322226529 10.05721127872413
Se 11.17791624908066 10.793047813126039 10.584539611144768
Se 14.781000611016866 16.850771100021255 10.204157249929624
Se 10.143805501519148 16.18545035112344 11.56083836550346
Se 16.68720044435768 10.319673106916717 11.609913108692679
Se 7.829088638971486 12.39634469525205 10.854285624377562
Se 11.742155278307937 7.046528755510555 12.08109838314148
Se 18.375595233297243 11.799920792237838 11.01340120017932
Se 16.720568484334414 16.354814148578033 11.184992876150174
Se 13.942640410610453 13.424834687917956 10.354497419391159
Se 11.401850185893053 13.752451795559235 13.679617950003012
Se 11.84377031114473 17.495608099936774 12.470038707871229
Se 8.320209983625725 9.159349626439308 12.700066657150934
Se 8.207183760648737 14.008465610241892 13.987077500482433
Se 16.463043403517066 10.43061744444017 14.005890359062292
Se 15.5717575318414 7.778429535405851 12.580685176282245
Se 12.760584719222727 16.10261470816015 14.151539847291682
Se 9.739661924097158 7.166814480198204 13.233880451463412
Se 6.7536664956851 10.172604323116627 14.28123915442836
Se 17.480187548593513 12.683221247679336 14.224041690226409
Se 13.564226315390407 7.688137677432799 13.685453067152418
Se 13.260610137356068 10.872036941175875 13.967921097979081
Se 10.98911162177249 11.30302649189605 13.582046770457369
Se 13.7173324439377 13.397693809434788 13.776062908267614
Se 7.629031354504552 12.036558871443766 15.390455492135645
Se 10.162399053817857 9.036692410479073 16.23724505994416
Se 8.663153886810319 15.22596261734083 15.95117428752284
Se 10.97329523654641 14.497039059923033 16.81227806847468
Se 17.17804205895059 13.00164966698838 16.482934897278344
Se 12.215793564639561 8.117555962237864 17.18070293594527
Se 9.48193477838474 10.503842743426112 17.990163486459974
Se 13.331306208832439 9.787883900286236 18.488280530668366
Se 11.115269201700965 12.217370245091958 18.137439960139847
Se 14.488448607282173 13.384164892949022 17.0428273664404
Se 15.138933546085028 10.969980521298607 17.526966664847297
Se 13.090409782944313 14.550607554889467 18.495936782792246
