54
Energy = -175.01264112 eV
Se 11.885748434491514 12.452003695192293 7.173365860744264
Se 11.674212708704808 14.570655547006293 7.926181565939494
Se 13.926995999379088 15.993156244286208 7.99940393595113
Se 9.091999294725165 15.661422273986908 8.568999574104247
Se 13.084987732056376 11.251553411663041 9.104074901497697
Se 16.644915767702095 10.891523762081356 9.90653986051222
Se 15.831216109927134 7.849458840944576 10.130033831953332
Se 8.955260420538384 11.37113483489946 9.719139663720275
Se 13.463961735624093 8.050246464602616 10.019375535884727
Se 15.23283249709766 14.922215391805425 9.615518429109375
Se 13.12525971176293 12.861662931603545 10.787883278761521
Se 9.795050025970939 17.1140626421444 10.18555105963969
Se 12.597210358652113 17.809551404331742 10.363101111705362
Se 17.254669633947156 12.84948280667751 9.027058559364262
Se 8.432049822177111 13.473446120651957 10.400543672148956
Se 19.270976079152604 13.675547227528376 10.530294465006165
Se 10.532793670354842 14.834885503418997 12.248497191427296
Se 15.495322273999433 8.627602082093512 12.458753329857826
Se 11.53060861792075 7.306218912555499 11.7500643892487
Se 11.603944255712413 11.388108528539616 12.227666153970496
Se 19.170886040154247 14.466234667267072 13.776476495187325
Se 13.66909231595633 18.46630810533648 12.27565777019172
Se 9.285521206297924 9.013576777110847 11.451951728114611
Se 16.418644767696218 14.092040706144898 12.537410802591783
Se 8.885719536785464 18.089832072187544 13.797809947178918
Se 15.755742024805995 11.922199978563214 12.588019203709585
Se 6.236041184078383 13.18437964745403 11.56073645534126
Se 19.82123720166254 11.799261276596942 11.668911768459832
Se 6.8068853027379435 11.750410677730564 13.319387738781492
Se 12.161407437083698 8.744176950322965 13.564803200401872
Se 8.33639415921392 15.824496356624062 13.310187449281974
Se 18.37393596683981 10.914031448863804 13.867415405976363
Se 14.39615034972906 16.28891402091951 12.989239321797287
Se 7.658044099143728 9.12336868813049 13.086419906186979
Se 17.654645143084615 8.693706360057721 13.521225663033455
Se 11.20423403865987 17.87130710687327 14.212418520128963
Se 12.6540939221272 14.538606116778055 13.658769831239304
Se 13.05627967734527 8.364969979724057 15.865475625199993
Se 14.29491102069613 11.940590142486046 14.866094897226683
Se 8.49702208331402 14.231685116575145 15.691371809571637
Se 18.62735398061078 15.577657554967935 15.690418846161123
Se 10.729267892954049 12.715524607697004 13.922627922339249
Se 15.977684917463309 15.59139358697254 15.443583549490432
Se 14.87190037100328 9.795289084012415 15.621460755541941
Se 7.357549181734771 12.203712039787208 16.335365859657887
Se 17.67700862591178 12.809379023081354 16.349753275586668
Se 8.831774244935929 10.336754162901958 15.73672621341023
Se 11.381192273783574 17.21733345376809 16.514011388564732
Se 11.028412416945324 14.961165226680562 16.958615857505485
Se 11.173717071996283 11.166044909822578 16.321487561569757
Se 13.795018802509354 13.488311624979477 17.802669477532465
Se 16.24829646603077 11.973927083375498 17.899325405293208
Se 14.947396773933612 16.010077872863153 17.467441935949537
Se 11.829130486281246 12.122001080732876 18.42728817465151
