53
Energy = -180.10033417 eV
Se 5.49354532775457 10.911095533370977 4.716073317920259
Se 7.7882830376701175 10.021111994343833 4.301759975890077
Se 9.546522519328846 5.532162923974067 9.325194009257494
Se 9.845472421634359 10.982734608273933 10.529957185144937
Se 6.769862936175537 6.246450763798509 7.723142429674383
Se 12.424529966352832 16.950969769749868 11.843645786095685
Se 10.305227269324854 13.03612761136542 7.630032358977423
Se 6.136987310558707 6.130965931119236 11.065183648560447
Se 10.30853917737743 12.044220544153147 17.78261464494883
Se 13.506743119425769 7.516824127751472 15.103982387461825
Se 7.981786005002533 12.83041022190372 7.210856696934492
Se 3.7496159056198017 8.46568672739543 7.115622532975148
Se 11.915446117727893 10.607581196972077 9.14325874544932
Se 12.380344475263328 14.459056416578619 14.774111662484714
Se 8.458578715444485 5.6621119142555365 11.419524727851739
Se 11.140490360927028 15.384744886898588 16.567156923029472
Se 11.903227422392943 7.949241186532732 5.438451165506716
Se 11.466652464019086 7.517321011127289 9.557010096351945
Se 14.590170391235956 6.295659420457732 11.279088728265188
Se 11.087073820577103 11.605715943963228 12.839177142804667
Se 10.541770155474094 9.691219640832774 13.925029921984645
Se 7.234949981473 14.82683632024567 10.300872857581822
Se 14.455951591890951 11.31357690243241 14.94333468525157
Se 14.818230803808175 15.556310759846385 9.245589322853556
Se 5.342155362478781 9.9364081430771 10.490029668975025
Se 6.938461903406104 14.81566445481449 7.9577066951636946
Se 12.436144716118282 5.511683371424376 10.515152307907172
Se 15.34669510819882 11.849913884571928 10.14633007546649
Se 5.298029303998809 10.22478973917508 6.948272805586089
Se 13.196322408862324 9.209941084881805 10.497595765072784
Se 9.142442613179782 8.90425458934052 11.064252438906383
Se 14.912468754852483 9.34352011274591 16.101332717671003
Se 13.634828194876306 6.09598342220112 16.829126831318025
Se 16.4292850816183 12.11194022077196 13.884643635933005
Se 16.7831843825587 11.037431695331241 11.816066027897117
Se 11.455546706190006 11.435253730397692 4.296663330399717
Se 8.421816823524155 10.180877753788511 14.947609319349553
Se 14.586732579138697 5.838443237092673 13.565410021120657
Se 8.802566788501235 10.337716860119382 17.275988221824665
Se 8.56876720587249 6.707702066687375 5.989549939217664
Se 9.256593769141169 14.083436251472992 17.03791537746269
Se 5.637469796512138 13.52931503323675 11.471770506828882
Se 14.694374412360132 16.645120552316147 11.39349287228524
Se 11.444290709073883 14.943490210705297 12.662105893622822
Se 5.2671936576797025 8.120980205762114 11.996952222347426
Se 6.710541242942313 11.45141180368401 11.805023952118873
Se 13.176249197465415 9.914517310320088 4.872848794866872
Se 12.667181105944683 6.89717004737846 7.341882723381393
Se 16.414440536867158 13.879112434830793 9.389751050799836
Se 11.48922332392107 13.401659533424942 5.610282658680829
Se 8.288780076706178 10.724507561301483 2.2466505993823342
Se 7.525696992489144 7.4595441287074795 4.131088496960878
Se 4.8284452576215875 6.416003511654937 6.479763404753672
