5
Energy = -15.72457201 eV
Se 10.641792181732756 10.573814971703255 6.689581111268407
Se 8.566171424942162 8.181611227711299 8.454477635343615
Se 7.0879251885235375 5.705697731809457 10.597076466153753
Se 8.535465909386048 9.84129603528799 6.686098685414516
Se 6.4891188605878884 7.018053598660737 8.893239666992331
