5
Energy = -15.30121891 eV
Se 9.527353643206482 9.387396771198585 9.537690049350184
Se 8.240498216401887 7.425319329218077 9.141714499183598
Se 9.155795564062714 7.418774841086231 11.334317976111318
Se 10.682774964023956 10.600841677075326 7.651721596235297
Se 8.736222239239133 11.615747466166349 8.560348815146215
