5
Energy = -15.64933156 eV
Se 9.598697526508085 10.864940353040664 9.412479069738454
Se 9.698660570164197 7.17030980639361 7.807533609824909
Se 8.610858175339873 8.899923374513058 9.3837760906758
Se 6.718508120208047 8.695414787034895 7.643224874047459
Se 7.444351129894439 6.452342752826113 7.833744629317043
