50
Energy = -167.14617658 eV
Se 8.95977905451914 8.3028050004919 4.794534873702747
Se 11.0909982120299 5.951803219885589 4.6296211265642855
Se 11.1037562011336 9.09340964758547 4.814312726398448
Se 10.627525981832326 11.514783395358982 4.508668435588548
Se 12.787185566625155 12.507022436535053 4.809672821033428
Se 5.0706540419083534 8.445825011729447 5.343498313394591
Se 6.034344081164076 6.394303132721085 5.794265481396472
Se 6.839877012786906 11.726834990284635 4.231921585229328
Se 9.40511809332669 5.369490077175312 6.407124114408452
Se 6.5656072679222435 10.433763582285707 6.017866785900293
Se 14.093680499681934 7.87700022650683 6.644351704432398
Se 12.891727523426713 4.583680186452888 5.149857176662699
Se 12.449474174474489 14.256213989022154 6.188571629615143
Se 3.8645297168287467 13.180602881358697 7.7437187033063
Se 3.5753007575569185 7.544634765411769 9.211237458897578
Se 12.15053173337752 9.074170245037145 7.132573781744865
Se 16.481986770277413 10.653257314968982 8.468675855417676
Se 5.916823925413036 8.081612248874535 9.111920742233902
Se 10.46053994082894 3.7465365597871347 7.625480737153869
Se 7.898043661302157 14.311589780521365 7.9427326954132536
Se 4.309392273755356 10.935289548613103 7.2026581864882395
Se 5.341635725145112 5.622778050026598 7.928140953434063
Se 9.387355958441681 12.703747828928137 8.83420137125872
Se 11.200901769313564 4.905043816694868 9.65593575539425
Se 13.68340063445825 5.620735786374077 7.176935464118985
Se 14.601931068282575 10.232210747761632 9.589821304337415
Se 6.4111904604741525 5.040329392784394 12.165890048307554
Se 5.762527624380306 10.472527371950427 9.809019406595507
Se 2.8254601142394833 9.360456500306983 10.670635855859068
Se 11.476535022114518 13.793615899222754 9.126009143931993
Se 15.352145096774853 8.143756919087378 10.908717665460191
Se 11.842273989922145 14.221848232372025 11.436141117434138
Se 9.468853367480682 9.800717117645306 11.037907215311424
Se 4.722994324505584 13.589765580334326 9.908343569202673
Se 6.471255697808135 15.18880449618967 9.574424961210159
Se 14.831642355423734 11.984255850266825 11.359816479232403
Se 3.9535475663321478 8.805748485539857 12.607056156165855
Se 8.669923667639114 12.178034224094722 13.363591770180324
Se 7.677895471256603 4.762037041494109 10.239225275368893
Se 6.30649489081497 9.572629057783812 11.958157423271762
Se 10.392969426570435 8.93944457477486 12.85765465309124
Se 13.02422679726973 8.658187135675934 13.77488769925566
Se 13.528946296171968 7.123217727836139 11.8358115452268
Se 7.890954436690719 6.327147776568508 13.617659876577807
Se 6.395791324450599 11.503065779205704 13.528827471503638
Se 12.748364308172821 12.219811348735588 12.35840619896656
Se 9.784343890374076 3.808102368270608 11.130732879288875
Se 6.712135308931389 7.988104382526804 14.594601196533342
Se 9.90676030572805 10.770755679701319 14.678317256263202
Se 11.917515000794433 7.5453409773728835 15.366713742369662
