50
Energy = -169.38610603 eV
Se 9.954904050677586 7.81114994567991 1.3022336269479515
Se 5.203364806321303 7.917374615009626 3.9464371761696038
Se 8.306703107325433 7.064827314114281 2.8940454019726465
Se 10.247402175927244 5.283450471693496 3.5521299066710332
Se 13.741671668952776 6.188320939795797 5.506893604798632
Se 8.641365392181406 9.438254994584247 0.35007123427379205
Se 12.959508734353422 9.726221482218948 5.640797057278009
Se 6.662520047370884 5.112852658646829 4.805259959358397
Se 6.739119326903543 8.837879391216969 2.063746031341581
Se 8.113463734307674 11.30674560109278 3.994773253857594
Se 11.801341552293884 7.524235603133384 4.944737664115215
Se 7.046077405493373 7.018940400096678 6.746176135744668
Se 11.669309123043792 11.214254581988367 4.429190657034547
Se 11.732917536098347 4.5221150117523 7.449363390749698
Se 1.7929517476863914 4.809078384698763 7.587805832033157
Se 8.673398111377066 8.509006827395885 5.97562783294079
Se 3.809907166691921 9.704977371190742 4.41670540853328
Se 6.398652351710835 12.667121170700321 4.702872913749308
Se 8.675563965576776 4.005241596140396 4.834708663907538
Se 14.889827192698379 7.485674776193538 7.101756578856156
Se 9.74860549993046 11.670042928069478 5.780127816730847
Se 13.69794191589179 7.555061040472664 9.181261576920196
Se 5.330034492643265 3.893280675184584 8.594265701730077
Se 8.655930187598521 13.513595287483861 9.058342236355003
Se 4.998659530374537 11.082411544501333 6.134153382093101
Se 3.393192762552592 12.434497726446864 6.868349618882836
Se 6.9449444274952965 7.668668728472775 11.95000877612271
Se 10.394346439003073 6.6573444832647635 7.220172949973291
Se 10.784369961225774 12.47957755100324 9.50020187509384
Se 3.2168485924729096 2.962712799581764 8.31386415017738
Se 8.34179642179728 5.879499464188864 8.382686497951635
Se 10.204204385931721 10.27456852449189 9.998312371566845
Se 7.504392664419197 13.168481692121594 11.069004166804095
Se 2.496377295487557 6.580679250440903 8.863723855575051
Se 10.810256205911532 3.225255933796178 9.15548100970533
Se 6.427596502333579 11.045374556455359 10.781342922509012
Se 5.609912044566662 4.100706616090931 10.976438392777741
Se 1.4007203293374777 6.253189941940091 11.030299528066479
Se 14.670771795270019 6.32086206142193 10.918836753102859
Se 5.063564513935091 6.2594204181799045 11.798729024560568
Se 10.142044892663588 6.905648831726685 13.659001600682489
Se 4.141556392513795 11.416756792777575 10.330332028107973
Se 13.879254410805858 4.083803197444706 10.999619926970896
Se 9.68951001192654 10.443247371600165 12.368739665961572
Se 0.7087621094496167 8.333144387509934 11.762547648809514
Se 11.539823740922548 4.198839049025523 11.214247072461697
Se 2.5762146274215074 9.134501947897448 13.069159616707775
Se 7.909131545696818 7.2534021774568656 14.139215039417785
Se 11.10501775396086 9.13108387579544 13.655933995561584
Se 2.9713976423027546 11.343766300647392 12.397416761119558
