54
Energy = -128.14100087 eV
Se 10.588635976579518 12.516360324731101 6.666834057937712
Se 12.29773704665416 14.139187004933373 6.961447163431798
Se 11.09738556558728 16.307945444019847 6.888262525071047
Se 9.42587375764208 14.50572581353018 7.437694722183359
Se 11.236075328968713 10.957681399303047 8.427504388851712
Se 14.373832261297677 12.96610299417635 7.431477229461371
Se 13.596559481057698 10.663914331423605 7.745174022997642
Se 15.810008103838411 13.91449229940605 9.180885670020093
Se 11.090093447154302 13.305047268375503 9.142950576815712
Se 9.366991238372815 9.944542428241494 9.559263068764757
Se 8.440127313022888 13.995021766207225 9.527909901279676
Se 11.960226654489096 15.684701255434165 9.053563352153576
Se 7.859676687919936 11.766520379609819 10.392955677957023
Se 14.844479983123943 9.85367675327626 9.594860896566212
Se 17.000684241547283 10.006039530535912 10.673661278372323
Se 14.151248453113189 15.440420205828236 10.171137130710505
Se 9.558924955350715 7.767771177097813 10.90150780300998
Se 15.949945823779188 12.151536368219467 10.860790748207101
Se 13.652939748670548 12.314745158488053 9.775872461861182
Se 10.820434289547062 10.040592988950902 11.453686595380669
Se 14.214335727798577 7.693134559715324 10.450632114473045
Se 9.917673625103035 13.081815783863865 11.372175357807945
Se 8.801087223109157 15.28774301359326 11.563340161338422
Se 11.100106054964254 15.796597788990704 11.289162924708092
Se 12.85977147395743 14.07437302003383 11.751288120324608
Se 12.04664519773284 7.99380437071621 11.378631302747786
Se 7.8820414142777935 12.385338367932356 12.78485408086727
Se 14.728661072007606 17.100372189452507 11.899603206586939
Se 15.194954640536608 9.032732983920365 12.211069832300996
Se 14.743199573765866 14.920049829818318 12.95384635544931
Se 10.398882131961848 12.217038636268985 14.165297029531953
Se 13.063141204265674 6.976195547676998 13.455465258676128
Se 15.521091826097638 12.364958118828953 13.265238266676356
Se 12.612400928293898 16.33949264421331 13.03836508081194
Se 11.924565249906363 12.003039127973471 12.36895465964234
Se 13.746351620285726 10.671048683100624 13.339340489763893
Se 7.631736643569507 14.673651722519105 13.663285873087263
Se 9.493861227436822 8.792912973130806 13.13393412012056
Se 8.550729090289842 10.67258757830513 14.26273473839953
Se 11.761852215780603 9.061089022174444 13.829685247576023
Se 9.778625853551041 14.476879199238486 14.910001115081227
Se 15.391471481114802 14.213378910624115 15.155057248752824
Se 14.927425268006147 8.597155133199344 14.653914262008083
Se 11.603470844700663 16.074971010039132 15.257423483576739
Se 16.860125660417 12.213041576372733 15.256745583083466
Se 12.470367688916491 12.002091926279993 15.505354727593524
Se 12.82728004385598 7.737752831019975 15.715775010595072
Se 13.088536383106872 14.310687644567874 15.887861140112816
Se 14.832265318113636 10.849362120996012 15.62778719400743
Se 9.009225126188982 10.627090668845726 16.706669960184364
Se 11.38917216503101 9.788053676223681 16.24860483668667
Se 10.089929217773626 12.847978447746042 16.683513311226243
Se 13.187375946582407 10.795298000808245 17.536524086071353
Se 12.23167668086479 13.088174177102394 17.83234072617808
