6
Energy = -19.70686305 eV
Se 8.55411819187256 8.604863257974053 6.924095682243561
Se 7.024776459857102 7.772331729889661 5.552761659572567
Se 8.874348399242532 6.790518164078115 8.782015646551352
Se 10.190866088099135 7.865912066654085 10.241795604550658
Se 7.234541769510711 9.657267164167083 8.944232852352572
Se 8.884557576667147 10.111962002982846 10.397280045723043
