6
Energy = -19.34213675 eV
Se 7.830626838865937 10.513356929698896 7.686718441737198
Se 9.209213224409071 6.20844065730968 8.700572363948417
Se 6.3017115948544085 10.694648519255656 9.293623479690108
Se 10.482773280880814 8.047175646382923 7.432761344022436
Se 9.976999278331698 9.832688535092316 8.733600185947525
Se 8.654864868061521 7.159878797664233 10.608913270057773
