6
Energy = -19.30640122 eV
Se 7.751471331113831 10.393287006703014 8.566883485387232
Se 6.606844037266686 10.308985785546357 6.656331729509719
Se 9.881738269800039 7.210507967075737 8.348040292497965
Se 6.456764231636527 5.827436881201061 7.458177298364938
Se 8.568606285832848 5.555646873825573 6.885975896176972
Se 8.183860165618363 8.139629629954214 9.530336339856602
