6
Energy = -18.00560967 eV
Se 9.278734897194918 8.571267512968525 8.369256405458648
Se 7.099160363452286 8.218553766893073 7.889766338563923
Se 9.602630741549033 10.999261801717315 9.059741640731
Se 8.708510571694518 9.699653067075731 12.518998969829939
Se 10.867035015926428 7.995839978582147 6.870720486315021
Se 10.3850364259859 10.456531888565895 11.232624174904426
