6
Energy = -19.13981862 eV
Se 7.837256696512211 6.704330384376712 6.675233354690948
Se 5.328752905246251 6.154518464321929 6.604329779662773
Se 9.722780797500798 8.773284281479995 8.731232285668131
Se 7.314201480126371 8.722673122754095 7.823959669694584
Se 4.812752271702162 8.100557326466332 7.74067146827177
Se 10.224162366184384 6.784542937872982 7.664479959283601
