6
Energy = -17.79539003 eV
Se 12.214244951022074 16.539773934078642 10.085229868304188
Se 12.58184956098212 14.901858075965304 11.511448010636542
Se 12.926377196401532 12.659041569304133 13.041169032086795
Se 13.129732076916872 10.699043502366347 14.087749917545075
Se 12.897323017201527 8.32635537553324 15.40682764296843
Se 12.300964544450416 6.485437082718723 16.46215505978572
