6
Energy = -19.29036777 eV
Se 10.935041010108131 10.187871768183495 10.168910418628544
Se 11.81096969070394 12.292222794303692 10.485178696667226
Se 10.362281628168676 15.499891971916194 11.694883465215774
Se 11.811448539689204 9.082318949494365 12.173228454315582
Se 10.159194076421029 13.298522856718398 11.999042876146037
Se 10.95847167843848 10.223602035782488 13.899353290387891
