6
Energy = -18.74203681 eV
Se 10.966852967598612 9.753915170441406 8.367826342126836
Se 8.823996199225153 10.41830540229509 9.556200345589984
Se 6.680799807038273 9.753783870511759 8.367771644701538
Se 6.354670534210856 7.5866964421520136 9.066768299757948
Se 8.82437530901367 7.843885191940131 8.519423612201269
Se 11.293613325973496 7.587738806261681 9.066317898682364
