6
Energy = -18.73262841 eV
Se 7.096040687849574 7.720468102960557 6.76071314527008
Se 10.549800115927722 9.034954968282959 7.934708175329924
Se 7.729430271001441 10.219473369100559 9.656749659302644
Se 10.543283846901351 8.544444697327979 11.833723476634235
Se 8.187198497152323 9.586843243410504 7.252321105064935
Se 9.333466205789335 8.333035243538939 10.001004063019927
