6
Energy = -18.51003143 eV
Se 8.983761335780072 10.087177069068037 9.447265555589897
Se 8.88417777197707 6.388865628544225 8.42690724710074
Se 6.292935723780241 7.811552316826841 8.26867700955627
Se 10.209377807285382 8.144563389601736 7.877644503992097
Se 9.039967669996713 9.70868709416673 6.577600743282834
Se 7.342221806383146 8.61159661699517 10.15434705568078
