7
Energy = -23.49535823 eV
Se 9.337845228152673 9.780365777592804 10.48628297429454
Se 8.444773916418162 10.236554471753585 7.216647914570873
Se 10.263763568434504 7.257325679135601 8.388095120590046
Se 6.470911166051358 9.432111235403935 8.008634433223142
Se 7.486117713372791 8.610185228237766 10.346489100485195
Se 8.35463108986168 6.334129700600213 9.205005743529467
Se 9.638175010852088 8.345545600419229 6.3450624064501175
