7
Energy = -22.11502882 eV
Se 6.6018455894116 10.441045003165192 8.381347849316155
Se 9.005976333946032 7.235285977454456 10.081997482671317
Se 8.810526456581021 10.694731845745268 8.542809084025874
Se 11.26644756130362 7.992417672254721 6.780703044201878
Se 9.86182206106813 9.419904776237995 10.411140596699111
Se 9.306131466174836 9.000598984559982 6.60713470250204
Se 6.977630484599869 7.046395693667619 11.025247193668982
