7
Energy = -24.06425727 eV
Se 8.555672994546532 11.212018200478182 8.13394251940886
Se 7.46930283376251 10.68335430329896 10.145157978932522
Se 10.637258360441326 10.017391716089815 8.43333275389775
Se 10.608225417913204 8.272047241362559 6.977139180534677
Se 8.745347330244764 7.209516020678235 10.154574903706658
Se 6.706041778254061 8.477481925058248 9.895862866612562
Se 9.283052692311974 6.44571710962589 8.078109722346177
