7
Energy = -22.79809561 eV
Se 8.83291789266808 7.905850498542438 8.36119178907106
Se 10.970767024419434 7.352294260762044 8.467707347984232
Se 11.84239150033899 8.346009105848726 10.638101977292608
Se 10.09470659263922 14.858262329341526 10.953116234416504
Se 10.641217540575067 12.829508631450866 11.69737233792405
Se 9.5044421381942 11.228790324686736 10.221141707531217
Se 9.884445551192751 9.250173089395556 11.432256845808071
