7
Energy = -24.05285263 eV
Se 11.240877040855413 10.074101057003103 8.56531761244038
Se 11.624783632108208 9.124301221148489 10.598655701793364
Se 9.533868291581577 11.74608154780244 8.923628869575227
Se 8.581824920782275 7.365007262084088 9.04186423197366
Se 9.942511622895102 7.284540582227661 10.865329849654197
Se 7.645147284406851 10.742312818973083 7.950479386214769
Se 6.944178900122361 9.096834732233855 9.46183178260975
