7
Energy = -22.71306215 eV
Se 9.007154941616166 7.518611687731092 13.954796688833785
Se 11.031860077862554 10.140296623508094 7.943109284291929
Se 11.350904869195405 8.658069974262448 11.42740327430588
Se 9.269723012704727 9.252772994369456 12.585663260706452
Se 11.909786735697066 10.489889342311567 10.097781135510532
Se 8.958013759567343 11.435526284037413 8.047668280836207
Se 8.941310888128418 12.996165548734094 6.460763457981161
