7
Energy = -22.60120777 eV
Se 9.988410230699651 11.277830964466462 10.7231616542774
Se 10.477621991339634 9.866355789525345 12.461035757771642
Se 11.86754300048346 8.15439027220825 11.29240586516406
Se 12.01628945531923 9.157539388528376 9.206266350374216
Se 7.068006466804337 9.215942012689277 7.158523281475746
Se 5.462948548639477 9.966272944522169 8.456645132547944
Se 12.203982847093817 11.446471168440155 9.786764498768745
