7
Energy = -22.63191223 eV
Se 9.818187753480458 8.288922338305003 10.51238729770432
Se 7.866287784374336 6.190689052675757 7.703574137744404
Se 7.373521099040132 8.082022626367577 6.676195484540722
Se 11.398936555086573 10.077503516676334 7.663358296249627
Se 7.382552085189781 8.445766604071544 10.396975617379736
Se 10.476636185106926 10.42038029671186 9.678925389044036
Se 6.906714705317118 9.717551732787246 8.5914199449326
