8
Energy = -25.10820739 eV
Se 9.931775986662716 8.784323627653837 11.590892811719542
Se 11.77094819221853 10.782430604444814 9.389027476519223
Se 7.0772803794318415 9.917297759695058 8.372534974805252
Se 7.294217227062681 9.385842458548044 6.257284108136321
Se 9.36124699104887 6.793161381018494 12.3910725044358
Se 12.096147144622368 8.73117687985253 10.373926282383344
Se 12.27587257024336 12.290781925867377 11.282925119609567
Se 10.92018009296975 14.042653947180408 11.070005306651497
