8
Energy = -24.61516826 eV
Se 7.852203173943905 6.534628723137584 8.315238266098913
Se 7.748751674065184 10.23131572802827 9.577302780362519
Se 8.018711102944714 7.751069370291566 10.170179092310676
Se 12.146482286574248 8.29136172397088 11.39544067533834
Se 10.80179281186986 11.76048376695639 7.5039009816709115
Se 9.36178768266311 11.199108782757188 5.943052168746837
Se 7.883212054320147 11.268303366761504 11.535880620410738
Se 10.64621653427417 7.422885858751681 10.018162735716386
