8
Energy = -24.84848088 eV
Se 9.949481222379296 11.711896135567407 9.105106495038124
Se 10.44161046325726 6.931917946545264 7.862424292697174
Se 8.801267298721545 13.59842864141674 9.511557513082996
Se 12.601332410319156 7.543157696211686 8.646106496044334
Se 10.117639132437805 10.319092304885892 11.066995568600317
Se 7.750542368385053 10.23873268611859 11.639209332389749
Se 11.420547924534802 8.982187469125364 7.170846947515292
Se 7.5941270089724995 9.351134949136474 13.67430118363943
