8
Energy = -24.98314439 eV
Se 5.9408825733237265 9.895041350267832 11.042635516363005
Se 11.16100108829868 8.333000249979607 8.88054370950352
Se 11.689349731073474 10.82541885435644 6.021242869503639
Se 8.524759773114521 5.861159259507491 9.62083349307675
Se 9.363961382093072 11.589797459776504 10.709955003183888
Se 8.148866100137143 9.83476203225296 11.435177057034927
Se 8.763232809560057 7.985828604738306 9.027524998334577
Se 11.383250940898296 10.65029658761943 8.237391751498263
