8
Energy = -26.15615139 eV
Se 8.8817065506301 9.662331793567887 11.853374810718796
Se 9.203902032084812 10.248667362361974 6.883738053985603
Se 10.828841154917574 8.705995117417382 6.7230820630179196
Se 8.806567287815218 11.716216339481608 10.491016201736215
Se 8.589018230719027 7.920089571446531 10.348283029288948
Se 8.078843382822818 13.214631937793246 11.966280928789098
Se 10.739874836593696 6.964301588666521 9.948344628260337
Se 11.949288940553801 8.645808705401908 8.863922700340275
