8
Energy = -26.9118368 eV
Se 7.026561448386926 11.41974302978402 10.221444785883769
Se 9.998081969023856 11.38979762231197 7.943871928974685
Se 8.803826111026856 8.084260525548913 10.600405672693576
Se 6.74346961678276 8.919933219220113 10.244515364449686
Se 11.459410350784657 6.0319383448714285 9.008678616859752
Se 9.275118798982685 11.716571817213074 10.261848913088604
Se 11.434900930152839 9.606104250999385 8.11528893837156
Se 9.989502529276807 7.56252294446835 8.334817534095361
