8
Energy = -26.28201735 eV
Se 11.736480299717368 10.963226077017584 10.85288482511049
Se 9.95116481125207 10.475770051277117 12.078843800844373
Se 10.596352123813972 12.515851583297659 9.04345003313238
Se 9.150630634441699 8.154922209593884 11.223918644809316
Se 8.497477821768925 12.479377991227095 9.710950314950626
Se 10.848860132825635 7.396167916365156 10.008986451295975
Se 7.930963129426357 8.748697001631163 8.087327178069078
Se 9.92747767923243 7.9549370607769605 7.607338742696965
