8
Energy = -25.74896488 eV
Se 7.736016374068196 11.325365619870814 8.555283675234886
Se 7.706487114576392 9.266415263182875 9.503247515662196
Se 9.137909311159136 6.148152633453983 9.417979771760361
Se 8.052645578931248 6.775056108460431 11.284168821517532
Se 9.039552786957332 8.014489027772205 7.849134063124926
Se 10.39560253964913 11.555750404265385 8.934409921712538
Se 10.720648270956305 9.943973545093288 7.198764427398405
Se 10.840069182260416 10.599728556458519 10.885942962146919
