8
Energy = -24.86917399 eV
Se 10.739071246779615 10.385890359190007 7.049614150252218
Se 10.113619073453764 5.973636053387884 10.394069080675632
Se 10.358976835012035 8.15672248361497 10.023413258457593
Se 7.040808972943573 11.512990269057626 10.21119247259016
Se 6.885665551224023 9.288783797809684 11.028732421658804
Se 8.149616111115435 10.905976752584708 12.2228159701505
Se 11.823786345338888 12.163482720609652 7.886485831074385
Se 11.646920814540763 8.370982514153015 7.942141765548396
