8
Energy = -27.79111765 eV
Se 11.738551072721533 7.953531314686276 9.666115235429471
Se 11.922239257307274 10.254732382119792 10.14613215002894
Se 10.642492508387276 7.727375595954366 7.594349219979913
Se 10.163463837696533 10.897004527409413 11.574784173058879
Se 8.388820605057912 7.229900937550081 8.048174434489786
Se 7.135024599954929 9.215952436678036 7.816549340329368
Se 8.448094143884088 11.830747769028244 10.256771356019977
Se 6.807405632688955 10.167424302276196 9.947122523259068
