8
Energy = -26.28247898 eV
Se 10.650056461287893 10.107590142128801 11.887149339455673
Se 5.875358625354262 6.9584309898307 8.35955742687706
Se 8.03378658613886 6.99617885253362 8.895380975245372
Se 12.075829882912771 10.206997968115921 8.881062743538498
Se 8.776794511706138 8.987803376259881 10.287042193887682
Se 10.12940591885285 12.190905348959529 11.232221201436172
Se 11.301951557869703 12.341232564199183 9.009032575715795
Se 9.958701486111254 9.012745788206368 8.250438574077886
