9
Energy = -29.8189207 eV
Se 8.491352334319114 9.673321039432667 8.35222120592593
Se 10.42109245776652 10.533148987223528 14.245168635620901
Se 11.393609551610986 7.936316268151777 9.480611389301664
Se 9.940511149117333 12.691572027813946 14.177886082451744
Se 8.550060806070778 11.56605166680972 9.837400111703943
Se 9.938119855012976 10.02146033656478 6.630216816179886
Se 10.782828766467885 11.65960584708884 10.598839045295565
Se 11.188390108367408 9.764277724342582 11.829291845146853
Se 12.03540498836049 8.895616119665808 7.589734885467443
