9
Energy = -29.55255481 eV
Se 11.055891643283942 11.292502679266248 9.64110282982139
Se 9.662436530206364 7.121694730217556 9.810698992156189
Se 7.5358434745997815 11.327419294952705 11.196536779756151
Se 10.273905453978287 9.158123389511424 12.809307654612194
Se 10.044962487344838 8.15032313986746 7.79501759280715
Se 9.561635281866018 11.453595546518889 6.146141014339729
Se 9.709070260284507 11.483293440582763 11.686345138398575
Se 9.214359316550162 10.536694994716482 8.139205310658044
Se 11.426145433111634 7.960602665592008 11.259894568675971
