9
Energy = -29.61069908 eV
Se 10.909756582516449 6.873397198160487 12.070168144959087
Se 12.356573126200592 8.963903528550553 9.896382421013259
Se 11.883776718609399 10.432132867487432 11.502762057354309
Se 10.812476121161442 8.730736537994508 13.24580462017344
Se 10.340677412048882 8.890873294814265 8.368849814011593
Se 11.087902151042568 14.799712602950555 9.888747434946191
Se 9.581498920247654 13.37901176120802 10.726402910047964
Se 8.658986128411907 9.905024732011919 9.554337739531535
Se 8.521853123980586 12.178707761042187 8.900045142182394
