9
Energy = -29.16435462 eV
Se 7.512383408888882 11.347918558050976 8.30740272079221
Se 8.806632651170679 13.248710569024839 9.338303504748934
Se 10.285781245912663 9.131749956362999 8.055030991906728
Se 9.125850278092296 6.713186421399528 12.914736917895176
Se 8.203585876137618 9.577950249825772 9.55217473307666
Se 10.604721733934072 7.739758671738389 11.637561327134225
Se 11.768979594046824 10.995494330839813 9.05135280012584
Se 10.289607277561641 11.949792899745981 10.56336854227962
Se 11.306787352441928 7.1997677611983075 8.484397880226938
