9
Energy = -29.58493927 eV
Se 11.53887783438669 7.910475762847435 6.391980448720733
Se 13.59148275447926 7.041585571756562 6.251060033873163
Se 10.547547060273097 10.693179657207919 8.83408690398666
Se 11.283937879176245 8.461501742656612 8.760882841124799
Se 10.471010249426564 10.777736457468647 12.646098820985038
Se 8.523924089320566 9.976882835245515 11.860765092481412
Se 8.329521555010272 10.743547800102995 9.505803560596975
Se 9.739504283308154 13.005029284218956 13.719485202476099
Se 7.540143701160276 12.95835556197404 13.575014862204174
