10
Energy = -47.53634839 eV
Y 8.290630586924303 9.49146658859383 11.166405438318183
Y 8.236497605769213 9.50099011323586 7.846967731230815
Y 7.328358469226296 12.17317871455178 9.52575933912844
Y 10.737808635675101 7.844945386901184 9.4744375635383
Y 10.727592723828861 11.158518683388257 9.463114898185932
Y 5.372102735020451 9.498065838179741 9.5512243739948
Y 7.3211387927454075 6.825470342547856 9.511245796205582
Y 11.58014477426014 9.514029274893243 12.160878606261734
Y 11.78301859387344 9.498036022396812 6.805990215658397
Y 13.638181701647522 9.510774416340945 9.509449894388961
