10
Energy = -48.03469322 eV
Y 8.470404012462312 13.77041698770202 9.333191154856214
Y 8.888604871773774 12.453096015420671 12.651434374279464
Y 13.935525147011658 10.639657152964846 10.07559594082661
Y 11.019419947274445 12.080271258409637 10.390840948247423
Y 12.986752488293734 8.109184648724089 11.974638124328482
Y 11.161962305936456 8.971849930179575 9.255391214882103
Y 8.13092689016005 10.573101419831687 9.848425687649517
Y 9.909914767618643 9.33666055771459 12.320819581469573
Y 10.079545824382611 11.608725465393036 7.316508697246631
Y 12.412501505571921 11.217239639398532 13.191708705216813
