10
Energy = -44.32064289 eV
Y 5.978624430495683 7.783919669282076 10.082219317640751
Y 8.69125761 5.825524157681289 10.097456201774737
Y 11.403890789504315 7.783919669282076 10.082219317640751
Y 10.365927604739401 10.964992558408934 10.049481242299697
Y 7.016587615260599 10.964992558408934 10.049481242299697
Y 5.978624430495683 9.59859555071792 7.300295902359245
Y 7.016587615260599 6.417522661591061 7.333033977700299
Y 10.365927604739401 6.417522661591061 7.333033977700299
Y 11.403890789504315 9.59859555071792 7.300295902359245
Y 8.69125761 11.556991062318708 7.285059018225263
