10
Energy = -48.05310476 eV
Y 12.221412136172924 10.720283379775546 11.555255374886833
Y 11.318335361651451 12.72747279748375 9.167742788627704
Y 10.830936952875472 9.580082510486807 8.544713664947214
Y 9.229602058587385 12.352092509199561 11.980648284046477
Y 9.46015293036231 9.142035925963366 11.531225236831151
Y 6.444547009864398 10.149920064126125 11.461874493257298
Y 8.206722281783568 11.2935953832382 9.084361825571522
Y 7.713571392723526 7.981168527553396 9.138526976116122
Y 13.917090773711486 10.274350819910094 8.9102928692355
Y 12.450369102267471 7.571738082263145 10.418098486480305
