10
Energy = -47.7063062 eV
Y 12.760863503324648 12.106295789140017 9.889427148292299
Y 12.967233910779433 14.306576348449438 12.245521178443854
Y 12.247239371064161 8.754088723753608 8.03060499957118
Y 11.80859358807672 9.328552582588573 11.139035125240751
Y 11.151691508333315 11.77607798318129 13.062458436654955
Y 10.060395936184312 13.69426968447276 10.689560621622594
Y 9.994628398844077 10.970214341026146 8.591742170596808
Y 9.630076549777948 8.2912307770822 13.226026461186933
Y 9.455820442748825 7.832850063256094 9.827173047570088
Y 8.50600705275225 10.707089463865849 11.462607128490548
