10
Energy = -48.00076537 eV
Y 12.75638807258686 9.183814292301422 10.614263342757782
Y 12.236812240571618 11.363032639399645 8.297070843134708
Y 11.40616379628221 8.165016003795747 7.717637718983781
Y 10.097272114437828 11.21104530670858 10.875098854156247
Y 9.417176979843013 8.033870984606924 10.340018810194312
Y 6.89614465252618 10.137200807484838 10.584620988260195
Y 8.885368726282582 10.268633363067217 7.9624473875440716
Y 8.205094694833784 7.091381300678122 7.4273872611957605
Y 5.5460600958601765 9.118683768037618 7.688141873482273
Y 6.065619797942166 6.9394215339200205 10.005412920290746
