11
Energy = -52.82029468 eV
Y 12.910977391215882 11.524144115233428 10.424335790923093
Y 9.471140530585359 12.116651779361415 10.358955197444734
Y 8.903021989500735 8.905634528235218 10.70454582095573
Y 10.723548584363417 9.982886900749731 8.181659400874588
Y 13.096738136857107 12.963967867745874 13.429071328562845
Y 9.751025783441992 13.420886446305008 13.420304652877146
Y 12.261339422940745 8.28150878612689 10.693252924492421
Y 11.079736265432839 10.372623979774472 12.95999391893586
Y 7.514824994714295 10.527607390322414 8.228047339257639
Y 11.609339000645601 14.617836377669606 10.91967875321284
Y 14.30478884901312 9.834073438312139 12.851382854519937
