11
Energy = -52.67658088 eV
Y 10.736279202919214 14.246892806411719 11.694687821713584
Y 8.0474562144388 12.079881534731902 11.320105746360912
Y 13.53454522305008 12.333782211121113 11.950234657573423
Y 9.178782492872351 8.981690546133148 11.336601874946947
Y 12.630267283569355 9.061609486125453 11.740090721437088
Y 10.951079826456233 11.374693369470611 9.894082611014364
Y 10.56255644191027 11.252023966081037 13.3105374914455
Y 12.32683982586153 13.672156111589947 14.730189318496832
Y 13.471395569638078 10.578037169459403 14.755277788719832
Y 12.981288824474065 13.856743863593058 9.06193885201184
Y 14.108057998100467 10.764897583250654 9.089064933003689
