11
Energy = -53.25897197 eV
Y 8.862950012080715 10.336048094834084 5.969254314260542
Y 8.051901796767384 12.291597529546745 8.430622842217012
Y 10.232345896228706 7.522464907027442 6.846336116553329
Y 10.858704550801356 10.250939715903955 8.657921785486025
Y 7.805253830718653 8.989600737130779 8.848768898816889
Y 12.812309331693243 7.382870104265027 8.937287770256518
Y 9.772173374649732 6.551015844472402 10.038361105355595
Y 9.527347091575477 11.666791510750178 11.388663381450964
Y 6.246509611029266 11.227180599355378 11.009522891812551
Y 8.241072560941973 8.791266270694159 12.126420066704563
Y 11.440459071908585 8.841251814415077 11.597867955480964
