11
Energy = -53.07573419 eV
Y 10.16905188230478 9.931310759177022 6.011581685156615
Y 8.17585382496136 10.729132990189937 8.32012685395302
Y 11.556291215846578 9.869138169960529 8.808710961263209
Y 9.261017545194502 7.649613338377845 8.979161811027453
Y 10.705581518911131 12.79360367332488 8.180196019075735
Y 12.183912988108672 11.864506565828389 11.264142146385163
Y 12.193179494051805 7.7791411345605175 11.27554792122485
Y 8.724638659581462 12.454733230549081 10.981067641899529
Y 6.920060955307099 9.29500095085808 11.019235017344885
Y 9.023425509512407 6.697120241630193 12.07886693326387
Y 9.867201349586313 9.716913888909255 11.861577952771801
