11
Energy = -53.26369305 eV
Y 14.42488297903857 12.952147675642031 11.577210163378426
Y 13.753100185878013 10.776844746178574 9.151118368515647
Y 13.383895279668778 9.875696648257547 12.365774708990726
Y 11.75936804313938 12.43470514860176 13.474457417576982
Y 11.04094486028696 10.948725474663345 7.348166085314502
Y 11.217092203019316 12.647774500886069 10.221758685194878
Y 10.160249730387067 9.620426569179784 13.539740101611546
Y 10.795746926587327 9.364432370636301 10.300906407732972
Y 8.589623072884061 12.140380941653607 12.254056138467302
Y 8.285874546072796 11.15562675147265 9.054630172400262
Y 7.559945234053775 9.064637460502011 11.527316050971505
