12
Energy = -58.25240342 eV
Y 7.930060083929408 12.481751026984865 9.469087650475238
Y 7.89863245815742 5.793291725639331 9.40797865764803
Y 7.743330288431301 9.151654266948805 9.59694314107145
Y 10.613948656920378 7.422065390779304 8.464251566397305
Y 10.566025991569315 10.808895083891015 8.512049578075668
Y 5.988190646263677 7.458543658205813 7.135097379790323
Y 6.066615738971462 10.80893544772172 7.237798029876956
Y 9.827071309817175 7.507568380634084 11.67057313212703
Y 9.868421314188014 10.90960657333331 11.69743932023728
Y 8.668708896258849 9.099146246429715 6.265396470299111
Y 8.655712839864348 5.7310511486214635 6.176661068485384
Y 12.531550195437676 9.185758631002056 10.724992005516107
