12
Energy = -58.56017429 eV
Y 13.52062482241195 10.628762111251863 8.847902059750945
Y 13.75826824932217 9.235219311393271 11.896301276651267
Y 9.038859603909861 13.558277927369495 10.858795439857206
Y 12.730551812852692 12.494897316025275 11.636101287342576
Y 11.551401290584897 13.417415788307617 8.665094736198345
Y 11.585411070736724 15.646244223623622 11.058343933555314
Y 10.698757837613474 8.17547829470289 12.52391586548262
Y 8.875902962614418 10.974467540915217 13.111408009095173
Y 12.175695328888594 7.699469577150696 9.464493003912231
Y 11.884349690884484 10.731914687889294 14.33406765140183
Y 10.466769686392304 10.519445161098922 10.21862134519453
Y 10.56874410326804 13.796432149574017 13.74013308966514
