12
Energy = -59.28101398 eV
Y 11.585996521291309 11.399012213630224 8.169797363207204
Y 5.838129504125435 10.119960065528499 9.095044929599181
Y 6.74787503647527 7.158395514872839 10.150574889259827
Y 10.552133185355654 8.913664870840847 6.189929034818189
Y 12.317879947652118 8.38818319406897 9.249707421292458
Y 9.495168445279436 7.088807182462659 8.559958679447272
Y 7.119669870083637 8.146612104575729 6.748108984192246
Y 9.961464673721672 7.297880357448208 11.702688463881373
Y 9.019893589326138 10.050425585291167 9.437757084303284
Y 7.666448943077723 9.591413961724841 12.24631249518329
Y 8.27496790157074 11.24329112895225 6.556472923076263
Y 11.19235238204074 10.374334406186982 11.66562861011489
