12
Energy = -58.98280302 eV
Y 12.506527014552102 7.9562097626643515 10.821719737154892
Y 10.600868348887092 8.130342450793394 13.543892656899557
Y 14.710914277142033 10.981131880179806 10.299935437282603
Y 13.211205106899143 10.154427988128239 13.175238916181431
Y 11.596103879570407 11.00490397518647 10.374919997244303
Y 9.099121816357757 9.003259061038323 10.756072066060687
Y 12.48976780798652 13.47786302553955 8.699798304033642
Y 7.365564071549294 11.754240481027574 11.184193187452157
Y 10.034229561551838 11.41913723756377 13.194374447801907
Y 12.999263623122452 13.358910614125188 12.084722904320163
Y 9.174834018784532 11.697045858673178 8.391045172048223
Y 9.910457925618747 13.856701914746296 10.77805636091111
