12
Energy = -58.84701728 eV
Y 9.594834814321079 8.739071618300597 6.946925755709952
Y 6.591443077552074 8.179902280796032 8.27723007199974
Y 11.018982898730867 11.051336947150132 9.415831989321388
Y 12.626537483488253 8.344658385565827 8.557518039240513
Y 7.810548714846661 11.132244160774858 8.436657383965086
Y 14.313415412495072 10.822512454467335 9.91131851495133
Y 9.358309131914549 8.302431498259578 10.124530015420582
Y 6.6265882324727565 10.083871913477752 11.17057813073564
Y 12.468362777374454 8.955128503113 11.8044063100754
Y 8.75795705597429 12.818171890267674 11.14910181297869
Y 12.118136614770227 12.206711496970367 12.260539425490474
Y 9.543296515876108 10.1923715806735 12.773775279928332
