12
Energy = -58.15114152 eV
Y 11.335275079302146 9.976738992166942 12.60830072791062
Y 13.988636080290481 13.573044926505826 14.223360188345088
Y 9.28066608386982 11.321943692167922 10.359447948809613
Y 12.136116662352656 10.0366928467235 9.364027724883105
Y 11.80936860029152 13.300718006527813 9.157533852087745
Y 13.936750715314185 12.010192178135831 11.370859932981206
Y 13.548545294783326 15.265864505734033 11.37700090451052
Y 10.056702566151765 11.365702539333558 7.1804662360210845
Y 14.271739558562883 10.241608284622334 14.195781738911736
Y 11.036365690652996 13.397603112765543 12.582121940483527
Y 8.603871107115959 11.397962317417116 13.728605269167119
Y 11.477817364274523 11.608990214352293 15.415397307070604
