12
Energy = -52.85546031 eV
Y 7.321662582727933 7.325334883240507 5.712060001185605
Y 7.210394128701601 7.207314348572006 8.891719120825185
Y 7.3381342779222924 7.327235025159828 12.071519191615183
Y 10.426936309211845 7.342835592802482 5.7705438292759395
Y 10.544199780313038 7.234908623114147 8.884357964753656
Y 10.443539009914188 7.344262731661398 11.99913798495069
Y 7.332461389682968 10.430466762847393 5.777777104659819
Y 7.23147294340174 10.540976823431594 8.891780472905191
Y 7.347994844925473 10.43293047764116 12.006329985075011
Y 10.43730340259311 10.447973476223162 5.703094230204791
Y 10.564981235487528 10.56875575059242 8.882151634865487
Y 10.453824095117906 10.44990950471352 12.062431871603396
