13
Energy = -64.16788818 eV
Y 9.494689605595017 7.5254646031437105 13.193974344252204
Y 8.049718812232607 6.81951207896094 10.345084984546272
Y 10.843716595970832 10.408971130949611 13.591850339563095
Y 10.755246159414929 9.045619058333775 10.45183863852729
Y 10.211640259605183 7.341218874856421 7.555897805024759
Y 13.022970152959811 11.420285024890797 11.010678820609696
Y 12.77643822845671 9.673820616405697 7.804019305939788
Y 7.868449197708651 10.070122469313226 11.721370104367853
Y 9.872005518071157 12.720998109297817 11.509691424575442
Y 10.930415095511586 12.002824573907715 8.697467878383232
Y 9.833619344561711 10.483215394405882 6.187352110235936
Y 7.980767476622995 9.40475614509591 8.500106466005123
Y 7.782623414781587 12.514255872693488 8.8807064704846
