13
Energy = -63.53886809 eV
Y 14.423660792771065 12.428159585653365 11.084772532784049
Y 12.314526829994097 13.037690118175796 8.47481806611631
Y 14.369487539716024 9.389425571609445 12.433252151305402
Y 12.509604932729683 10.033433196101782 9.740259797366637
Y 11.656861694199337 14.3794980373724 11.475336053367045
Y 11.809484842753507 11.470376656178955 12.951874780584602
Y 10.090568896702063 7.71967670387709 9.119480916053226
Y 8.822307164794212 13.036263122093878 12.864114539595242
Y 9.126789981517234 13.42617622682394 9.475623965858953
Y 11.189636461539136 8.254275891593213 12.253342122358891
Y 8.994439595185156 9.972430061944687 14.133823633129662
Y 9.971612198631968 10.677672950781 7.618143145916418
Y 9.04756156249941 10.439572923880549 10.804393354202261
