13
Energy = -64.20883271 eV
Y 11.846935161652615 9.136058856876552 7.452013152731885
Y 8.968900743901127 7.118257777275127 7.152095883635635
Y 9.13301035424545 10.170969947420533 5.631115575623939
Y 9.777445740555493 12.486890170587278 8.079146424921522
Y 10.621128281872009 7.240651344711351 10.260409525447741
Y 6.6448879279828095 10.890812434787083 7.854266227219677
Y 9.219153055596763 9.639599957897326 8.765845509518547
Y 11.393052533894583 10.599923758676443 10.74064365036827
Y 7.024765161670583 8.049068412702596 10.113196019969472
Y 8.033568135224657 11.448280713178374 11.056280375074845
Y 9.103785530588853 8.827564665304926 12.67338296966028
Y 12.251959686533151 8.61334279321502 13.193054170816053
Y 10.48395774668286 11.501237090767837 13.744427912434556
