13
Energy = -64.66351442 eV
Y 9.292638996620452 12.685583883058444 9.627432263346462
Y 9.528225385311236 9.491467543904092 9.800851309144056
Y 11.668442320740086 11.01820598347531 7.807467433085749
Y 7.481213988595475 8.432913692945815 12.016158763409203
Y 6.931064422735513 7.260614468110341 8.942180165743826
Y 6.387681929783019 8.757894757846456 6.127990471978499
Y 9.676246815467865 7.894808273305589 7.079825856281326
Y 12.477263593375206 8.14755274730164 9.625142364972975
Y 9.64906103780169 6.271977434296943 10.477803086737957
Y 8.55374197123882 11.07108777049144 6.786173757453497
Y 10.924084745699366 8.389776270816366 12.588323337724402
Y 6.375472823316127 10.457277540441835 9.141047418749796
Y 12.098914969315398 11.164892634005719 11.023656543418028
