13
Energy = -65.61536416 eV
Y 9.306937573999653 9.305906646906202 9.306077884534755
Y 9.307703300322204 11.040926702956423 12.112676715436162
Y 9.306028655941363 7.572472684566383 12.112813272946731
Y 9.307461822370463 11.040380803239861 6.500490309464548
Y 9.305498939643277 7.572677862402237 6.500671947938375
Y 11.041372419880576 12.112258648902067 9.306786272697801
Y 11.038491644070243 6.5031390371496105 9.306564232012386
Y 7.574718496981588 12.110825163663938 9.306803109134696
Y 7.571763796796734 6.501183860919858 9.306297835613883
Y 12.112514353250235 9.307999365122193 11.04238183724786
Y 12.111588070298124 9.307892502076548 7.57159434470341
Y 6.50103215047645 9.305096496295526 11.041984198147622
Y 6.500604275969088 9.30495572579902 7.570573540121903
