13
Energy = -64.29001302 eV
Y 9.751861322281696 11.538447226615766 7.597351442133609
Y 7.56370434168713 10.304942976687434 12.475792699451372
Y 12.651096198187554 10.322347064670414 8.390193446614644
Y 9.296564164783167 7.314899444618986 11.681444331421527
Y 8.070739109081531 6.803143030712901 7.547214885322757
Y 8.211858168235423 9.325798470399585 9.519585009624295
Y 10.335034733453941 8.905032215883224 5.912531413007017
Y 12.267441011577128 8.766466868227253 11.423903132199433
Y 10.986337893326422 7.646471220662583 8.724578122535467
Y 7.125091671269803 10.002635685468404 6.6147806301862735
Y 10.437469002533888 9.70390745136695 13.942864592000936
Y 7.24663260666239 12.290555687077433 9.57161100058745
Y 10.381637276919948 11.40082045040097 10.923616209331566
