13
Energy = -63.40639316 eV
Y 10.87914407028121 14.586106973223915 10.241017438441656
Y 14.289463545939949 14.057161963200107 10.982661098464218
Y 9.078459080116202 12.023957436735483 9.124766645360413
Y 17.060274062588597 13.05247812013415 12.361487921286583
Y 12.273436078076662 11.635430158600377 10.217737356057487
Y 8.235581119770167 13.394693172567527 12.041033984326196
Y 14.186672327443015 11.518781819244284 13.196879784290736
Y 11.292773244452727 13.127005543388389 13.265856299138061
Y 9.654834973541153 10.380723128613662 12.03836230136195
Y 8.745635186536044 11.749495059698289 14.89968760275718
Y 15.55317718065162 10.871209787251773 10.382026226273089
Y 12.84953593410496 8.856007881644231 11.745193144360183
Y 11.556084267457106 9.99892503608886 14.685142479461437
