13
Energy = -63.84781642 eV
Y 10.50570641290083 12.282254136879034 10.610335602207964
Y 9.621024770761586 10.706105574214945 7.745656502558865
Y 12.692046514724067 12.126644677188546 7.892569987292445
Y 11.538909123011722 13.41146663894415 13.60451972891438
Y 9.940095515348482 9.287484408485648 12.230861176780945
Y 8.89180681899778 7.862940348607477 9.252557106199125
Y 11.997177051214868 9.369733382969711 9.510713172262179
Y 13.026339891337253 10.72177313480214 12.466868950615321
Y 7.541941997303802 10.616718148802937 10.487611292227463
Y 8.490656875812757 11.955092861021814 13.443996588891824
Y 15.12328604278498 10.774041394824652 9.728352288398607
Y 13.64927568764889 13.492018585644468 10.826463205456747
Y 10.967024771917869 10.622485502098353 15.230905712624445
