13
Energy = -63.78632416 eV
Y 13.055335821580462 14.706273200310395 12.665087169043293
Y 10.389553269062267 12.671832554081378 13.330641900965146
Y 10.500020470079809 14.430335993383038 10.466110726750344
Y 13.819017695515486 11.78140790436766 14.082053126244825
Y 7.657130484452725 12.600244677199061 10.862798105003186
Y 15.678722858906493 12.84772804465991 11.648074821783268
Y 14.924673490925649 9.588646271301435 11.68476605813989
Y 12.540014675861078 11.69441238299396 10.994636615560024
Y 12.025799121016233 9.204035884973676 13.240530835996143
Y 10.025336129621097 11.520644516984698 8.88276307747926
Y 9.28748931681609 10.038530585741503 11.778462840985405
Y 7.748663239712396 9.374470943101805 9.12300766415983
Y 11.402000366998328 8.541306550237337 9.907638239553764
