13
Energy = -63.47341844 eV
Y 14.919506928099397 10.813434620770444 10.508278856687042
Y 17.414940550990817 12.356372232051648 11.930666220859134
Y 12.201026917310953 12.161207087886705 11.89996458830377
Y 11.684422211793734 10.658483282003125 9.270279354984433
Y 11.534608680466642 14.548852110138178 10.085472239616843
Y 14.790968681359866 14.15215364917973 11.209262670102586
Y 9.422305070282105 10.308978665654227 11.871336651643478
Y 12.578596566154545 9.15810940365522 12.310597201479277
Y 14.682355953774577 11.878526170696803 13.709175736301082
Y 12.35800814618093 14.763445362972488 13.485034813238624
Y 10.923717998575654 11.536078719775327 14.63912852694196
Y 7.63892367696395 11.469341289504897 14.339604022803385
Y 9.290576490944034 13.653076727115879 12.570481418212884
