14
Energy = -69.30170496 eV
Y 14.430730870481282 8.888638697132597 11.289435544446777
Y 14.23399730373347 11.241626508402355 8.765119551582432
Y 11.392415461430442 9.12245519459092 9.302222640077453
Y 11.460034885452517 8.514505594308671 12.564905519709583
Y 12.877431193296369 11.558622532330993 11.535438687830762
Y 11.16253237828686 12.335387768106635 8.499450650085466
Y 8.444460243011033 8.501865553075822 11.261817582278713
Y 8.246747603693306 10.876419614286107 8.75228051270525
Y 9.628262895113114 10.353879400331987 14.50361331950053
Y 12.966304418084093 10.572490643008742 14.533189616457278
Y 11.111440878234244 13.502130381897215 13.441227986337003
Y 9.637168681563471 11.361490089867464 11.49252281843203
Y 12.723101435408324 14.488685992786698 10.330804637731667
Y 9.385331339499524 14.303668296676834 10.343417970428595
