14
Energy = -70.35322847 eV
Y 10.80755681636954 11.401829238925979 14.692129859649565
Y 8.972908725610965 13.505349151602628 12.70783580196962
Y 15.701845479503476 12.245874874399354 11.977795335567773
Y 13.32086448850282 10.06065788326774 13.040964286616084
Y 10.771209811910097 8.07032694819125 14.099109951975551
Y 12.74478558991723 13.715515101793711 12.954385902527811
Y 10.502468707342212 14.45814882260322 9.818094649169149
Y 10.983031724980865 8.670868819545413 10.724764947739557
Y 8.578894517038574 10.106536924875304 12.725574417322912
Y 8.458253474006048 11.772096593461601 9.766233559776092
Y 11.266723045227888 11.685289285909539 11.215216145924634
Y 14.00402126361615 10.270215723045908 9.80502101791405
Y 13.707420244614317 13.519586375627767 9.698713928937593
Y 11.393923577497159 11.68631742768374 7.980314545784686
