14
Energy = -69.42934209 eV
Y 11.29391136125425 14.548654301128527 9.247844996594775
Y 8.693223398820479 12.190600039296081 8.60442364765195
Y 11.703466825883432 11.52795587580338 8.094482483270957
Y 12.275143380866208 11.879788162280986 11.463888353875271
Y 9.186526670312654 13.738915655413594 11.45181963776359
Y 12.083318958102494 14.9423335099458 12.656904224558295
Y 12.970402446465986 9.025494476837393 9.674572972259247
Y 13.55440506663266 12.056900134603168 14.486990353679246
Y 9.949648320480861 8.814734819736959 8.486231348606783
Y 14.078815460364048 9.040132710450251 12.744589136927075
Y 10.32657706510343 12.668779484718165 14.265048219760294
Y 9.427281190767694 10.331534167858946 11.30449908486854
Y 11.281652468392124 9.599634383321515 14.088302877510797
Y 11.100025236537025 7.447243204128342 11.617152921168708
