14
Energy = -70.58442524 eV
Y 8.128045591641934 8.775894167292066 8.034431396056403
Y 7.348373396239585 9.536463251588515 11.247219374577531
Y 9.723606855764682 8.851318267724057 13.720524082397743
Y 11.409012851643299 9.281451358089235 8.311407787900672
Y 10.545953904362829 10.338854388821716 11.188510963108058
Y 12.704422701013403 8.252918075693415 12.00574858768442
Y 9.655934949054878 10.861586384911748 5.895397559842038
Y 8.822568588060518 11.88686373413585 9.0039257111491
Y 8.8296125896018 12.155974533286368 13.040198236891014
Y 11.855700741109542 12.541514510862445 7.7883929103905665
Y 11.30415528932843 13.535653269382559 10.984939829190402
Y 12.178653410714372 11.331889573877616 13.555931412541508
Y 13.612340897250576 11.209687926145262 10.367296902941787
Y 9.655526234214314 7.213838558188993 10.629983245328585
