14
Energy = -69.75649541 eV
Y 9.92616317471695 7.5069391987360605 7.400854759830357
Y 8.679482483767615 10.504145471227268 6.568174450337448
Y 11.912149196826626 10.294473448574857 7.30686887860438
Y 11.021321561825095 13.47547240844572 7.671202430947961
Y 11.184627657340457 8.710770427620604 10.22711603277983
Y 9.592067602311019 11.412812345788883 9.48827770415355
Y 7.724432399444899 8.667958574064542 9.58456390979789
Y 10.233499246595402 13.939142306852847 11.209593018394523
Y 12.72414088389212 11.90771786230801 10.213131924926804
Y 9.622721772303363 6.058147611927443 10.728617206081069
Y 11.648901772013332 7.5002525886727796 13.160432178659068
Y 7.421750132214679 11.466187543004985 11.790692177950618
Y 10.586653343853646 10.921531694445152 12.739433198715412
Y 8.545507497146108 8.457867242582466 12.734460853072848
