14
Energy = -70.5967661 eV
Y 9.19151582138373 9.666096477704846 9.563202899874515
Y 11.529980688633445 7.108964945548276 10.495135140574183
Y 6.120927298517883 9.012237947645003 10.586796656568485
Y 10.382176755812033 12.709498156541414 10.012919990420142
Y 12.188578873959589 9.651895609009978 8.362180649374531
Y 11.440076255027343 10.090809390626998 11.990170261954296
Y 6.813341216951343 9.398692922670868 7.233702145441147
Y 8.251877921714968 11.17219664151377 12.292982025720843
Y 8.848403885350125 7.845017284743636 12.339888898510408
Y 8.624557727124404 6.565175957595837 8.844349285385492
Y 7.042537422185565 12.095057763760494 9.259012451763448
Y 9.404435608525386 11.643627326368065 6.8835426102201565
Y 9.845682855033724 8.393539330827132 6.269100371444292
Y 11.886976240952336 6.218258988146336 7.438085355451102
