14
Energy = -69.44975783 eV
Y 7.687685410504052 14.352571358983777 11.975303764843652
Y 10.69650280133387 10.89200420139689 8.604003002161978
Y 8.701614140029353 11.755589571893022 13.636651620671524
Y 13.058767656191842 8.610900689266389 9.343263420968746
Y 10.605983864307804 12.99177993351204 11.208420031422275
Y 7.803741399694278 11.343548762210022 10.439889336389276
Y 13.691526540341657 11.884873142260966 10.101385198398544
Y 13.528385691438245 9.497806369397088 12.377630531135098
Y 15.545855930538455 11.906604440673883 12.974702517715032
Y 16.064057460031005 9.701859837277203 10.458360910044826
Y 10.38633158448642 9.536303868901628 11.548513066994582
Y 13.355706687099895 14.415647952278645 12.48782465576306
Y 10.3042765626773 14.65617768460852 14.093417694034304
Y 12.147691639876152 11.867920107529748 14.120677295693822
