15
Energy = -76.10924315 eV
Y 8.296291728904713 10.417118346072783 9.175373875772827
Y 10.119911604783672 10.603343629856429 6.57787273173198
Y 12.741781492156031 9.475463207276468 8.949973584536238
Y 11.443247259246391 7.258223337747732 11.406675729764878
Y 10.638859912004941 14.085601983501872 11.181974738235313
Y 10.28152632926524 9.140258821252624 14.007520011000906
Y 13.647403836927733 12.38499297154664 11.128047160273951
Y 10.911910594472221 10.620209417880703 11.177836683135057
Y 11.646841655102353 12.578947717547946 8.501295999648756
Y 8.255163467354315 8.223775144086707 11.485204077473957
Y 13.458844084317747 9.518368776240116 12.910834320860767
Y 8.223914211098739 11.840166113725516 12.18953568798921
Y 8.528164712024795 13.472262799889437 8.665535386980464
Y 9.883386845779087 7.765037337156073 8.46799397042917
Y 11.581445039311914 12.274923168968726 13.833018814916453
