15
Energy = -75.04668558 eV
Y 12.744198465586535 13.918209155083137 13.85698767578289
Y 13.442820214686254 11.004372340525473 13.048460004635675
Y 11.623054789112135 10.828000289886262 15.516521916968976
Y 11.383720056088077 14.787482062358736 10.98837292923111
Y 9.819788933740808 12.515258666172949 13.003786197135975
Y 14.097619123624748 12.990180022284461 10.60066238493062
Y 13.313509138889358 8.056215083997945 14.142677750417647
Y 13.519896614107687 8.932854139772012 10.679468901854
Y 10.564895935530345 9.076472385315116 12.772713433697998
Y 11.70742689967614 13.568732688728076 7.942514412684468
Y 8.743114081387219 13.400718234470087 9.521729279382713
Y 11.243925046873663 11.335996261927718 10.244659267232604
Y 8.125536111146236 10.324773230487784 10.62249563506478
Y 10.33986080800636 8.145509585901204 9.544000319955614
Y 9.431338004052076 10.82864174305389 7.553626540953597
