15
Energy = -75.85997521 eV
Y 12.023248417370048 13.576888979595614 7.532532884421143
Y 10.983695384615865 10.530285686463127 7.735720615564241
Y 7.505773902176747 10.490675723074133 8.756744606296369
Y 9.307553619881151 7.517496824835272 8.719486683827421
Y 14.117537288167878 10.91827095490171 8.740407163550918
Y 12.347127106046475 12.727974401384236 10.540455112820046
Y 12.561498604683171 8.052459320565205 9.29095251934699
Y 9.288031991705294 13.315745467695152 9.721930998750693
Y 9.970652064656706 10.105013449078852 10.718835396736107
Y 7.358982794118257 8.244475034504193 11.459674721842811
Y 12.819563811424532 9.878207276783161 12.131998790525563
Y 10.622931737838787 7.032889896374663 11.782710852254972
Y 7.331421276984381 11.54021811244795 12.053650691858216
Y 10.379209112652745 12.649557111841007 13.076587623240744
Y 9.493459323231217 9.530528196008683 13.84899777451673
