15
Energy = -74.64435618 eV
Y 11.260376752961706 11.114347335612138 14.36674767024417
Y 12.46918470520398 13.759530980204243 12.889959120865166
Y 9.263193808663074 13.034342829291548 12.256826632289007
Y 9.036832865459713 9.416791302270774 12.616967015090975
Y 12.220992599825866 8.313495948259034 12.560155880090075
Y 11.539304343946176 11.095320224353397 10.939967343853645
Y 11.408909768458587 14.353848345974763 9.858820449447066
Y 9.829585139413107 6.469141800100693 7.5539224545459716
Y 10.14237630780247 9.65624423297757 6.493677089502909
Y 9.159735937245136 12.21833231810871 8.705661491463907
Y 8.64720643015242 8.942355125405223 9.288545535150593
Y 9.991216801028939 6.469579677998628 10.932434238534256
Y 11.99106613303727 8.36283625393056 8.989645063198243
Y 12.378269543543983 11.720316966437315 7.822106232291546
Y 6.8436088469112475 11.255376642728923 10.906423767086414
