15
Energy = -75.15962905 eV
Y 15.214021435897752 12.0741369098463 12.01876994911263
Y 13.572716991190857 12.067023465957455 14.980369306574918
Y 13.600228611255778 9.323337895565409 13.197114788508113
Y 13.452184279943712 14.856901673863586 12.801380189721867
Y 12.97426817834418 10.214130552966063 9.762513724407345
Y 10.621771709404195 10.07834770255503 14.49123199718599
Y 13.404356857986704 13.790277935780214 9.707557470031302
Y 11.965453420780984 12.066610545212207 12.190851245316908
Y 10.419998127646531 14.703721726561927 10.881003790576669
Y 10.750806180373091 8.438302359560177 11.636711349448461
Y 10.579049494828043 12.337329475788081 8.591661055222469
Y 9.719543942406622 9.2128065990219 8.664282043849207
Y 9.006662787097584 11.302837427903405 11.3780412443692
Y 7.311797787630021 8.6277097547265 10.816335747346873
Y 7.193404279143925 11.30483352053653 8.721190327361517
