15
Energy = -74.34820004 eV
Y 14.770474817073138 8.818284200915558 9.823818039101482
Y 15.968959742308359 11.664549271343594 11.05287945255903
Y 15.353497036399 12.21684574235649 14.384858824061267
Y 13.32801862761359 10.111637771366505 12.494817253328048
Y 11.550243619437651 8.468121310170302 10.083665228411054
Y 13.948518471385464 15.048874375638333 15.212009710810685
Y 12.849194962077572 11.531223745865278 9.571455453160178
Y 9.88719406515287 10.50146189645198 12.365742789427214
Y 9.424497148706317 10.92121758958404 9.072613656934477
Y 11.970567280161442 12.525357547386747 14.495801955117043
Y 13.72010428118856 13.94983163457894 12.058562367950724
Y 11.174568786371795 15.628565883308706 13.599224151844723
Y 10.440337664277232 13.462018031613772 11.039539292946449
Y 7.3636371370785305 12.366475935143956 11.138741118311483
Y 8.749199521382588 13.31330377273805 13.975128170267983
