15
Energy = -76.03629917 eV
Y 9.838667598219336 15.0316067458083 11.421342896453732
Y 10.343758306089862 12.63976036793077 14.275034160654009
Y 8.738563958645768 9.668796112759324 9.485009237280133
Y 8.78626920317127 9.412607214587766 13.157645385404942
Y 12.25286614654973 14.082583562964839 9.397264423898962
Y 14.902821770204419 12.479132336899365 10.732146870232356
Y 12.85365649944614 14.447708945341585 12.643595121292186
Y 11.891797137103328 11.518587927482287 11.582646789835477
Y 11.933179132437889 9.526126113126399 14.161589481500041
Y 8.710570653519598 12.088240545991392 11.493388834276528
Y 11.98013013449985 10.587878907744125 8.621401234707308
Y 11.156908792874127 8.233587741873984 11.20264767152238
Y 14.312501028599744 11.809180036885984 13.99069681902958
Y 9.333903495466158 12.841878520759638 8.50399284152005
Y 14.309950704729197 9.318937635143943 11.706569509051507
