15
Energy = -74.64562261 eV
Y 8.925953325871692 9.58466929542643 11.734168420725416
Y 12.305115793866781 10.236047106634212 12.38200235852389
Y 7.280291008163139 6.526942501259106 12.025973520918447
Y 10.869686311603916 6.9892577190712535 11.794862382573958
Y 6.003722247225882 8.887577836119478 10.081019645400378
Y 8.688564023901906 7.19027817961942 9.178337778228464
Y 11.558232412596583 9.277684584698367 9.377458641764397
Y 8.232454549334777 10.826061859796662 8.427069671482828
Y 13.658556176776735 11.789628129040219 9.667102168751383
Y 10.565219507179734 12.261248111459297 10.415670040744526
Y 11.147004488634533 11.859246792971724 7.072218892004318
Y 8.221872179961448 11.160133748550109 5.189422714071197
Y 6.5504802352688865 8.44723140830219 6.724701921038302
Y 9.922259171669875 8.754509079483084 6.478996589698883
Y 5.699093186914802 5.837988647568442 9.0794998730439
