5
Energy = -19.599548 eV
Y 11.0682075916787 10.276354972002077 9.709714257357637
Y 8.373182663128818 8.583758242296595 9.375452570130522
Y 11.358967376230627 12.555753947105616 12.098009601330107
Y 8.651461237404558 10.847119217165314 11.726563498796652
Y 10.792220181442488 7.98105267131534 7.334299122270272
