5
Energy = -21.55084677 eV
Y 11.00326535817157 10.364606518530703 10.985063149693348
Y 8.003536061402654 10.08417257750851 10.0376209067665
Y 9.947572417708843 12.04835990728274 8.32451745718189
Y 9.586802241662227 7.457681470585879 11.312664433805958
Y 10.324757732591126 8.757464345533235 8.356488946076055
