5
Energy = -21.52075184 eV
Y 8.443863147749397 9.99765766924389 9.79611981848642
Y 13.119840043979826 11.607613243640875 11.8576602330002
Y 9.925538444349753 12.441116704257944 11.477056734389375
Y 11.51294924095503 10.845565836008413 9.128484423658627
Y 10.81154600920566 9.330786282722956 11.911354836196573
