5
Energy = -16.55516229 eV
Y 16.405535291899653 12.551384000156412 14.814209562974094
Y 18.83033848266855 11.098522220399715 15.479523905647588
Y 9.276094887152968 17.683067633533273 11.694930872348127
Y 11.295306546991506 15.97992506851167 12.909824103467546
Y 13.91355138656066 14.12558407178416 14.013693349774307
