5
Energy = -21.4028018 eV
Y 6.846509332831093 8.595091295260547 6.180959538019383
Y 8.162932684868839 5.586955287408084 5.820420284313736
Y 6.449774253558689 6.393858461398396 8.398483441854342
Y 9.383026169567234 7.723761358663603 8.015202166758195
Y 6.919791840068359 9.463463820597731 9.345979376397445
