5
Energy = -21.55439154 eV
Y 9.644797646723845 8.624771694750342 12.31213414811507
Y 9.605448612078797 8.31829331739254 9.083747397769185
Y 8.469974035209903 10.999218571657387 10.320344370144173
Y 11.57534635753252 10.457492642087537 10.30925293087507
Y 10.1225354801692 11.175294960840302 7.478159307091069
