5
Energy = -18.34194411 eV
Y 11.228872962306696 13.86831850450553 14.740924123367702
Y 15.05211611845341 13.562041818361415 11.807518219723331
Y 13.228941532401107 12.029441317067016 14.240497692490475
Y 11.439379072075544 12.856107400268465 11.674839911512755
Y 11.083795753599011 10.218033788329638 10.092450116189443
