5
Energy = -21.55391259 eV
Y 10.494459501181245 10.3989263921323 12.82146615776192
Y 9.66756461972686 9.774975891512492 7.418131173480249
Y 11.168718578480744 8.616712988347146 10.105593951230839
Y 8.290430335036232 9.902151612541934 10.367718504629455
Y 10.803003463033901 11.744884527786605 9.86551833359438
