5
Energy = -16.60934641 eV
Y 13.176831640683359 12.996242716092514 18.683561788046955
Y 15.52448919160004 12.636477379691641 6.948354705175282
Y 13.43513254920097 15.738040079464316 17.089850714845262
Y 13.25702627388861 13.139655640036162 5.240424024439189
Y 11.827178910821972 13.313579211503347 15.81296418162454
