55
Energy = -301.45385549 eV
Y 18.267107784815114 19.581641161593723 12.255228330474935
Y 21.642505609079002 19.98947347910562 13.795336464281036
Y 15.376054819925955 20.986922698943623 13.771505756189741
Y 19.183033830487215 18.523284089098908 15.10678292749569
Y 13.369356087279575 18.653723727266843 15.633662744709937
Y 18.79952104557029 21.926821671435274 14.604411129200578
Y 16.2059646548591 17.544830329869058 14.088537791621983
Y 21.914161251047886 16.539942938994816 15.316329179385122
Y 22.325246185549616 22.408588419156956 16.122807763260525
Y 18.739746857269136 15.470593085048275 16.277757134369164
Y 0.3944366456737264 17.47538045489529 15.753084142032359
Y 21.72926447094369 23.73980573647417 19.195658304178483
Y 19.559906901584988 24.680195769633123 16.719274185444725
Y -2.196765967511909 19.115654604098513 16.156926862930515
Y 16.307191158881658 19.831829846077007 16.47404653672994
Y 24.161205070457907 16.149620989268826 17.76865256717905
Y 15.679269824045353 16.479567714002137 17.38739631826382
Y 13.411173520736641 21.699228719515148 17.092397568925524
Y 19.260123245983362 21.733756149338593 17.892997208119063
Y 18.48829846832419 18.415609897942804 18.433966732905496
Y 14.297645458803553 15.08063311769538 20.508238257664367
Y 21.55142873599928 19.283252676339796 17.336946050200062
Y 15.165848636953127 23.469945118885235 20.495829387509477
Y 16.43415846150491 23.283593482737164 17.12516632613592
Y 21.328691593469596 13.473594350144998 18.115691926322956
Y 0.4208384943254493 20.78996548558082 16.471539657223012
Y 20.910493282639358 16.311633981422823 18.808993954326578
Y 10.763991427170927 19.668005271353234 18.10497160156278
Y 18.444084428995524 24.305185730287874 20.007294854005497
Y 21.15792153992011 20.534846321557705 20.479646400874937
Y 15.641011492276 20.517493041219723 19.49445247567702
Y -0.17753080884594724 18.55031997888256 18.91902264913109
Y 16.502710246435814 17.351321906699237 20.626704084807702
Y 13.393869017708107 18.247838699787575 19.179152409767052
Y 23.269505621923525 18.221428322861282 20.25655964372205
Y 17.94432987414963 14.603161475345962 19.401608718928408
Y 19.623846576913273 17.661644775219887 21.71962717331372
Y 24.149836911442197 21.19939836544345 18.826000279985458
Y 23.351812476971194 14.950873293185072 20.857117115142433
Y 11.158250897707973 18.72215011528297 21.435725134221126
Y 20.684772306063657 23.241042132071076 22.33762060809358
Y 12.31082396832022 21.51737772638951 20.214478102543325
Y 18.194597015071665 21.085281424660554 21.235076559599964
Y -1.1039445582151965 17.153660692308318 22.479751746127043
Y 14.317459943381639 20.86789758195011 22.62342033507594
Y 17.088064803481227 15.216738015302802 22.910517724543627
Y 17.23457378908421 22.897473788854743 23.45019724636749
Y 20.290933866183767 14.331447039086964 21.920045375824863
Y 20.254820329211945 20.316049327260153 23.88439158143597
Y 17.018252696684943 19.026430270830105 23.655478989158503
Y 23.862543628859303 20.694901225982584 22.366878536096362
Y 14.155934916666293 17.559179126542112 22.679249601056455
Y 19.75911582107386 16.476121378980125 24.76445399772053
Y 22.504073019664823 17.819232006235733 23.503157988593387
Y 22.891767414975686 14.776675214216581 24.1104978019068
