55
Energy = -304.40407186 eV
Y 14.398885732133367 7.560491883035415 7.455116124492392
Y 16.19042263178057 13.130715139078788 14.009983206117827
Y 10.119800839530043 10.23957436334433 14.574712172423933
Y 6.19180784942776 13.028478008862031 14.339977673131726
Y 9.296637854950303 9.179446850325734 17.629300602503207
Y 14.858829464018292 11.017770406070499 6.420394911990026
Y 16.54116825102061 9.869040640350201 12.763696278005401
Y 11.852528461431815 11.476271117049517 17.29007490463737
Y 11.209666895317776 14.713847711915694 16.316664139378645
Y 9.464937862097331 9.122423667475614 7.991463999375009
Y 13.920529591339974 16.29031873292367 8.648785555652504
Y 10.959100873306603 16.97782462076376 13.913101872521551
Y 11.453020238709845 15.47384775819053 6.352255784136047
Y 9.403164801874132 4.823324435513954 12.228107292320262
Y 6.664035678677591 8.629507727200279 9.74831712365106
Y 14.900908024701785 10.452928617484655 15.797999689465996
Y 6.900064533740932 13.73338317537222 11.158571109097315
Y 9.957447842305593 8.20658465265949 11.542583072549983
Y 12.629163947311522 12.987438430477084 8.20877567244016
Y 11.255470364737805 6.598349402181013 7.03507495533947
Y 16.001852580743623 13.44264056226277 8.472530514635041
Y 6.990415303030641 7.159509049660695 12.659932453303295
Y 14.438830859885382 13.730544495273547 16.904559771761093
Y 14.021372399213307 15.824178864970833 14.284702176266007
Y 8.629849174335009 16.51919935407366 11.716680175959695
Y 6.917503030345861 9.570133628395155 15.359431946926021
Y 12.721804594867123 9.396145711585762 9.273226928276708
Y 12.088056776221158 5.824736976593698 10.01050337094458
Y 9.418032074625144 14.496244498173184 8.98224758414879
Y 7.519787848639492 11.65162945574006 8.711126056638266
Y 9.899552931874256 12.170024958363378 6.410050633210078
Y 13.123735798476526 9.41624918675898 12.972846985210762
Y 8.563660840047591 12.447385218415677 16.667259139360812
Y 8.68425333279353 6.011533239580801 9.245655913981437
Y 5.444256833143165 16.13011238827019 13.00920946049213
Y 9.311331658284281 6.998235656283398 14.986172871094238
Y 12.814407423637999 12.661448078372807 14.227327329004698
Y 14.939108555625875 7.297678360455689 11.048270815297817
Y 17.816687545357226 12.542163874683885 11.05132797343207
Y 12.335120455686923 8.173134149202632 16.166123695274894
Y 14.439779865172056 12.144943282140732 11.165946133894225
Y 15.21793019784067 7.254455531293005 14.485388135061836
Y 12.112546537698181 14.918021787187195 11.330818931695182
Y 10.923707866378415 17.476544822345137 9.249251750009787
Y 13.248810610227515 17.943212684454302 11.582388474154628
Y 7.9663968069936395 15.79165868299561 15.16260823994599
Y 9.496131153478348 13.521636584586329 13.444448838642598
Y 12.279790663232014 6.218140751301329 13.302393071099079
Y 16.252927199650337 9.972924089596496 9.313679658043522
Y 12.586091780970914 12.702509183088505 4.653969941211584
Y 7.514866847429809 10.644868420174914 12.201767145266038
Y 14.758970173156763 14.790688576053974 5.7057312692771545
Y 12.051253707275515 9.505740271163747 5.643932376215643
Y 10.436465297916778 11.676983790660417 10.692621849205429
Y 15.729526726181279 15.325583684416221 11.343319440679965
