55
Energy = -301.09282418 eV
Y 14.404753321459985 14.796266032066637 14.549873180273776
Y 8.407346330338646 9.328362284523891 12.895984539360168
Y 13.701234905568509 8.535896239591178 17.28638810136155
Y 8.974564551049985 14.479969192004381 15.842497341403227
Y 14.030367456812238 12.859276076936025 11.35621380442308
Y 14.808891700267568 12.812426128872811 17.52777813047487
Y 14.45154813632818 18.295968860565733 14.098138433182354
Y 14.245976468957062 16.406703433847063 11.354047627701359
Y 16.97830035746096 17.980959182901334 16.463475972728705
Y 14.489115989034865 10.796668586224351 14.662934752177504
Y 14.193663182264565 9.343389355568146 11.347423693125442
Y 12.01737662895823 14.549363006897018 17.09624045680509
Y 8.902453053166571 11.271877334521728 15.846724507390851
Y 16.938644099224565 14.48899487244284 10.43078319394021
Y 10.123601621370188 12.886525857142662 19.09889056371496
Y 14.317722990076735 7.394693177993605 14.037279151384292
Y 16.921657216668496 11.212876416422192 10.412737725286169
Y 17.604889596058666 11.163908396964567 16.429371057018844
Y 11.48692551281252 12.825037343295058 14.176125207097321
Y 7.942168050149638 14.632140614422932 9.783010784535671
Y 16.785590181348166 7.902798429916687 16.332218416054253
Y 11.4221817436417 16.56241939801604 14.621911171399603
Y 7.904331463855413 11.24260908516937 9.735289772026999
Y 13.93265512055663 17.104970633740436 17.23176199766768
Y 11.347068946396732 9.158065875568223 14.560760712124065
Y 10.994123498544669 12.925165889078375 8.576335341738112
Y 17.430928447159406 14.686855524101798 16.366965880048223
Y 17.054428002505585 12.85057392863175 13.432987984774982
Y 17.160441076637404 12.817266424398603 7.406597176343724
Y 8.715250635238796 12.938069461609265 6.325516660292375
Y 17.13450659597694 16.382700574401497 13.40316559504473
Y 11.972416104073055 16.959100920123404 8.712480493212528
Y 9.259320513355998 16.016862181445376 7.1806781085984595
Y 17.103985370565315 9.270654285682012 13.3006959084643
Y 8.991595514416504 17.77031407046956 9.900194139686352
Y 9.262838565129554 9.855296754713407 7.159723717707951
Y 10.989616353916473 15.038035602846572 11.397736811662316
Y 11.929211790126816 8.80449341707759 8.661811291950173
Y 11.8065791132215 14.619808487344523 5.754722064620884
Y 11.4774573777418 18.34549321295968 11.928118241319147
Y 8.900650843198955 8.06558932291775 9.83190643353288
Y 11.779118022654753 11.24686105798911 5.706382283740329
Y 10.942493999218069 10.733304762631409 11.332042912005713
Y 14.331715697401453 14.555314324851444 8.204354518107735
Y 14.670467555199558 12.904916921151747 5.28122379712492
Y 11.380106475282329 7.39868186893864 11.840362031124517
Y 14.269687255110147 11.226817663131058 8.205874055430366
Y 16.607819938525974 12.830327553964379 20.003935765498497
Y 8.394969418815078 12.892269060614186 12.777784561930321
Y 11.915391506926085 11.131843167590969 17.099400279264966
Y 16.237457385982765 15.95855960089833 19.143284964655326
Y 8.476251644943545 16.475403515086967 12.94209575184978
Y 13.378101734657463 14.555875296068654 20.084192294419257
Y 16.08568964488223 9.800666329804516 19.010263921733113
Y 13.250540704230247 11.146902413328004 20.087496130924045
