55
Energy = -304.45063747 eV
Y 14.737206831460112 7.843254457176484 7.784834479362143
Y 16.287357642951825 13.551950293560509 14.281881145248294
Y 10.373426248570622 10.524346988635186 14.849741748953011
Y 6.438234751270573 13.343475760424953 14.76967663778999
Y 9.612124777606994 9.302947641715946 17.90392956039795
Y 15.17643699380192 11.29217760421635 6.717917990923468
Y 16.77722937992797 10.24589663090873 13.07913479007567
Y 12.179199900664196 11.676900483583182 17.62802397692294
Y 11.417757854779682 14.932747187030847 16.85660475806205
Y 9.754099240431753 9.367036604401893 8.231941186159181
Y 14.23785228183232 16.45913735969625 8.756440925701591
Y 10.55359031063 17.197033373628848 14.50621028432557
Y 11.839704759445796 15.5442362692348 6.223577825643714
Y 9.650489060955072 5.178592252644371 12.46071021321933
Y 6.969067272781354 8.888080305332647 9.998152386167002
Y 15.157423728166393 10.812104894995766 16.074058556550753
Y 7.390063578482941 14.256472448850872 11.338884625995261
Y 10.208395758222231 8.523234734360237 11.780723391798269
Y 12.94592509846189 13.24074502161993 8.345269856091495
Y 11.611051753014907 6.857820031256896 7.352944780870364
Y 16.342603920847157 13.788503446191495 8.797223065600742
Y 7.2796152643881715 7.536327036187249 12.93157255447508
Y 14.643134134738895 14.086256381970125 17.15668510509118
Y 13.830527711689445 16.14133113517653 14.522144046023213
Y 9.457904646544897 17.119608715484972 11.431001944110218
Y 7.211618141730401 9.825287004960698 15.636524785125232
Y 12.974521376998146 9.68832463109717 9.564161096031564
Y 12.34806138307491 6.112580174266853 10.354421740380692
Y 9.746216410603724 14.82497108681734 8.891416883600193
Y 7.819390061171722 11.957553729024164 9.020564130683958
Y 10.204881320788726 12.30948136416966 6.5913491713547145
Y 13.39106555437039 9.686412764960519 13.266645136882037
Y 8.832461895309047 12.500129497199895 17.104922363666514
Y 8.991005490552677 6.270210237657541 9.465229979578314
Y 7.182965766267527 16.540888484427164 13.76295830952901
Y 9.640001380439323 7.257346747228486 15.195280499435063
Y 12.936440098888264 12.952796751919442 14.520331732247106
Y 15.21540356861618 7.6084157484751955 11.379349573453636
Y 18.02433432115951 12.92155101102623 11.428365456899982
Y 12.641658543644398 8.425717896727052 16.421888733698562
Y 14.643872373914332 12.435969031766025 11.41784561426412
Y 15.551604156544537 7.578705142532385 14.769584261754988
Y 12.287180038201344 15.06501678618635 11.445106474516216
Y 11.323313229055083 17.70471596582646 8.786953009469022
Y 12.846519647973441 18.12604920529787 11.755590827734219
Y 8.093087663789825 15.713969248012724 16.641087517017716
Y 9.589067678895104 14.00162467127444 13.955441842363195
Y 12.611120034565383 6.447463081491543 13.624242036197279
Y 16.529588616908654 10.312325147615763 9.627589953801658
Y 12.930210234009186 12.738753825992992 4.73746916809541
Y 7.723453977670348 11.040209617628015 12.478756861226888
Y 15.094635977943872 14.849541883946447 5.872391428463857
Y 12.394991668403327 9.664429123875436 5.894564767942662
Y 10.634142737986163 12.080144736644788 10.985798289467326
Y 15.759732929356463 15.692167524162498 11.66785170005794
