55
Energy = -301.15749535 eV
Y 13.655790124679749 14.278499163399765 13.349854898934357
Y 8.11954999306869 8.686378452501083 11.89117469672384
Y 13.747244103903853 9.152163196053866 16.028703108481928
Y 8.107817399195163 13.628484367557542 15.262431932359362
Y 13.85859969953376 12.630238596479845 10.148734900321976
Y 13.968044147004766 12.504064609145003 16.15749372295062
Y 13.608476160800707 17.584863677556363 13.460774099515486
Y 13.83674648532082 16.099899124053312 10.409317484659692
Y 16.357661776194654 17.719177913834837 15.680991280125518
Y 13.636889821986475 10.394154848006963 12.880312252143085
Y 13.948849880554297 7.887480776870537 10.52181817693766
Y 10.921261714992966 13.617202070531608 17.18871486238418
Y 8.012460816635391 10.350024493509936 15.09884284350691
Y 16.796071356976817 14.000558674383825 9.94465252073688
Y 8.476444071072546 11.762815556922918 18.227322921234617
Y 13.605752617822665 6.79841842144068 13.647879427580593
Y 16.245752432681467 10.412071569096362 10.265851687281774
Y 16.90149230532443 10.460431287488976 16.17289886070226
Y 10.90286083994608 12.001328209184338 14.235886471309492
Y 7.958372871865717 14.041020569583097 9.140199858440466
Y 16.25081654898694 7.096413954828673 16.305373917844282
Y 10.729086904680283 15.703562007199729 14.375900694268552
Y 8.075580185960304 10.403014385387001 8.932291698718846
Y 13.638160847108026 16.002329415967143 16.458076018561563
Y 10.77787177066494 8.593022339444435 13.835420437409203
Y 11.047461169912799 12.453483149984583 7.932897150489248
Y 16.72907756518003 14.430382161612066 15.805367906844484
Y 16.47980234254171 12.30414709068197 13.07505689279597
Y 16.101180180449358 12.066286278912528 7.402070308570102
Y 8.119020710847153 12.315030642279229 6.078370863999059
Y 16.450440998556065 15.931877933879804 12.736686623840816
Y 10.900471167585419 16.01004712829168 8.220065610480715
Y 8.232275868467152 15.729160416048819 6.333565580207964
Y 16.364799166486957 8.691686237598075 13.283943245463124
Y 8.037447726172617 17.323223016202718 9.245826960062963
Y 7.908886912732671 8.795577363475553 6.088524784511361
Y 10.916024048822015 14.07892178712174 11.202654032866127
Y 10.674195263665112 8.212510909392316 7.835811597646761
Y 10.884154710341651 14.017229709410989 5.091204049010447
Y 10.748515974186512 17.41464521130318 11.410303971525973
Y 7.872062190852403 7.065771840668416 8.92961066751663
Y 10.764989355618354 10.480776503970603 5.269777516397426
Y 11.027048739687293 10.236041062823238 10.783089538463173
Y 13.959344699008478 14.606818129884727 7.29970350435663
Y 13.606549218251393 12.086223561865426 5.292231942317356
Y 10.759815889643823 6.8216801772676146 10.994554724530968
Y 13.568795766628835 10.000377593635404 7.929566080654551
Y 15.963656262697212 12.52756724711045 18.802315383053553
Y 8.134889377559471 12.099362156335973 12.123570308536134
Y 10.654920293792392 9.809939462669288 16.932434565689633
Y 16.22240627704627 16.071955438834035 18.601450985415788
Y 8.073700106690564 15.562304918067086 12.211618631124352
Y 13.431812773116297 14.424890998774904 19.39797212941879
Y 15.38453237688888 9.135920697388602 18.836678176500513
Y 12.634624275126425 11.279099779599457 19.022713780094133
