55
Energy = -304.51341261 eV
Y 14.880890221549562 7.946643178778552 7.937898768390679
Y 16.436751506566594 13.67624385476637 14.44501718833315
Y 10.53260581378059 10.674629996476865 15.030574371294794
Y 6.5813755705062995 13.480660694478935 14.92076562160925
Y 9.742979332870904 9.420139124706933 18.058633591876077
Y 15.391966664543641 11.407517541419665 6.894736519022594
Y 16.928805365275938 10.375093779494906 13.220945187486537
Y 12.2892824005118 11.809461670863778 17.800006891570593
Y 11.542664453122594 15.055585525366276 17.00865075630143
Y 9.938247429400542 9.609035555943874 8.38387713492661
Y 14.428812625542248 16.626897879992374 8.932705182470114
Y 10.714440909984448 17.35391963771174 14.676315857362367
Y 12.10763839278859 15.725778345218165 6.4210869840200235
Y 9.787818123695706 5.333133363031676 12.615636967899428
Y 7.110046968280333 9.182957898598543 10.110631934609625
Y 15.292891158627233 10.941245004311563 16.220386039598875
Y 7.541877155456722 14.408668371965602 11.484143080817308
Y 10.370245515000965 8.704545683308108 11.947529333502382
Y 13.061569701231598 13.33966360216503 8.547095252316005
Y 11.715130109981223 7.030654277099027 7.520498825505658
Y 16.441216501224353 13.904427497696405 8.964958372780435
Y 7.415573595626513 7.7045018400806695 13.007890358288897
Y 14.782123880450214 14.243295652473437 17.298767470477344
Y 13.98998473444748 16.270475665289485 14.669818505770643
Y 9.624719520481925 17.247175497168463 11.587254915455489
Y 7.353893775077448 9.971919094165639 15.781176298759044
Y 13.162506538320473 9.83305678992818 9.72402805971054
Y 12.490386489954348 6.292146655152665 10.499965215453141
Y 9.917862791978095 14.984494721924346 9.035958880614835
Y 8.010776860229798 12.182097260781259 9.124430593019508
Y 10.369150691105208 12.530216629000414 6.663081281760963
Y 13.535374545191015 9.838107703924061 13.422095623944037
Y 8.96000099456814 12.63906591512168 17.269856071970107
Y 9.091875638805844 6.504710638234856 9.658953894305897
Y 7.351144027734561 16.684118300314633 13.929815913450218
Y 9.759070193884659 7.416352076547091 15.344025446961107
Y 13.074803634507104 13.09403547636502 14.677800051354925
Y 15.376930446203993 7.745097973038046 11.548594105907572
Y 18.176987551743814 13.108819585638445 11.582074022457912
Y 12.790255919558923 8.563320649252114 16.59421266228504
Y 14.787481968619467 12.581094019714895 11.588194206468895
Y 15.680957200238865 7.723772170423263 14.934523608618537
Y 12.451665747293703 15.228734086359475 11.572200629297004
Y 11.51911661016205 17.877739004402784 8.97147714212489
Y 13.018057111596454 18.300016973335385 11.927044174047865
Y 8.231686621831434 15.866661953844083 16.804380612708567
Y 9.732807098834375 14.164175945122004 14.120245339963155
Y 12.757174143888971 6.615317584750411 13.785447722606799
Y 16.694744277915476 10.44385909044622 9.80383384359134
Y 13.171253007037697 12.908141151043502 4.980153101885901
Y 7.920738278947963 11.208148945211704 12.628421845518087
Y 15.390356697646236 15.057696850277862 6.021672504639591
Y 12.582125661733619 9.832580265600035 6.056767527069856
Y 10.803705124049696 12.250114617335417 11.15838401430476
Y 15.926336802673882 15.820920836618587 11.824244595795124
