6
Energy = -24.88630142 eV
Y 8.896997546682659 9.99068587604538 11.963507483272396
Y 12.0817968874906 10.759063728965458 10.987226619596054
Y 9.25812543332455 11.8686975814685 9.410244377010399
Y 13.429183855214255 12.894012546293526 12.89553973892407
Y 10.120234049312572 12.95684002953895 12.319722266567183
Y 15.35141758480374 10.69267813291111 11.593526396343607
