6
Energy = -24.13460937 eV
Y 10.90903305850042 15.715104660832452 10.228976403464074
Y 12.249354275619586 7.685104263461026 13.349220529623652
Y 13.609952815134372 10.526993176177063 13.449886530282082
Y 11.065432980235734 10.184898756778514 11.458599801253154
Y 12.375179503341995 13.11687547058647 11.745249071633275
Y 9.809298896306894 12.78927520130319 9.786319192882619
