6
Energy = -26.63465759 eV
Y 8.745777225511691 8.186447811919649 7.546614777762843
Y 9.076006418921597 11.422028893908031 7.137084092391052
Y 6.789968275294723 7.130310600603236 10.033083540605912
Y 9.89825504719713 7.34898902867276 10.50107543158053
Y 8.24599725341718 10.126015751097984 10.043592119028345
Y 11.325151905694455 9.867364039834985 8.819706164667716
