6
Energy = -26.66169509 eV
Y 7.41976931302245 8.928570282357164 11.398692202238882
Y 10.58192305090366 8.5657335783076 10.676636174651446
Y 8.887187452105158 10.483496726283459 8.929009921311042
Y 11.498863726855706 9.055923272681328 7.581680794520608
Y 11.949663486211948 11.429404398151997 9.741445366927287
Y 9.461622674340841 11.349157602113001 12.074888140003852
