6
Energy = -26.63508059 eV
Y 14.731344097377578 -1.3572846779547083 12.110449549139254
Y 12.390723743865408 14.220286642100447 14.08812160659886
Y 14.265196463540244 12.230527654821442 12.399678088270493
Y 11.004875279567015 11.614977567196927 12.589077782054497
Y 12.855138771082974 11.167422243655551 15.166322153675424
Y 12.179832674252838 14.204263382133558 10.814928776940965
