6
Energy = -26.6609652 eV
Y 12.067228513641803 8.841664212971347 11.711255046380206
Y 9.39445869158318 10.761158601655964 11.330208069117605
Y 9.854419444784321 13.031086035258625 9.031426806517619
Y 12.204095456697601 12.07443478720602 11.077251412101324
Y 11.171451210306646 10.08609777118705 8.636931323456551
Y 11.24119567596368 10.987335719954649 14.004604548965933
