7
Energy = -32.45916449 eV
Y 11.392956805453133 11.31037290548052 7.829649788303204
Y 8.632442118240903 12.476240581133743 9.378204943416227
Y 11.083730982578365 11.110481387154085 11.078443003514943
Y 8.015546143798328 10.496449002330483 12.034057851478929
Y 12.455119317671366 8.587503555767642 9.509278264794023
Y 9.307131161197717 9.316220050293172 9.301679988037991
Y 10.363219394758737 8.082104267954552 12.103308420635306
