7
Energy = -31.58569557 eV
Y 14.161200865320769 11.694788821225155 10.148695281690252
Y 12.379467798772524 12.135663157003936 12.8431391137847
Y 10.877628938927673 12.045462608088258 9.973567077383953
Y 9.545916789755408 9.110037441478797 9.453225285862336
Y 12.359079316641434 9.303796658686675 11.255145127633757
Y 7.5536903349425275 11.590228833284035 10.210032777935739
Y 9.489600151424034 10.349178242351632 12.448617024545879
