7
Energy = -29.1173323 eV
Y 12.853452715299786 11.204113250982385 9.302594619610568
Y 10.667020564109228 13.559400937320413 9.802447915181865
Y 14.304885445766713 9.77122951944462 11.836246435667164
Y 12.185825491206735 12.189234899767794 12.330995859373493
Y 13.599182234665973 10.735647244411092 14.86584484988813
Y 10.032269886878394 14.576578455488828 12.824306125987903
Y 11.516156763392294 13.186803444031343 15.359167922017608
