7
Energy = -29.38328014 eV
Y 10.330449266708154 7.750802326554439 11.34702444758323
Y 8.6945013 10.58454926515673 11.347052911360757
Y 7.058553333291848 7.750802326554439 11.34702444758323
Y 7.058553333291848 9.638200273445563 6.041978152416773
Y 8.6945013 8.6945013 8.6945013
Y 10.330449266708154 9.638200273445563 6.041978152416773
Y 8.6945013 6.804453334843274 6.041949688639241
