7
Energy = -31.73289208 eV
Y 13.881957040809569 12.428216468206283 11.433599765420563
Y 11.187045228799136 11.443950008855714 13.00764797489274
Y 11.950512879644817 9.948804590008162 10.252796501739617
Y 10.255374238462492 8.348922836587002 12.67061634012827
Y 11.003553383758803 13.030007266785391 10.046186805627302
Y 9.979320839598739 10.97294100918606 7.736126692775592
Y 8.826014927111254 10.5747610683369 10.769244788417891
