7
Energy = -32.45874799 eV
Y 8.335755679728473 10.29238258694923 8.481123552335058
Y 7.210230713202833 7.381741637427717 7.577170919771476
Y 6.775679019047637 8.51867121106682 10.711244247339469
Y 9.731999796304935 7.775916245315405 9.587622649503876
Y 11.557740641133831 10.374104132282106 8.898092408017268
Y 10.165603580249304 8.528480811975529 6.456157783224866
Y 9.462240070333108 10.367952874983189 11.527837939808112
