7
Energy = -31.0609868 eV
Y 11.381780470567836 12.01068008938821 7.411763394493047
Y 10.94670361227547 12.786363428908713 10.552397645215448
Y 8.588416836208296 11.192123286871604 8.893383883723237
Y 11.255554670911328 9.633507830090695 9.85756246963096
Y 10.604514831365385 10.604208066193195 12.863205695776726
Y 8.371085631672628 8.926296707474187 11.138878215428093
Y 10.950539412844494 7.399107678121683 12.400431902870961
