7
Energy = -31.58829324 eV
Y 12.72170868396269 11.956815288506574 11.627390630355833
Y 12.279886352283338 10.011551102626152 14.163458552226864
Y 9.86338830389622 11.881440497453255 13.164261301472756
Y 12.244096301122955 10.455384695845437 8.581523052517907
Y 9.952099654943906 12.386479696413511 9.861742023137817
Y 10.709003031426203 9.392537757650611 11.237099533779634
Y 9.088780164008064 9.679407045167073 8.34929501084198
