7
Energy = -30.07546573 eV
Y 10.6106159860422 12.201631463543084 8.383855769838318
Y 8.952246460616784 12.2090789835882 11.2453670852442
Y 12.030189535183148 13.551003992705265 11.069004225752735
Y 13.21067422530095 10.68699389750315 9.769416716617915
Y 11.544802486026988 10.671616039104675 12.648580273420015
Y 10.13490721226695 9.334367241196034 9.944655181062133
Y 12.485637648301672 10.092476091588185 15.624227227745404
