8
Energy = -37.68339307 eV
Y 10.050140464954994 11.0616127238369 8.597240131749995
Y 10.653261639914128 7.748551468115517 8.92100727164704
Y 5.354961867953028 7.510594028812795 8.978161488695186
Y 7.127313352174981 10.050482235993124 7.22709641255679
Y 8.018861411450018 6.962161490492258 7.255440522294423
Y 8.002636411982436 5.7807941155041185 10.2500106651668
Y 7.959015981141839 8.998667202931104 10.14848253467955
Y 10.105604595281221 9.158932734314064 5.894356698062508
