8
Energy = -36.43047789 eV
Y 8.68895034805357 12.183661552338712 13.130691270550404
Y 10.963393342950269 11.32532709381532 8.111503937133834
Y 9.706568977002046 9.232831024631949 12.871154102924024
Y 11.046896626572927 8.690778751894952 9.826120138160782
Y 11.411805327495085 11.712258535968617 11.411160478554299
Y 8.37969003205377 10.80299665480379 10.190727066417777
Y 8.669217659741772 8.948130181147418 7.599928644668215
Y 13.780316114723336 10.42777452138712 9.697262807685426
