8
Energy = -37.56950545 eV
Y 9.62976065898226 11.334154779309916 9.03426118979186
Y 12.340043889923008 12.884276834390525 9.752051682348771
Y 12.196035332015274 9.330018373679343 8.968796861365924
Y 8.999804704467863 8.103565358279592 8.72678416561808
Y 9.50033976590882 13.253729569518393 11.594884001870485
Y 8.199342436639485 9.856276002349059 11.558442225755702
Y 11.346487211741463 10.644825612388788 11.824596769124636
Y 10.641553502400354 7.446520972163044 11.39355060620319
