8
Energy = -37.56635922 eV
Y 13.051050317612443 12.979101665006954 11.162473718272283
Y 12.895678457759152 9.825682180858516 9.804173244529254
Y 12.856299266367348 10.496753790978003 13.172177696111548
Y 10.20920398400151 9.295794867766725 11.571271064667867
Y 9.651920731861226 9.00088327795226 8.424643985701694
Y 10.41695561666611 11.913384139894552 9.484817755534275
Y 7.59242880976334 10.783535939504036 10.477460457509803
Y 10.021749703193873 12.360123326073976 12.683128602864587
