8
Energy = -36.73000009 eV
Y 12.527976458110476 9.49649028530787 8.412073830591451
Y 13.535886145304616 11.380961336950373 10.678132534684638
Y 9.474790166437886 8.625554969154779 8.234600451000032
Y 10.743511800995043 9.338998962702885 11.42532775198019
Y 11.442298689652938 12.403217248933652 12.767475901796475
Y 7.396033344458011 9.630642882884263 10.324600695534457
Y 10.181693996483824 11.685679467807578 9.579650694255623
Y 8.404191462010735 11.539464315661073 12.591700180063704
