8
Energy = -36.90944515 eV
Y 11.780897569702853 9.88108210764073 8.368825935319334
Y 12.294218532366672 8.36522682511368 11.293826289949633
Y 11.57996710394797 13.120916002882067 8.056153756155593
Y 9.256598887015379 8.129274510606917 9.93017326454871
Y 6.662281958634201 9.726157575825304 11.115397827833615
Y 9.605756767456459 9.939072396371555 12.508153245176215
Y 9.072619071217327 11.467700908388435 9.562790796442961
Y 12.132853570342853 11.675687188002394 10.93390887800217
