8
Energy = -36.87966054 eV
Y 7.600240167297168 12.483609283615358 11.21653598947308
Y 13.049828281771642 11.18646798880588 9.878812878902634
Y 8.812706355648032 9.485272431222633 10.708749892415037
Y 11.935881971377738 8.696967375502865 11.600355257365045
Y 10.742285653895603 11.71742857258834 12.186957443471117
Y 9.93763172438813 11.970590313621358 8.991024478493754
Y 11.126325266217895 8.913342031019395 8.365558133725106
Y 13.91128741524104 10.889473455637468 13.018191007225335
