9
Energy = -42.19559126 eV
Y 6.829162499681739 8.787696874224153 8.666890393961463
Y 9.841212401938352 9.647513093145658 10.352796022721277
Y 7.87596478423257 7.522245229028973 11.575952081218688
Y 8.06901244297731 10.8026128583316 6.309529123808113
Y 9.694453987161873 8.016927477742863 7.177961381382712
Y 10.935911198114633 11.048162799916776 7.77302300017912
Y 10.928371736607355 6.725478040622866 9.993263662291184
Y 7.885010884814063 11.880090352316103 9.339493740547615
Y 8.063701271680301 5.692073603504062 8.933892386681759
