9
Energy = -42.2782458 eV
Y 10.189932743917717 10.057112090715016 9.913717364804652
Y 7.660501859241647 10.492529114145322 11.668902704733922
Y 10.633380405571037 8.599401856538483 12.462838123221255
Y 7.866113443917623 10.928496071053816 8.311187584123367
Y 11.937827263215445 11.579193083548173 8.072880018338243
Y 9.743398810809358 12.956999779469703 10.372912230758304
Y 8.437590079634736 7.664715786179141 9.95006512055359
Y 12.506300436625928 8.261268798829676 9.5868407202367
Y 12.715102965136616 11.150431427591029 11.350804141300591
