9
Energy = -42.30965199 eV
Y 9.032582255 10.724498353080305 5.955439678292678
Y 9.032582255 7.340666156919696 5.955439678292678
Y 9.032582255 7.41296339710589 9.725391472284175
Y 9.032582255 10.652201112894108 9.725391472284175
Y 6.924774040044203 9.032582255 7.741003639109595
Y 11.140390469955799 9.032582255 7.741003639109595
Y 9.032582255 9.032582255 12.742346997056996
Y 11.750318784681207 9.032582255 10.8536118619479
Y 6.314845725318797 9.032582255 10.8536118619479
