9
Energy = -42.17600792 eV
Y 11.507436148522245 7.908993815833167 9.110334625262476
Y 14.207173419774195 9.69860288153122 9.399398888970405
Y 13.539120985045518 12.480621303947254 10.94264088677483
Y 11.178557642850807 11.244144433589973 8.901643829001607
Y 11.853498285334641 9.740261602099439 11.903429886862716
Y 10.40641760777741 12.744914107655754 11.782619639325267
Y 8.891864045229907 9.340032176394727 10.41367505902312
Y 7.630630514135598 12.281769123271163 10.250233773161439
Y 8.290622508098876 10.799453871350352 13.202089391051263
