9
Energy = -42.63194425 eV
Y 12.229547668071985 8.445047720322519 11.70875664175103
Y 13.826290084417286 11.554648770106178 11.530129783526212
Y 10.885768966265555 11.293766657715981 12.903251514688302
Y 11.635847673361946 13.790784651985717 10.946314048488535
Y 11.1550168183608 10.796694377771871 9.580224807132812
Y 8.478615423084461 12.321412654249357 10.846430849906776
Y 8.931850494030806 9.076028946801888 11.443131294657615
Y 10.318808754323015 7.573092010785805 8.906577669036887
Y 8.190764953294856 9.885704360619721 8.373096777247865
