9
Energy = -42.34909992 eV
Y 11.49617236036026 11.868669254248006 7.707820634321577
Y 12.669274423270178 12.757846030568084 10.581159185199324
Y 11.596387435690984 9.53119522263743 10.11157373498046
Y 8.964872313820292 9.890549512050443 8.00540820836632
Y 9.456800635131607 11.92741144380629 10.62634187001636
Y 13.540654497933126 10.649040842398394 12.883253629253073
Y 8.43802727729271 8.71377910854538 10.93200507305777
Y 11.359046510561644 13.002797411683053 13.48824272944444
Y 10.392601066060251 9.89775528417478 13.1872991824372
