9
Energy = -41.64053344 eV
Y 10.53354381078536 11.519153442443137 8.881166264083676
Y 13.480641198492828 10.085051500570883 8.634153431816754
Y 7.8835214677458465 9.165135272268156 8.45357519704019
Y 13.289957328711127 13.184071188095421 9.52295637289075
Y 10.799408880223409 8.335090994410535 9.874628134032838
Y 7.759189335199148 7.159828605100778 11.029434018592648
Y 5.519964425987696 9.488233449277587 10.71476990757852
Y 8.615667167953939 10.316941900382114 11.412217667252994
Y 12.219014855390908 10.847402117941666 11.57800747720174
