7
Energy = -11.34922321 eV
Ag 9.56531995392032 6.376345131603891 7.578951474140741
Ag 10.579490160104813 8.190769380756251 9.281353647967785
Ag 11.303096426730072 10.518037626227642 10.423336020769884
Ag 9.430289763622127 10.708410518777292 8.401704559268198
Ag 8.70320491201584 9.568154354446772 10.897922781332989
Ag 7.899116929994292 8.265721926796871 8.517122178434665
Ag 6.777221988957299 10.626544276663365 9.160619249993053
