9
Energy = -15.27992813 eV
Ag 10.47589809248767 11.221756109982831 11.03771136771094
Ag 9.61289120408838 10.085219723444883 8.752241784758782
Ag 10.059769873130982 11.133877987996934 6.25778314033698
Ag 10.74713750950629 8.48186799134174 10.776368355870455
Ag 7.988215632389996 9.988528372257017 11.044437433433632
Ag 8.737660788876866 8.768607287503793 6.521391784792168
Ag 9.740895166365824 7.182243350905922 8.579034230701462
Ag 7.140556332673522 8.64248102533675 8.80335416901449
Ag 8.260271546603596 7.230128729625914 10.939489600376353
