45
Energy = -97.32071979 eV
Ag 13.16796472086689 12.56698646736651 8.408127032999479
Ag 14.279790529294992 9.92773590740963 7.788115655073626
Ag 10.835245694764371 13.301118676525068 7.104292894057198
Ag 11.48958348986912 10.529388615139743 7.539231006107303
Ag 15.062659266662124 11.363393500182251 10.126114601651835
Ag 15.548303518502085 8.60351506198767 9.895989932350597
Ag 12.68116478088804 9.539596893627117 9.970236222575336
Ag 16.53265172847705 7.2507332120245165 12.148704584637416
Ag 14.473654748583979 14.234559209930946 10.370736812160505
Ag 16.441105849624776 10.00091591538878 12.215600024344612
Ag 12.58238178313403 12.324146656138737 11.105184266428944
Ag 15.08515605206783 12.655748325656182 12.70464545462308
Ag 8.95747968809874 14.720083559189034 8.56531886491111
Ag 13.758342814256569 7.488223973614944 11.853419772541615
Ag 10.717904955600472 10.50527455017472 11.996550789913755
Ag 9.857254971265146 9.310256527378776 9.45843174214801
Ag 10.034910803814494 12.09870698419441 9.488524075871457
Ag 14.274015437638413 16.794839499601917 11.556509029433458
Ag 11.506218580583923 14.649202248624679 9.692618557668402
Ag 13.621180829716364 10.201493798270427 12.64226255056767
Ag 10.992476004410117 7.729887481266316 11.468238590573621
Ag 14.995113736141713 8.326372300151842 14.255791561097539
Ag 11.321059218692085 17.048205354929877 11.319237632372086
Ag 8.005493508682036 10.585850223810255 11.08597792493047
Ag 10.079941845347822 13.334108276117266 12.127064902816272
Ag 12.203612497485862 12.376219408278617 13.887467218582273
Ag 7.626928366052826 13.324571444304354 10.559919198893905
Ag 11.968758953390521 8.350615971699892 14.007322078239948
Ag 14.895729236553823 15.269687350274934 13.89733175443543
Ag 10.458960625464316 10.502606236929317 15.12547294285344
Ag 17.002432551717774 13.492404229710349 14.517338366247582
Ag 12.566335817552124 14.786319188540123 12.421830627842429
Ag 8.875392749147535 15.785533934367454 11.094486402035496
Ag 5.950723395978252 12.05367625532356 12.320038408190934
Ag 16.04225250037729 10.85758072759486 14.800052080687284
Ag 9.073461305702752 8.773800071694717 13.276554262026728
Ag 12.679549238382748 17.202985287138183 13.8369720190225
Ag 14.44316560082146 13.019383330527308 15.583859567967616
Ag 13.369438437534594 10.293501465542967 15.531222247412346
Ag 8.261105127893392 11.479558227957856 13.723772326939283
Ag 11.872319455372583 12.38428537313124 16.685640829658855
Ag 7.674498306541173 14.275440672645523 13.252215922069082
Ag 9.761526968543485 13.40244692224468 15.087257330137197
Ag 10.094595432687825 15.819053712784147 13.621298894027653
Ag 12.2746095639357 14.855190538154547 15.298308572486617
