37
Energy = -79.01090491 eV
Ag 15.103861669086276 9.033432105808824 9.20106296513637
Ag 12.705857604032428 7.593617426198758 9.598833029974374
Ag 13.835034869158651 9.252449018778446 11.669022608950545
Ag 15.887237943783521 11.18332311116609 10.865220074070201
Ag 12.88619593346349 9.621023992852406 7.576238693810535
Ag 11.230480075173256 7.941460223721181 11.964154511603196
Ag 12.326400729415585 9.611824626037285 13.9846538320047
Ag 14.712436984929283 11.654444046758588 8.263872018360395
Ag 9.829988385501865 7.95661607898174 9.402663130428312
Ag 11.467009056253188 10.077075213690382 9.992291195909939
Ag 16.557245570433736 13.48172987783941 9.247337533837843
Ag 15.145487246814373 13.855361999317578 11.658120189131646
Ag 14.467030022761518 11.486207493020688 13.293734101339107
Ag 9.65918304680627 8.441825909414701 14.26785775778197
Ag 10.097498959941065 10.103868973006607 7.486146572754352
Ag 8.315559162599525 8.330167366917065 11.71037167034418
Ag 13.208051504925187 12.05018205181514 10.749257974198304
Ag 10.719367725308432 10.251820548747142 16.167161765114713
Ag 6.800457049032396 8.8341829429658 14.028016974390665
Ag 13.652142010047374 14.198435128394 13.979531759426955
Ag 11.715581592456532 12.445924427317122 13.14601426480901
Ag 11.972930873679248 12.25750899252971 8.005266587153898
Ag 13.873022397049212 14.272724254217005 9.036039858619919
Ag 8.377340837800999 10.985099301871598 14.792990964922167
Ag 8.436284059369456 10.467068435111727 9.747098066611038
Ag 7.1052094597471465 10.968865762868075 12.232790274024646
Ag 10.456822800484323 12.65692751607237 10.61541817879822
Ag 12.932911791350321 11.913226989616097 15.612638715299711
Ag 9.952835241995123 10.503482311447991 12.36764485250723
Ag 10.906018592703878 15.101038758369906 13.810996208065724
Ag 10.257967697976415 12.949051742195053 15.527641207694385
Ag 12.445438736029464 14.895369636188628 11.447793187086418
Ag 11.102204520323577 14.768958139097311 8.911492140684192
Ag 9.184622430639706 12.720849835922069 8.121599782521516
Ag 7.704989633630833 13.13444101352774 10.536729276649936
Ag 8.815463114453497 13.201633537764062 13.11521859158185
Ag 9.581551725502333 15.226502265111032 11.29480053906134
