53
Energy = -116.50310112 eV
Ag 16.978023034681488 13.418169746775995 12.471270053409993
Ag 17.311695627671142 11.776530261136694 14.688351613996197
Ag 16.664800116172948 10.61663314863314 12.220518770861574
Ag 15.42706854310342 15.66172422143281 12.504401366004886
Ag 15.78811868057346 14.225729222717723 15.015748434503221
Ag 15.812848486770621 9.35482089680252 14.551620435567871
Ag 14.935800509608997 12.770622703085218 10.518981127129825
Ag 14.638794138183057 12.153332483808459 13.500093972711323
Ag 15.283957152887718 8.092658311907309 12.080536075295809
Ag 15.058439755545688 11.652372758014328 16.28663786619724
Ag 16.008335782000945 9.718880822346263 9.748444976522396
Ag 13.690738445295308 7.4072132640950805 14.497154133316085
Ag 13.054938657073349 17.1622605125363 12.084639659129339
Ag 14.198089895329064 15.631597608564471 9.953226615254145
Ag 14.381052066943798 9.034183734670291 16.921671183035766
Ag 13.31511982350977 13.649949864251703 8.240342784002722
Ag 13.497104213261297 15.803746539454394 14.514585234499515
Ag 13.75981760446718 10.379562235603771 11.46459120802143
Ag 13.39376481741653 13.838099029673565 16.545456566600603
Ag 13.015312301702117 14.082888682517668 12.188032615283536
Ag 13.006469760137094 10.079390729332223 14.609353155037763
Ag 11.987919375202422 15.98815681712424 7.578340050131958
Ag 12.469259332486459 17.857475849686647 9.499207244662994
Ag 11.835074264318884 12.267485689217555 10.213319442443957
Ag 11.871226736196826 12.725569912799767 14.462227175839237
Ag 13.767250472122155 10.859777288767019 8.554346815685703
Ag 11.726503394540021 8.475925232206572 16.68838286728016
Ag 11.354460588655181 15.184057775411535 10.24305159081813
Ag 12.45575347033882 7.813108153157546 11.980246856873991
Ag 13.74635479001955 8.145636917453 9.472106049877766
Ag 12.031394270817215 11.826766944987746 6.5653649660422
Ag 11.999150502420099 9.08755152589166 7.291785046774018
Ag 12.337181047135843 11.244574443750277 17.144113460506013
Ag 10.216659456025063 17.625940485543005 11.105746104509311
Ag 10.870081756415262 15.905034933297305 13.200588835811153
Ag 11.122839715625075 15.303524285459332 15.851387487854735
Ag 9.137061445617226 16.058360328783795 8.92733013665078
Ag 10.206428148582331 13.258713202358932 12.20843563310721
Ag 11.142703405018727 10.550657633743706 12.591163761246793
Ag 10.774885602520426 8.044646839339556 14.161549079968426
Ag 10.153541942128825 10.447189270841838 15.460467151843153
Ag 10.407894950790451 13.754553001506157 7.7449161018689985
Ag 9.852060595161692 11.06178663959732 8.146345104114891
Ag 9.59468977553164 8.23975694845547 11.677502373664803
Ag 11.331285859624213 9.45617368770562 9.903505644190167
Ag 8.802415870391467 14.440242214452503 14.422995964931236
Ag 8.477887682212838 15.442777748229851 11.71067367309028
Ag 8.549163587194519 13.40649708683425 9.741640426344127
Ag 10.049974803539632 12.930409431440328 16.63766669886058
Ag 8.361202995714772 10.16138912259785 13.337318013725161
Ag 8.993524638437389 10.911202080224768 10.756217860459643
Ag 7.736797632853523 12.026015651418014 15.248266655875302
Ag 7.491237902173413 12.756154814773959 12.443682727330998
