27
Energy = -82.50159676 eV
Al 11.80034335402411 11.02445991699831 6.818090412852757
Al 11.788805227050064 8.297919795782345 7.536716672535016
Al 9.26499394165351 9.357086551327518 7.3288789157932905
Al 13.611164074123804 10.196377473853072 8.83426356795706
Al 6.892154778971121 10.70620566509577 7.456535936828779
Al 9.41270343249034 11.95732877383991 7.855167821033053
Al 9.71788704705866 7.681704887878537 9.428950759967856
Al 10.951958695802668 10.088978768986864 9.339980583584262
Al 12.358049200129894 7.88410552253149 10.13062323090807
Al 11.889338906107321 12.59187049506579 9.078880187501843
Al 7.080562813519462 8.32090022852359 8.933583213279977
Al 8.145079835806461 10.46912646744063 9.902095266839348
Al 14.579511574279316 9.03285386806412 11.376717028262682
Al 7.091096272817186 13.04819831969208 8.80540763853073
Al 7.969955861967261 7.995611910047135 11.492039610639292
Al 10.262437911823023 6.545055164001076 11.78660058989694
Al 12.77901744182705 11.138622464856345 11.325330658333582
Al 9.487028226671507 13.868715891549014 9.767386126779858
Al 11.689813949678438 13.660652865059554 11.554265065295159
Al 12.591890004890086 7.244788959818586 12.762241573893357
Al 10.085687727390678 11.632137072214475 11.161853571956385
Al 8.337126840932127 10.38677254940387 12.760174667079836
Al 7.473661981441458 12.588069557146301 11.408993453456656
Al 10.7019757279153 9.154049206504325 12.073396309812889
Al 13.047680307537732 9.697697710138014 13.631075076522817
Al 10.967705707059583 11.35076486972287 13.720450757202414
Al 9.372181883926634 13.429757771352458 13.080114030150007
