27
Energy = -82.60053982 eV
Al 11.10245800752035 13.08653152401073 6.820040034716444
Al 11.969818205721035 14.475465370525805 9.182268222726655
Al 14.055276730518845 13.250967055840093 10.387088333271532
Al 12.526089191321617 11.778051561330106 8.656342144045132
Al 10.27440409976534 10.533898806138875 7.63168311023377
Al 9.800559572368384 12.73311680474154 9.112688767911957
Al 9.900819727804267 14.934047894244271 10.816880186907369
Al 11.551725053023926 12.75371657496966 11.426439861639501
Al 12.343793187481753 8.93962489708161 8.554566879447124
Al 13.677228609020109 10.46063197648045 10.504981325656525
Al 10.846976947664652 10.451799777329517 10.478165722435891
Al 8.422212744506679 12.611174370464934 11.219157426238226
Al 8.269389770859686 10.381311419972741 9.601288080545604
Al 9.786684665378736 8.245336820549442 9.234477178582672
Al 14.07295147585533 11.97213903238893 12.76887780773042
Al 14.601944130386512 9.28187691683589 12.652715395360886
Al 7.516154830561845 12.387397561821608 13.659309210521139
Al 9.670318025510415 13.971498997852422 13.41929917409767
Al 7.560038347056603 10.172016215766892 12.1978461906214
Al 11.808165568579751 6.4187478493029415 9.199258763696205
Al 9.819132055473114 11.18254646011782 13.276570666339705
Al 7.606263092388631 7.7222072959285795 10.904372066418103
Al 11.933999983935582 12.712879519879195 14.128495021480624
Al 12.43686093804345 8.046306217008839 11.245781484287184
Al 9.885014866136384 8.647434804182664 12.252384400395913
Al 12.097423286520696 10.077404143774634 13.016169270631037
Al 9.891711406490604 6.199284651354257 11.080267793956079
