32
Energy = -65.45431526 eV
Ag 18.151103407498134 10.57957977203845 13.126384658468536
Ag 17.034650408991588 12.804038215057428 12.041465402349175
Ag 15.66843314042344 10.475845557095084 12.088546479781964
Ag 16.37364187818394 14.701073706281013 10.225001743625384
Ag 14.424828924308162 9.042835357781842 14.018115406863814
Ag 14.900369689669931 14.618863390700943 12.604799815842204
Ag 14.39042336369537 12.653890388762234 10.57561389343957
Ag 12.183924458003789 7.219607341946638 15.151331233326236
Ag 13.889776073248438 15.875889607172164 10.259619273935725
Ag 13.639624807598121 12.007438551553909 13.484748685796747
Ag 13.06710957753979 10.227647963982811 11.335303984684229
Ag 12.499315487820247 7.784541569339102 12.42984016968558
Ag 12.882577954184605 14.640197452120503 14.472964816416942
Ag 12.276040212397554 14.06581366540535 11.827491312504058
Ag 10.774774638841615 14.850825638774023 16.24361980031025
Ag 11.874304065990323 9.834447914289287 14.378415206267354
Ag 12.653455048016026 16.975956506373148 7.949198269028113
Ag 11.414311382971782 12.352535905483998 15.29032978597564
Ag 11.595698922344434 12.014517369985928 9.81084010331703
Ag 10.722531845937134 11.606528226715222 12.498553510926284
Ag 11.623668870092963 14.802096285150547 9.198496140894058
Ag 10.528527778044506 9.16165214282646 10.961509349041497
Ag 9.59091334651647 13.844088821890855 10.948994362014593
Ag 9.924026599312516 7.966697818741874 13.587888216533543
Ag 10.289325856424334 15.867203649252048 7.109995575038676
Ag 9.172410930958915 10.588645852065143 14.67022922538655
Ag 10.036195008878504 14.180351733119204 13.666799995270791
Ag 9.513908730405548 13.363271583259852 8.197491404892821
Ag 8.858324290339107 11.261789446947224 10.093543759968856
Ag 8.552670225360385 7.180871181935356 11.289261877748858
Ag 8.035626185223022 9.6558951916002 12.281547169559337
Ag 8.016809051157365 12.354664352730431 12.741361531483529
