29
Energy = -60.01674004 eV
Ag 11.240162412145665 13.935543993870382 13.995656228476468
Ag 9.56152230526273 11.548536199733613 14.014320461967767
Ag 14.063823498134111 13.779301096141985 13.842927980512313
Ag 10.995768097402319 9.00232358615559 13.888915513691854
Ag 15.521197615343002 11.39996560816025 13.56145517127107
Ag 13.812952479871823 9.193451065191855 13.830419775151944
Ag 12.722923637667122 14.513281315827452 11.464094355492543
Ag 10.363019736390351 12.911155912987882 11.594042906045068
Ag 14.949314669035148 12.876059274860854 11.287516523600969
Ag 10.262635694685605 10.216323626757324 11.519762093374352
Ag 14.854987748034517 9.971709147125445 11.296590145271834
Ag 12.519379903786685 8.470529917835455 11.403412828655727
Ag 10.884509065899275 14.119665638617235 9.16947815585933
Ag 13.66023822197718 13.723496671643131 8.906260785444937
Ag 9.301563189856154 11.649200469696215 9.203616743065435
Ag 15.233018102318786 11.412697734320481 8.959455517640885
Ag 10.796138225972868 9.159702475807627 9.03132474325974
Ag 13.631985768622513 9.098534745327443 8.888621657380984
Ag 12.038860413009902 11.113679229886735 15.428509744600817
Ag 12.625094663434309 11.563350637256217 12.815118322872866
Ag 12.45225695036237 11.409480738663099 10.038339026772462
Ag 11.6369202583842 11.975340495669531 7.509009115242807
Ag 10.149512625825135 15.631120658629616 11.514659906959299
Ag 8.152685141520614 14.019957018933647 10.236705624761644
Ag 8.379382644256681 14.002978564413432 13.193923086248677
Ag 7.6564120494088375 11.660981417095423 11.707114927578667
Ag 8.15412989768693 9.268333864712075 13.13137733125314
Ag 8.044655036242503 9.273759145675934 10.167242650994403
Ag 9.887309449734753 7.522651497174729 11.664056075607991
