33
Energy = -69.20342691 eV
Ag 9.740957438857638 11.73636330552018 6.182596537217924
Ag 12.695724866706273 11.566599901687619 6.344686493688376
Ag 9.742851917919566 7.83800483649587 14.605433879850931
Ag 14.641174273442925 10.366141118969388 13.60950202673351
Ag 7.663833073369792 11.472869417280538 10.776049818482253
Ag 8.43987963474517 13.12430940261317 8.428946120847826
Ag 9.940361587308987 15.514774239812315 8.960061070100744
Ag 10.128636114297256 10.544168456249317 15.12219027082257
Ag 10.326950104244125 13.364990864614823 15.56011298038872
Ag 11.16021422982433 9.979622743973312 7.9398256954365
Ag 10.461675087220826 16.223762971895894 11.640493025088949
Ag 11.204743694855399 13.219033429256308 7.970691612451358
Ag 10.317153150279319 11.519914315454265 10.274600728792644
Ag 13.037659006403473 11.711474114925906 9.416197258073527
Ag 8.522586706236172 7.102059382399479 12.110036625531658
Ag 11.791726305275711 14.037356031687297 10.557113440957346
Ag 12.088473845867936 10.355580956441042 12.147665185703874
Ag 8.763488251407436 14.070538873721576 11.038720854123559
Ag 12.373167747040167 8.904292212165748 14.589962938423705
Ag 8.996439998581126 14.996507954587535 13.697395951261756
Ag 14.071087014332246 9.65430860487859 7.903884347790717
Ag 9.698645003163326 8.668043896480944 10.030671135525454
Ag 16.539196102881775 8.67295336193789 12.45829751243426
Ag 8.394717675160042 10.38049841759131 8.27605518189857
Ag 14.826300120781289 10.107730762809751 10.784923411388704
Ag 9.180288754301348 9.748151883441446 12.553332871091778
Ag 13.668572757711207 12.607610838653825 12.063431966481145
Ag 11.218800108767809 7.568000131410933 12.255885560008018
Ag 11.850165954371207 14.39767721060751 13.32514906936016
Ag 9.878088002093019 12.372045656159283 12.978975862667
Ag 13.929916545835857 7.895693431187582 12.394651173920195
Ag 12.555725541445021 8.600438822719877 9.975379071653164
Ag 12.51705005014194 11.903394584983966 14.555449471489307
