52
Energy = -113.45731183 eV
Ag 18.683741867569225 10.310199454115374 15.817371957368131
Ag 18.35901932452782 12.669641465725158 14.398680208465302
Ag 19.066321818428285 10.307211228724212 13.065836235659093
Ag 17.372696364590293 12.415093225748041 17.101833872839535
Ag 17.252939485466726 14.472407346373632 12.625784266499416
Ag 16.849011844209272 11.627146774857353 12.098872752683537
Ag 16.313088096730915 9.619520413378408 16.99015460397527
Ag 16.371184706510867 13.555667833170583 10.07206343059491
Ag 16.60087228585772 9.415340069280074 14.142547194179702
Ag 16.711842181813573 14.676545822421694 15.396523356288775
Ag 15.748741972774976 16.21631643921562 10.952507483444975
Ag 15.540102092403368 15.455289551638305 8.246528383704927
Ag 14.393448427065923 10.344999601119303 12.608905705502915
Ag 15.535456729274982 12.018506072552013 14.914303600871374
Ag 15.46134238674631 14.374225623984666 17.87571911484337
Ag 13.976896346643024 9.643574830151104 15.480774688081071
Ag 14.437730390066982 11.578817102817288 10.160558128716414
Ag 14.628219531180052 13.341794440216132 12.515156501165919
Ag 15.026625031208356 16.05082502326902 13.614314728148285
Ag 12.76464512267125 13.636925462356468 18.30107946644867
Ag 14.02123009980829 13.150731047242946 7.913131746830851
Ag 13.915206431730978 17.543983159812818 9.109262939855864
Ag 14.762069524574192 11.686151921245294 17.832012078155824
Ag 13.465948186944916 14.723183561658296 10.160023321800402
Ag 14.786208148023697 16.720211361248946 16.3472787116341
Ag 14.428065024187603 7.72995802328725 13.462560120239496
Ag 12.288483495793502 14.781877685468325 13.05582978173993
Ag 12.853888089768425 15.681461578684019 7.27913730000999
Ag 13.771050810865033 14.240371436183455 15.56368790924246
Ag 12.067267814980424 16.014501796764193 17.001876255461134
Ag 12.679461810667306 12.05473322568944 14.200302844047032
Ag 12.225470673723748 11.176197716306126 16.994134413052663
Ag 12.612493036464958 17.202567009166565 14.522729655102596
Ag 11.30532476298986 13.746665815522213 8.493265507964155
Ag 12.159890050693015 9.881066932922767 10.691809166416226
Ag 13.156571743646207 17.14045732772107 11.751815405976625
Ag 11.99934084053939 12.581868396924168 11.294960376844141
Ag 10.041086795189166 13.165100250611268 13.40084923468344
Ag 10.970680049334241 13.501872989807843 16.11506109146229
Ag 11.988469807091144 9.168478336488318 13.454618849452034
Ag 10.390952431702294 16.81191470416582 12.174790398011345
Ag 9.87407555538641 11.712863734993547 9.72260371795323
Ag 11.299165723027789 16.534912280307427 9.52040500793339
Ag 10.138808933529123 15.83613821799805 14.802618132863078
Ag 10.304490267350664 10.810921325045253 15.038165022410995
Ag 8.128521099700205 15.237902753223237 12.885686606726694
Ag 9.87732909312376 10.551847671260274 12.227804043338441
Ag 9.82516114583926 14.468988775943837 10.720211636553321
Ag 7.807566329551358 11.346713420499349 13.96558524793592
Ag 8.207698531502782 13.78586125314218 15.433102976206047
Ag 7.854465086171786 12.697566635184941 11.533432264561563
Ag 6.068607187406505 13.463664430585753 13.644203737343451
