41
Energy = -87.16095919 eV
Ag 18.11841446562899 11.509198558174011 10.015262590133862
Ag 17.14987491261732 13.187240412873395 11.94542645536964
Ag 16.437841754336727 12.144258275188506 14.528569913589507
Ag 15.643727654672809 9.328777031015386 14.463534833931192
Ag 16.931446683246165 10.39800093506626 12.279715981457283
Ag 15.388113472338858 11.443479134946514 10.2006587680448
Ag 13.744426018905287 12.728584274743879 8.347472510592972
Ag 15.214510180406924 14.461673222843011 10.357083256578969
Ag 12.916789350131662 15.704314218798752 12.01697184979171
Ag 13.117967923364661 12.880966072872948 11.160557534049968
Ag 14.390711192535942 9.23773504317595 11.83668992427801
Ag 12.511768697457464 15.061294943039712 9.35992925342946
Ag 13.901235387733507 10.362664747331404 16.40984915140364
Ag 13.933928490244655 11.406794244769586 13.616921713996334
Ag 13.993402796743053 13.211091221228662 15.820733472948863
Ag 12.746937586195703 10.359796452591274 9.934010181376136
Ag 14.919456023219544 14.151418502771854 13.229250215383965
Ag 12.810377503400952 8.904748518862343 14.197087280270692
Ag 11.32868097237882 11.128315964469234 12.449567232227901
Ag 11.048540268519316 12.363125823642626 8.88048770160564
Ag 11.708678444329944 14.26461956137347 6.864892945275541
Ag 9.482327222741965 12.794821643608891 14.08028522841591
Ag 12.507000905269122 9.753987885917203 18.706434279135994
Ag 12.340447603601536 12.361432731697072 17.90661797339971
Ag 10.596805278366862 16.611381618906638 10.78841376977211
Ag 8.365496114474345 12.506802371812187 9.916740429096354
Ag 10.854179287095894 6.955365218474784 14.224661886399684
Ag 12.18039415942957 13.648967566028327 13.739584006311276
Ag 10.979679129059916 16.942337359325546 7.882165982039794
Ag 9.946451876490547 10.137443274183953 10.117725802690224
Ag 10.433283827255915 13.655022327463234 11.409380885485549
Ag 11.282301607935354 8.705487130360067 16.47444610121933
Ag 11.521846456777396 8.393812582216022 11.797826026655237
Ag 8.40559316374051 11.028026451162887 12.260740923469864
Ag 10.138162995318524 15.518259322323123 13.453995181255914
Ag 10.966145296249962 14.10245636410123 16.14882528961181
Ag 9.586766061275494 14.73798140962776 8.729666753514056
Ag 11.463505101966176 11.37323413615349 15.471842258271858
Ag 8.173008783156348 15.215187947181839 11.158984447889473
Ag 8.465540267181844 17.256863417319288 9.103153618050186
Ag 9.821660221919302 9.530457220072417 14.18126152929496
