25
Energy = -50.75563999 eV
Ag 11.940971970844283 10.17321646264092 11.577687438893749
Ag 13.74686373661469 9.455608294321367 9.66982944525542
Ag 10.448122477089669 10.624485910127106 13.860402494189211
Ag 10.267558990582943 15.175230805835342 7.151523962868874
Ag 10.930972355977296 8.34400651607997 9.756375391478391
Ag 7.546479943181089 11.915662266930033 10.294574096468876
Ag 12.891554266376044 9.298761704969918 14.216166413372376
Ag 10.228506911840759 12.41442414171744 11.014723603230877
Ag 10.912874766938101 7.9221236252908565 12.731780183051283
Ag 8.937722833393792 10.093182566601046 8.724894918231525
Ag 10.306835401534897 13.42561368508543 13.677503931059933
Ag 11.569565956532122 10.978010799024114 8.773555209017248
Ag 11.986636268223315 13.757620333620778 8.807027523379402
Ag 14.758204079534446 10.384215140416485 12.209516109872167
Ag 12.084107272590156 14.377737496255481 11.693404771035622
Ag 15.526247070504098 8.372212861482273 13.9807505346919
Ag 9.051267032125248 9.680073602078737 11.470390448404208
Ag 13.47470974688219 12.250335404764668 10.523060929854564
Ag 8.180298939844269 14.234617268067915 11.838505570073488
Ag 9.318843786663809 12.808183465347993 8.26095456792199
Ag 13.706444482650562 7.7474268653886 11.9582116182592
Ag 12.862223584596999 12.225290762048214 13.431035697917412
Ag 14.95903402985066 10.979640281929493 14.92272551393911
Ag 9.805079691450176 15.111321569031254 9.860971078781326
Ag 8.056034851219614 11.748158617986252 13.091588995792488
