31
Energy = -65.13566650 eV
Ag 12.63529921072956 9.405703895735886 13.754022584307647
Ag 9.969510906483663 8.687083364599262 12.962575910491692
Ag 13.147442973501743 12.138957243707871 13.516838235753799
Ag 10.998530992019564 13.836029717155062 14.200148039190964
Ag 10.505300136670673 11.123732723476603 14.398986618695318
Ag 7.840997129464496 10.50627475465445 13.533150302279926
Ag 8.396784900680556 12.890441007398538 14.905697801292966
Ag 14.216416512024804 10.24602446339043 11.543322277672944
Ag 13.473265243372376 14.892296478519635 13.171553595655409
Ag 12.300735051050003 8.117478418286046 11.294390694668627
Ag 9.646738102383889 7.385908989904551 10.467969136093993
Ag 7.334789451144239 8.082996279926281 11.993227277027362
Ag 10.952445862390839 15.991327284985397 12.438553005280331
Ag 11.39249454217872 10.840616299437006 11.674213571385579
Ag 9.185264703596395 12.685975390710615 12.244187505797344
Ag 9.411148815052679 14.79888225025004 10.443206395181761
Ag 8.675782411231058 10.227603719160928 10.842229936407492
Ag 7.621908235141535 12.665834808900561 9.735341208414033
Ag 14.693095579173121 13.03942169791652 11.280776962036581
Ag 11.080016561691998 9.582427962887557 9.152484599388602
Ag 11.923052804430986 6.907106982700087 8.834947672127578
Ag 15.719519355303081 11.219999937501424 9.350596115328392
Ag 7.331475175197906 8.374841728681451 9.200948866709158
Ag 13.911650216518774 9.058316743098416 8.957722867267895
Ag 11.927287095888802 13.694130592944312 11.249815123989555
Ag 10.288836547304514 12.341144379603898 9.46134500053644
Ag 8.601017577013677 10.608194205600435 7.98769735131916
Ag 13.015773074897472 11.778834250899612 9.348301692096546
Ag 9.525176222459205 7.952575350282956 7.499425084725736
Ag 11.22171103718448 11.379992946638659 7.031019573177212
Ag 12.153536375734308 8.715090439797386 6.703054216770978
