36
Energy = -76.28407651 eV
Ag 12.774380251662834 15.327116608531579 9.697100367487286
Ag 13.058407653593045 14.68578502507807 6.990545493513583
Ag 14.138549537820515 13.746726351131235 11.549523200288233
Ag 16.470970132732365 12.593544620051324 12.56980247151806
Ag 10.19726985541476 15.472343908034453 10.734897504077798
Ag 14.96271710845678 11.171352814350803 10.739250981167993
Ag 13.919865706253459 12.858974730210928 8.87381428065412
Ag 12.117714853871504 11.991972851142728 6.964907496435155
Ag 14.206926912607454 12.953850058242269 14.203998888665158
Ag 11.89917585808809 14.323941235794898 13.135096834123305
Ag 11.487586337617872 12.92717219753175 10.731843231907662
Ag 10.63215218841293 14.070513905977952 8.227551792386635
Ag 9.972824011280405 14.890772716494146 15.062783235902113
Ag 15.035090793952126 10.367204337021716 13.47537735659792
Ag 12.21537080079534 13.544269137698494 15.970818177947454
Ag 11.436644842750221 9.295583173462065 7.288293762254256
Ag 9.091730473316176 13.833279772459765 12.663539642342847
Ag 14.01283113218187 8.641038550114082 11.383607260580124
Ag 12.430242307868541 10.896050704268125 12.470856871131621
Ag 8.594720039985846 13.21462037118109 9.986667451413526
Ag 12.506067651640343 10.394714527036927 9.577325696228005
Ag 12.711929837036815 10.851539353653488 15.367439126499306
Ag 7.011351966779653 12.101602552842623 12.013794333138735
Ag 9.85426754326235 11.355717185659625 8.409885481058796
Ag 13.138389290303298 8.383111667803083 14.077722248145058
Ag 11.390917511467222 7.901433571476144 11.998441848164664
Ag 10.299516711583342 12.132948932002378 14.528387170415906
Ag 9.704317329824516 11.000627340539504 11.800482807320828
Ag 12.321481410572614 7.479754273197349 9.382699673508156
Ag 7.658027130500537 10.372949831048027 9.94642831475927
Ag 10.529698032339 9.353020582124275 14.199339768325302
Ag 9.96543036022757 8.876311497682313 9.66737656604621
Ag 8.028289085067465 10.489843861043969 14.041317733449493
Ag 7.537041326524493 7.508785862142728 9.811870413104273
Ag 8.628042457927794 8.40713136563297 12.198954722004265
Ag 9.902041379483537 6.188876999716394 10.41352930721254
