45
Energy = -97.35772886 eV
Ag 17.110953374657072 12.834670789862141 13.732720394956788
Ag 15.735164183355192 12.503620223903297 16.174015543416104
Ag 15.637511346725509 14.045573615339444 11.603618686799198
Ag 14.616746285988711 11.803671309453447 18.689762278422943
Ag 16.40824902548021 11.291896844166622 11.524175514511857
Ag 15.03863956285245 14.597003684631302 14.326467810882328
Ag 13.566191762974839 14.023094753548873 17.28601770395263
Ag 15.59863016546593 12.513374373128702 9.13601803675511
Ag 15.274964073389175 10.669215292156808 13.992161070255305
Ag 13.7172472125924 10.410728882340628 16.434796273169024
Ag 12.823161761780918 14.753023140053244 12.435377593303755
Ag 13.584940323636182 12.105775627562254 11.910690571750427
Ag 14.257533839134227 9.362197944963045 11.506293902685321
Ag 13.18882719357131 12.646375531740446 14.877486423500649
Ag 11.913793847185845 11.86723277440544 18.150160411475518
Ag 12.603653391370077 9.980330685899101 13.829023640202722
Ag 12.511911346963254 15.431393635528973 15.117929506032485
Ag 13.57514867008733 14.297398381214872 9.701945815913447
Ag 15.997658063773766 9.65351785323198 9.313789418850451
Ag 10.702522836220115 13.879575564491136 16.575177467063295
Ag 14.828955573377621 10.780011676453054 7.048773529645688
Ag 10.304830576119947 16.656000395715193 16.10317009296977
Ag 13.038641553380554 13.072986237175298 7.1539640853991076
Ag 13.044132868305141 11.24481508828681 9.227678105299635
Ag 9.1299260781158 11.885456585770257 17.695283789521472
Ag 11.319931157567808 17.064131624701226 13.124681852057417
Ag 11.017702912390135 12.516527003876648 13.28849368043737
Ag 13.556703031163131 8.588295231899885 8.504861869141829
Ag 10.843747419804705 10.958136865236712 15.703567263381494
Ag 12.098761526990884 7.659297031755431 10.72929523707543
Ag 11.445296832865719 10.258194895757399 11.36122651204018
Ag 12.202152046236149 16.640624046114567 10.423842373867393
Ag 9.785866339299382 14.932362102407927 14.016192570583193
Ag 12.166276406076117 10.329478282790799 6.591476283490936
Ag 8.621730834687217 12.523820028000904 14.983393820959813
Ag 11.127307493672124 12.994524645711172 10.560464345917216
Ag 11.08269952598585 14.852186056941635 8.484760760446012
Ag 9.260511891268948 10.39920221909151 13.141088041182178
Ag 10.74750406714399 9.339938695554448 8.778355953180972
Ag 9.859281429933239 15.478002006462559 11.244940464007765
Ag 9.380559964445752 8.391667172771106 11.071542598977196
Ag 8.505674003663637 13.115784275673887 12.172436375636723
Ag 10.454281256240792 12.09819812655515 7.950424592972008
Ag 8.91560302009961 11.051212540575033 10.265200044547539
Ag 8.608361791953588 13.74193078225763 9.402904419225031
