18
Energy = -35.94347230 eV
Ag 13.433842091479697 11.18369569427741 10.686610718955627
Ag 12.85399288838268 8.635758372454298 11.705144481745124
Ag 12.159277039822845 10.856462980207715 13.155112158590471
Ag 12.442455107357706 9.235202639769103 8.909184120410805
Ag 11.131532179568001 10.234668550894016 6.646048204977844
Ag 11.865070169202156 12.041278713840352 8.596763445093096
Ag 9.930973353004088 13.947444860351874 9.068239390801143
Ag 11.037027507589542 7.228109426115398 10.261578944518591
Ag 10.416001945017396 10.135763224909933 10.79296944212515
Ag 9.574674163074064 8.701432078096452 8.377450455035161
Ag 11.263265856449234 12.877745720430427 11.28690222966852
Ag 10.22409559578208 8.61354444637605 13.0401070342183
Ag 9.591307932890082 11.723722670639724 13.21874792685707
Ag 7.735373743864715 9.97987673645202 12.298673456491748
Ag 7.356215841055675 9.99786390297014 9.524885759566583
Ag 9.106179400838974 11.51544569890444 8.03366564637327
Ag 8.42722120101183 12.287403583405489 10.733488355629932
Ag 8.45009718160184 7.7844894660308 10.84708852770656
