7
Energy = -11.08685478 eV
Ag 6.868174342312823 10.476500513278467 11.020448408772008
Ag 9.344300533457185 9.716989999878631 10.337721189265357
Ag 11.613193221521717 9.93761014481294 8.805940625876222
Ag 11.0371065666301 7.53464184003408 10.228508368779687
Ag 7.17964453521519 9.295735453340628 8.638620439018391
Ag 9.640749835502232 8.18672653598214 7.965910692657425
Ag 7.566762283985242 8.111219573605696 6.2704293658818795
