8
Energy = -12.69942498 eV
Ag 10.784533930433073 8.028691560250007 8.488271814964337
Ag 11.905029626874244 10.454132126773935 7.689441542088407
Ag 6.655502627576139 7.5280582086698455 10.778672365494689
Ag 9.800930769251938 10.491894795580526 9.477392276558641
Ag 7.929250678542947 8.5405198015591 8.515468374969947
Ag 9.39359610968005 7.927041806325974 10.81028739607836
Ag 7.395843857529412 10.189848611147463 10.68274481928659
Ag 9.322633125132192 10.09878428502268 6.778169267796786
