44
Energy = -94.74771005 eV
Ag 15.502302301885432 13.380031550116948 15.103231071304158
Ag 13.229204149868117 14.85785974724814 16.06213912180925
Ag 8.282952539649678 12.356959558906553 15.916400185016176
Ag 10.731950322108885 13.630593036853092 15.986138639961363
Ag 8.402737850200351 9.979028154904134 14.184570030973694
Ag 12.959132330592135 12.458556350460277 14.468656124214634
Ag 15.450084907551563 10.904845369358815 13.684839122893333
Ag 10.777400285011403 10.915703779634656 15.229779464019044
Ag 12.953487163734318 9.673197346204308 13.942856376941064
Ag 10.554213394438337 8.280314483212257 14.221219091258375
Ag 14.6171112737154 8.830785159585169 11.786667360691679
Ag 11.912314008133169 7.94804608502022 11.858332313460199
Ag 8.535447447490773 14.992849871615197 14.687087791282341
Ag 6.399797660709925 11.863678930785452 13.871497227463438
Ag 15.878116790931877 13.277376819481516 12.27132189922921
Ag 11.290121456738966 15.62377974387576 14.182489198606643
Ag 13.949405263061202 14.952072184489014 13.341458670726187
Ag 6.399679442311006 8.937245861050911 12.63465600380926
Ag 9.39652415175493 12.705006590910584 13.419973220099974
Ag 11.72203468819206 13.573419755873275 12.086384106618505
Ag 9.078780298176639 8.513231891240384 11.715677694804045
Ag 13.671808573066436 11.552760017590462 11.5989870636114
Ag 10.94078600800897 10.765990958345835 12.130117922185319
Ag 12.30414451887881 16.389037054435267 11.604505539892294
Ag 7.797492420576657 11.068076948151264 11.584512705562066
Ag 13.615138068375854 6.916113769489611 9.869518611939375
Ag 16.36023268053641 10.881893235816168 10.898055281987581
Ag 7.2262870449708405 13.930545853359519 12.179362077623422
Ag 10.595865031119978 7.663107351989885 9.392563350722947
Ag 12.736171161762405 9.534311886186162 9.597731328611534
Ag 9.583658523158878 15.45128237757809 11.940882587682017
Ag 13.970525082829846 14.279334969183521 10.520011401938259
Ag 12.48816305512955 7.3238916506016265 7.336587243847646
Ag 11.162451530924061 14.929531343728142 9.533116957320708
Ag 9.647646955203486 10.317323860634824 9.608026152593137
Ag 11.931937665497038 12.217533488659216 9.454426442567968
Ag 9.32610925529016 13.011028822779716 10.431729096020021
Ag 15.497567288354174 8.926235913329004 9.051828686311461
Ag 11.067161187415921 9.716606924862951 7.290644149400378
Ag 14.608299055128237 11.70141200555775 8.7789345679713
Ag 13.949814904049978 9.59124784381961 6.855257854074919
Ag 13.345373112155363 14.228442013112533 7.856433368548256
Ag 9.90827421889634 12.371217480616144 7.632734921344513
Ag 12.556913390903635 11.959763913446515 6.594965919053177
