18
Energy = -52.78489642 eV
Al 10.3595254723602 12.778929904825514 9.698627195755805
Al 13.084323039127975 9.090380452109326 9.525218771642221
Al 12.501592896207983 14.136802487294963 10.718782198578912
Al 10.662194093321485 10.300878905511373 8.850120943073309
Al 12.791488702290799 11.679845632934358 9.790638303569196
Al 12.35423537758408 7.693446868190315 11.848875216751061
Al 10.769197229368457 9.843335918127428 11.47312241672738
Al 8.139525833693915 11.162973283505677 9.532163614488907
Al 13.388702735767444 10.114530825579116 12.20470649942683
Al 14.311885731127441 12.566880196142522 11.935906127232279
Al 11.610336157284532 12.211987687574343 12.472409344021907
Al 8.092944626161122 9.375119145952358 11.806358488993014
Al 8.604531185047675 8.584425114184578 9.17701064880551
Al 9.756487763899141 7.381580022800217 11.60720452969977
Al 11.018524899320834 7.614848680060848 9.082214090491453
Al 8.988614900073035 11.824385828062614 12.192962035034846
Al 9.960215859929967 14.299885000806157 11.856430690123537
Al 7.840831899295222 13.607067371575718 10.374678523970667
