18
Energy = -52.38502227 eV
Al 13.031726535070394 10.880495378060928 10.200161467570684
Al 12.081668787675884 8.995638393653095 12.028586681497064
Al 12.215861877159634 11.625778869059262 12.582786941741563
Al 12.211139416467331 8.392468545772358 9.31029054179482
Al 11.153906415666611 8.23760883075929 6.850641729192407
Al 11.114613613679213 10.681371409866749 8.244352967441445
Al 8.812088720509516 13.98231050220942 9.870025204715759
Al 11.058781515493358 6.648670623901299 10.858122420973102
Al 10.334250820105456 10.54739407575245 10.781738688975
Al 8.916452741358627 9.595308820598321 6.9133167151078405
Al 11.182895310947316 12.942573609998398 9.97435372537048
Al 9.396916578369266 8.226360668005096 12.15644853724107
Al 9.93978510144051 10.529005131996025 13.446068512080322
Al 7.7112081370028 9.984348344471147 10.993214925020174
Al 6.858447377764734 9.125614150529348 8.491767650142748
Al 8.59099238162661 11.531909311269102 8.922843138553812
Al 8.73437749741257 12.407418751648624 11.944538541387809
Al 9.457418927921767 8.454859964522234 9.365168131196306
