18
Energy = -53.02927643 eV
Al 10.591901478711373 11.930446655888774 8.336910429567501
Al 10.080344109685543 10.346524997760218 10.453158345953005
Al 8.601673071225173 6.655993437921104 8.374518903235506
Al 9.429173766243155 11.733655845297374 12.734758933011202
Al 6.896003494479201 8.560215735828436 9.37056406641013
Al 13.718242836788951 11.864792913189877 10.927571247835893
Al 11.993854128774295 10.57534594141554 12.470125319687583
Al 8.654605841607431 12.630027959360273 10.304596044907726
Al 9.157858290365992 7.695768696856432 10.693507590829974
Al 8.150132889601423 10.847717650160911 8.462091911217872
Al 7.8874608448639885 8.828930875779502 6.834191336919525
Al 9.894148646602268 7.238803775234974 6.125136890603033
Al 9.81412224186715 9.063997688459585 12.811244037365627
Al 11.76072317508499 8.285942441343586 10.856671362265702
Al 12.545075476929844 10.248757573164305 9.170444642068233
Al 10.40051768559449 8.894700630009833 8.235007095183382
Al 11.257039798787973 12.836018987212643 10.902732248142605
Al 7.5743335727629075 10.169569545094058 11.343980944772065
