18
Energy = -53.4297162 eV
Al 9.61777673782552 8.49257921082042 8.693479223621
Al 13.227823285874761 6.9975648809341084 11.293244089234237
Al 12.281275877347271 8.523767124640864 9.19233247024116
Al 10.516885468701007 7.780393416853581 11.188007349577134
Al 14.74370949346256 8.971720304250182 10.364092665114397
Al 11.159232529486241 10.539401175640462 7.752586881900939
Al 8.603986889475289 11.058443840071028 8.70006754888558
Al 8.240845230791393 9.31233333792704 10.967092356826019
Al 12.62154434787492 9.569361836928922 11.991223777423137
Al 10.580382268436216 10.361727178076029 10.370320629467306
Al 10.16965433816144 9.919117086989194 12.955862819376772
Al 6.771456837606559 11.561121770489287 10.74159758005879
Al 13.071667838365654 11.130495137852712 9.619757264830607
Al 11.8533389607933 12.114545692140913 11.90754148354755
Al 6.970807836279972 13.867554290162442 12.004257996612214
Al 9.192073326336686 12.181168176517485 11.938952828306874
Al 10.840143199901034 12.772640922837443 9.343228009249085
Al 8.302241926093075 13.610911009681535 9.741201418540397
