28
Energy = -58.39081500 eV
Ag 10.486046094733757 13.848477828009035 14.245989578855678
Ag 8.960999776750327 11.414620818746863 14.427515777753687
Ag 9.373830399197665 12.67880866820855 11.939560568169675
Ag 11.556353153813893 11.472842266127023 13.317987458119722
Ag 11.83992075501926 14.153220461902297 11.848869924546085
Ag 7.527707754287324 8.995618387410413 14.527877470841089
Ag 7.773911035935314 10.275236844375758 12.091231178313752
Ag 8.252626348819376 11.5044903596529 9.636981866784234
Ag 10.675833290157922 13.05667075172069 9.50866946033269
Ag 12.987923869220845 11.78356083702246 10.997289144174996
Ag 13.254782324471329 14.117549715973484 9.33280868489842
Ag 10.097941954473642 9.03803532523227 13.360983005534548
Ag 10.493248046635657 10.243140051122445 10.768431478732122
Ag 8.01965303875702 7.439384600127033 12.253841514767366
Ag 7.47965690967271 8.72941525034305 9.829828918489705
Ag 9.104287675810145 12.591188272517316 7.2241816249833315
Ag 12.700238579751215 9.087235300019213 12.157125891573264
Ag 11.91720988853244 13.180801816324667 7.028039605439605
Ag 15.495927234050296 12.577142343063507 10.018340242038606
Ag 8.535707783109181 6.039614505661427 9.929483230870206
Ag 8.243716554895288 9.884362003823862 7.3759772135010735
Ag 10.95972465210674 10.608851092798565 7.8904282488139295
Ag 10.761984717952995 7.287180965773015 11.146256831750058
Ag 13.62086785487631 11.373984606160931 8.324148277450725
Ag 14.886967619367311 9.836581652666661 10.511019812756203
Ag 7.580645651440496 7.144881579368733 7.5485914440188875
Ag 10.032962152199241 8.021718719822449 8.55201979399431
Ag 12.569525917856314 8.807530431910553 9.414780921216698
