33
Energy = -69.89602307 eV
Ag 9.130564217241634 10.150478729012207 7.655510080792349
Ag 6.4537878549971746 10.727239774327442 7.244247500018726
Ag 8.366336719695033 12.699737835798036 6.6581901314627485
Ag 11.838309350655905 9.583212150293994 8.108004852591947
Ag 11.086368336736317 12.075900411893352 6.907539861283978
Ag 14.535544109866507 8.96966198981308 8.62467598419772
Ag 13.783513695512433 11.436864646406253 7.340657471150205
Ag 9.941452111758728 8.727264159184278 10.012869156666136
Ag 7.212353731181291 9.417146901831629 9.61042761386092
Ag 12.663488123156636 8.1448150122551 10.549933746707193
Ag 7.752562147103154 12.209858782964927 9.324223861953715
Ag 10.557881962691244 11.615518598180499 9.734946570228065
Ag 9.806378869212084 14.169340708477426 8.602710656366565
Ag 13.453388094325822 11.007356023664423 10.154059084223595
Ag 12.5794731964737 13.490175596026441 8.852852313032308
Ag 8.018036999914042 8.03464607373351 11.960157605823316
Ag 15.140808929379775 9.08527414292341 11.43585414471398
Ag 13.238316667555322 8.388394834936406 13.372173605377316
Ag 12.245248259840565 12.98481446649654 11.692511533589018
Ag 11.434460059668652 15.416432546740673 10.545224153552084
Ag 10.74115666234701 7.380718532888041 12.426362508379635
Ag 11.378995697444832 10.23022619858647 12.110611012934958
Ag 9.369972382480148 9.4717758549431 14.035186305726231
Ag 9.228326741667516 13.599751885179197 11.307013586406818
Ag 8.509749412463016 10.852951691228812 11.707913946492107
Ag 8.79792054988196 6.678901809548157 14.280868081434848
Ag 12.720329357597224 13.18426213418542 14.458292981780255
Ag 13.475480732599621 15.293187493881486 12.584544263571827
Ag 13.988712050157448 11.103862767823346 13.039982199328188
Ag 11.938424775075736 10.498710805095515 14.953352626276903
Ag 11.213798305931403 7.756085391588174 15.20828338180037
Ag 10.783772145714616 14.84627020078755 13.245000032082757
Ag 10.040975320753233 12.205737667727085 13.72368440119193
