32
Energy = -66.43874830 eV
Ag 9.959215364379382 16.27017853286038 13.329784293460284
Ag 10.35872565998284 11.233468024597542 15.639814279554866
Ag 14.25853776586527 7.983457403480896 13.602903876602403
Ag 9.681265116016872 8.384241192320156 13.304109860177714
Ag 12.978909894571624 15.25578568294309 9.810554996554178
Ag 14.571934192151238 10.542345490130115 14.985102863287507
Ag 14.500080187781833 8.124773333456393 10.675080265199695
Ag 11.400144886468675 11.92008890529522 11.05078727123302
Ag 7.964599599355782 9.864490820428298 8.530632500907107
Ag 13.250503277491395 10.377094843578899 9.653813605002904
Ag 12.072051867054988 8.450494594925813 11.832043443899321
Ag 10.679732668329205 10.875648858809061 8.390404442600504
Ag 10.172213767006872 13.705296189321103 14.413575504058496
Ag 12.410724368739173 12.165301953966567 13.745732675328208
Ag 9.41061683806936 14.035635331004226 11.768877248400402
Ag 12.845997297142192 12.82157737446629 8.444612049502734
Ag 9.643935298157867 9.406733655216089 10.731420891515866
Ag 8.587009364256476 11.896250586587653 10.334564669832673
Ag 15.152940338023502 12.860189748005203 13.507012742125676
Ag 14.114481666382845 10.444685294463861 12.281500718725447
Ag 12.081091958705203 14.697692235143816 12.411407557632884
Ag 11.639141801554784 8.195548436686165 9.105699166001022
Ag 14.743228982077165 15.306683904673063 12.186064906102024
Ag 10.064062215093335 8.49877603763654 16.0424927961379
Ag 10.574154153884912 16.375983985644492 10.593801365981387
Ag 9.589008013818376 11.217863038574073 12.981324867284064
Ag 10.358389706074103 13.978214292126532 9.126187810998918
Ag 10.89555844170202 13.050286733440824 6.521776563618687
Ag 10.107927199766376 6.678925833917071 10.991489195282366
Ag 13.996931245760628 12.907982373481634 10.984809440559697
Ag 12.057262608008424 9.43388406179186 14.429472410205788
Ag 8.439603858785194 12.444682354453223 7.604597189557013
