49
Energy = -106.95224352 eV
Ag 9.293805159302524 16.392313891066483 10.685004829172756
Ag 8.320228584859928 13.776472866239793 11.585908454585361
Ag 9.742762190989916 15.394768317753794 13.406673400452414
Ag 8.863624791333722 12.890276475097371 14.626669808208883
Ag 7.67866474110008 11.176888393054302 12.613029871036685
Ag 8.684307393112123 11.39680497554348 9.95224090243457
Ag 11.449042022848504 12.139674246201936 9.729926880404292
Ag 11.332313866050542 16.296010804229436 8.76605618669388
Ag 9.498176065253219 14.085911862497069 8.945259816896623
Ag 12.048695199769266 17.01260182120219 11.535244979465467
Ag 8.716538176732662 13.481935170770306 17.469688264756215
Ag 11.19999666794451 14.455846448018388 11.25176610218297
Ag 10.645701339860974 14.674639560993235 15.915395494429344
Ag 9.716865453367213 10.070408800094443 14.367082331736162
Ag 13.490110220298208 15.954917128464839 6.9665355141426355
Ag 10.333589919523769 11.978687117443783 12.336469426308524
Ag 10.659727751185814 9.474496015302742 9.042570910184097
Ag 10.228214827560288 11.238251801632964 16.845435494179352
Ag 11.817110575110357 12.294543905342382 14.667178858609208
Ag 11.452615958654322 13.315079939506774 18.222175697391727
Ag 11.693859452688592 13.830315015164132 7.082326537210031
Ag 9.961345794654909 11.687705393562187 7.4027751649659
Ag 9.624802864687604 9.270929361034312 11.65386320459596
Ag 14.092845856663141 17.018532819578052 9.48986595085528
Ag 12.886961933846766 11.201001446604538 7.650372861923488
Ag 12.519136373399329 15.082626978430245 13.81252135202254
Ag 11.033244173002393 7.62761975807259 13.650106090917786
Ag 11.591193361442988 7.484941873336807 10.846136738796577
Ag 13.415367993989369 14.20066095144763 16.343930675059127
Ag 13.159065486943678 11.4250989962749 16.979685390776417
Ag 11.898116687774182 9.16602339589191 15.889704786749414
Ag 12.361407267128486 10.023143088017259 13.04582206512782
Ag 14.639394728731823 13.381710471578875 7.141451978002785
Ag 13.273439019967485 14.317877843636051 9.355651848326486
Ag 13.161356399027897 12.554408662947825 11.973770795949608
Ag 13.15825696563459 9.816967350204488 10.239294253896114
Ag 15.992744282755357 14.624335686144581 9.589955586152174
Ag 14.362917059676285 15.389359627929519 11.748473921745143
Ag 12.614404285468716 5.544828094976723 12.72614572782625
Ag 15.306797469257674 15.062328490974691 14.32552613397279
Ag 14.631515156866802 12.415231600255202 14.512108475787084
Ag 14.560003350506838 9.77061839475829 15.16600495321364
Ag 13.652433704696847 7.188058832909689 14.75544470504789
Ag 14.876370222133218 11.991328764652165 9.712330139195055
Ag 15.120939479146601 10.42718724379342 12.179184685413366
Ag 14.044693405966559 7.828370316524095 12.074340850766616
Ag 16.019722277879175 13.11837598116531 12.134498762826189
Ag 16.997477521903487 10.982246561077451 14.074091401848737
Ag 16.250061118626046 8.219227982576133 13.695631932129645
