13
Energy = -112.22894878 eV
Mo 9.637479379893222 9.49339545919567 9.790658487885194
Mo 8.610879304785364 10.75128837608618 11.69683884115996
Mo 8.704139508667703 7.62379749370249 11.603756733527502
Mo 9.600104018788334 10.841834967981713 7.333818253972431
Mo 9.68902655323877 7.741945444507548 7.678314812232206
Mo 10.662794600677612 11.78088817974668 8.72942775770454
Mo 10.763688021502615 6.984254553536135 8.979472510873832
Mo 8.103645075431523 11.719689134148465 9.51100577628847
Mo 7.993459777881552 7.158406866702054 9.9511745180971
Mo 12.311482549240695 9.458606453488121 9.809336796555623
Mo 12.101386323292047 9.41884580222266 7.9809562598324915
Mo 6.933810272751103 9.665190036514497 10.903336550363282
Mo 7.373214333473551 9.84696673216807 8.517012201507086
