16
Energy = -138.94462466 eV
Mo 8.040951149219243 10.101431733428731 12.53915570499555
Mo 9.41545150705383 10.693489095884766 8.953381745328285
Mo 6.196087300465988 9.30603954812472 7.517692076169113
Mo 11.255924058965642 6.633648905314194 11.178778272669216
Mo 7.355483981861523 10.041764058319142 10.206836494375791
Mo 11.803718432632913 12.095452162118423 9.319671293729
Mo 8.194070505179923 8.1289222829327 9.16731629175223
Mo 11.409254289928798 9.607579702124063 10.69097277728515
Mo 6.831468719891792 11.013649217512688 7.597240250289054
Mo 9.287464517043732 8.482043037107971 11.521572828524366
Mo 9.782488903170375 11.215304620685684 11.352154703412781
Mo 10.0038625626995 5.981319031347341 9.998218075789556
Mo 9.03375778102975 9.27455731596371 6.598664650368687
Mo 12.309902706947629 12.330138603718135 11.056680117610364
Mo 10.822323080133648 9.83226970428868 6.654784049614945
Mo 10.628869383857943 8.372144197741553 8.793850921142703
