19
Energy = -166.81029447 eV
Mo 12.201646920351978 11.217018236079173 11.841354310953493
Mo 12.275483805613906 7.278919332510715 9.423358142904336
Mo 12.089996586034147 8.531020444813498 11.520236005510043
Mo 11.64606419216023 9.67424415046339 9.391220038945221
Mo 9.959515793964721 11.671026772602321 10.335715142940874
Mo 10.551491332469304 11.435951018385346 6.298429782023016
Mo 10.488996382816477 6.418832550237805 10.689590367029169
Mo 10.708303082215892 10.6723868093392 12.912857759442437
Mo 10.903579289401108 12.448175375960783 7.758227405248835
Mo 10.094303439619873 7.783047549290961 12.603905405546623
Mo 9.780907345586899 7.567704675773862 8.551965225062355
Mo 9.352930878682548 10.105512899103429 8.179352620674711
Mo 8.277733352684498 11.15827134085191 11.625937797796105
Mo 9.316864144279782 8.996245328087696 10.717395786652649
Mo 7.362106750642093 11.455438568077506 7.1161791278945525
Mo 7.744588670622794 12.335823946226744 8.796920455520278
Mo 7.291404517157012 8.549285621601795 7.682345417085064
Mo 7.03231314334749 9.972048062001608 9.61214645378586
Mo 7.559349243300127 7.3935156299846865 9.559089513417863
