11
Energy = -93.10523808 eV
Mo 13.203293235521144 11.684047394336993 10.759080184005132
Mo 11.091762540206838 8.55040846005482 12.34974000405854
Mo 9.725322993337128 10.831064925680131 11.614770813063041
Mo 12.34976323257306 9.854432117869795 12.71429946007291
Mo 11.539420276189475 9.57843111667421 9.829878040109131
Mo 11.964526150996186 12.538121696079351 11.981078903421963
Mo 9.213254036901745 8.929074740434572 10.171820631667744
Mo 8.327588686233488 11.542118458716109 9.776995444604827
Mo 10.81760775163576 11.98265146638073 9.663100381480906
Mo 10.205935678864115 10.24673992716282 7.926676938745679
Mo 8.016397437522459 9.821513209112567 8.331059237455886
