12
Energy = -102.57131675 eV
Mo 7.757325301157252 7.3840899826649125 7.852451202387785
Mo 6.482732683637986 9.888139508059576 8.1878908471745
Mo 10.190473260875386 8.067133052794276 7.289943142841632
Mo 7.431581477303522 10.949785510353562 10.958157938736472
Mo 10.718425968261615 10.418756496790072 8.973933301228383
Mo 10.714650639413966 7.724371012230373 9.799006555857238
Mo 10.492520090089533 10.34908992586186 10.828281595365839
Mo 8.071726229256228 10.107533084959515 7.232104206071218
Mo 8.887121428923427 6.097437392387388 9.620164539524957
Mo 10.16695603626242 6.013647655746896 7.679320689610989
Mo 8.196588851712832 11.90253904426386 9.635572588031861
Mo 8.572624010650465 8.734098436909195 9.621341582828942
