16
Energy = -139.47497598 eV
Mo 13.403120828047014 10.544809171411005 12.432908519010352
Mo 10.985273810786843 11.269518199265601 12.118794741577867
Mo 9.097185277942067 12.929482132337307 11.256335608255966
Mo 12.237453022228571 8.789997646348976 12.552052983344879
Mo 9.78970887012939 9.475125047936118 12.713852282743272
Mo 8.112169152292124 11.740283432289726 12.34917654056548
Mo 12.85958023027409 10.067296099828763 10.121810271262378
Mo 8.973349878504214 10.097233039305456 10.374110041062695
Mo 8.060018392330248 12.146785257885858 8.476475275619926
Mo 8.491564985103281 8.243943584332875 8.683703121361235
Mo 11.797375248349766 9.293908946487925 7.656614948837806
Mo 6.882140638051493 10.731167034869527 8.769764987811552
Mo 10.822238329337473 11.304732921685991 9.438530429702704
Mo 9.53108380056557 10.044365696717396 7.596238867374759
Mo 11.013290005339428 8.539689829871902 10.210967291565906
Mo 10.547190279839011 7.448792289341756 7.972044149725005
