12
Energy = -102.678092 eV
Mo 7.146780113717098 8.420196058290365 5.204774365407244
Mo 6.319007574627528 9.965500079367407 5.654276189091274
Mo 9.30318493878271 7.545797528699899 7.2528906345750075
Mo 8.838157985386522 10.217926179666463 6.867099065096108
Mo 11.529488799799568 7.544618945843711 9.01865324095722
Mo 7.140704472302122 8.192226819168976 7.928091584695861
Mo 7.418633264871495 10.727826681612644 8.208692193978711
Mo 9.201898221715114 9.133731998737618 9.319143678246963
Mo 7.053959131388256 8.40046891799537 10.800361930537287
Mo 8.812141914470747 6.648395763643904 9.311231995166462
Mo 8.408707723043756 7.97208789926124 11.900194902808796
Mo 11.056294830976052 7.460182098793494 10.763549190519552
