10
Energy = -84.46520358 eV
Mo 11.788628125730682 9.033440561213292 10.358301969871377
Mo 11.346258988450888 10.88924020272805 8.383139238406724
Mo 11.399396392481258 8.63155560201856 8.157915516071501
Mo 10.443286342641358 10.858399439400037 10.465682782866882
Mo 9.333126528325192 8.388345348513901 9.962606378721262
Mo 6.903008037460036 9.670732800516095 10.144357569332374
Mo 8.96917663262577 9.913961602713766 8.33973136113842
Mo 7.859135562726946 7.444260931277155 7.836983570631913
Mo 6.513820413587994 9.269142494799071 7.94392082421587
Mo 6.956262975970013 7.413021016820208 9.919460788743693
