16
Energy = -138.36885498 eV
Mo 9.097199588740835 11.996487055941191 14.106126042937788
Mo 7.431412166457908 8.215524724686018 9.190686921789188
Mo 9.986434174517793 8.675159858330936 10.422231502184681
Mo 9.977460180499559 12.302685999682357 11.417761840748804
Mo 8.485274477736292 10.709200830497135 9.91804910967509
Mo 10.88633173668692 11.588723331646074 13.968325492513568
Mo 10.886145657164251 11.102545010282347 9.48377233893746
Mo 13.452113175571615 10.239671565387372 9.734135071437496
Mo 12.47896412467361 8.762783230263997 9.206105541600198
Mo 12.748156162832363 12.675386633271605 11.210113346815584
Mo 9.090442784224294 10.095866300408213 12.241621989215323
Mo 11.559665763459163 10.035049702457025 11.75867214309098
Mo 11.925184029756267 13.593483562465583 9.829147542725744
Mo 9.714255883626633 9.069979855056516 7.623390671316684
Mo 6.655408220757356 9.380772800605264 8.063744410802947
Mo 10.13725216895546 7.313605876132051 7.989033505648153
