17
Energy = -148.17239076 eV
Mo 13.010189847918442 9.150929053955695 11.45200560813231
Mo 8.827857799071065 11.095606621852657 12.507224292305569
Mo 12.288821571584652 10.249521857969741 9.482823741089025
Mo 11.318235408567558 12.40686167050811 8.003647864157383
Mo 9.831540342471124 11.678718235807636 10.251513965368074
Mo 10.3724974318954 9.299911019866759 11.17954370029582
Mo 7.322112456641769 11.511848897639588 10.859853967989466
Mo 12.98360837918814 8.116653434073086 8.882151940255225
Mo 8.26815701353133 12.595503537018988 8.129940213647242
Mo 7.709170362793303 9.155857780208216 11.555207587912104
Mo 12.23621989047376 7.196872586267586 10.862227435902167
Mo 10.511175989979108 10.777750966620134 7.496390139957453
Mo 10.417475599767531 8.134903472145796 9.069337714482934
Mo 9.079334356645111 6.7892459223757005 10.778021272279782
Mo 8.417159918284225 9.889802271630465 9.190601297796272
Mo 6.778986706044707 11.555031607273056 7.85469892938995
Mo 7.667214987783587 7.39713131380721 9.525497851382672
