17
Energy = -147.52755719 eV
Mo 8.33582951869488 10.141530480101773 5.2618603980664576
Mo 10.88425089644322 9.631110526221354 5.9178824289062595
Mo 9.446235605150317 11.222534539498938 7.629786084933406
Mo 11.074824419355625 7.8424286985567395 6.676864618854335
Mo 8.609626394996729 8.007420360016495 5.415009413260291
Mo 7.111511198152172 11.108036881945484 7.135284958205069
Mo 6.492723114712876 8.833522851795339 6.863869674156782
Mo 8.36367324946544 7.542402432116191 7.8543885529320105
Mo 6.200661904571074 7.689501957504279 9.453606248774006
Mo 7.6975124582077195 9.7119825674675 9.148487988489988
Mo 8.274114893260297 5.71734698855016 9.711004395576115
Mo 10.171109511798768 6.742298056869314 9.785748231621062
Mo 10.187427994761933 9.234849467737236 8.62229025558523
Mo 7.380569162711003 9.138801137884277 11.600391180740944
Mo 9.60569755266884 9.25942757692205 11.245160876597044
Mo 9.119307569036923 7.095939922426649 11.940408339539804
Mo 6.698525618889336 6.7344666172638235 11.391557416638657
