13
Energy = -111.35678847 eV
Mo 8.524122809737053 9.591948723409821 8.847376564699509
Mo 8.07015322414439 8.565398759705687 6.540223648646741
Mo 10.093727596545124 9.974655759287735 6.583393358765783
Mo 9.486648203559763 10.840202317400747 11.131207726551192
Mo 7.837212784581581 7.089525405429742 9.718564772993659
Mo 7.2222532579997925 6.433751773958575 7.985826049250907
Mo 9.70210581516135 7.427973591548333 7.635755791910436
Mo 10.653128057292344 8.591375505281038 9.968583713691483
Mo 5.879927964133655 8.86025417507888 8.659571642890036
Mo 6.310377617454994 9.615673656512387 10.283412146956515
Mo 11.724704649691004 8.87611471836783 7.412582953895217
Mo 10.989987882695937 10.629868836673046 9.146899096020276
Mo 8.836569893576952 9.010640785835703 11.640018625680659
