10
Energy = -84.16093234 eV
Mo 10.635660659922603 8.193657930263543 8.79692532409637
Mo 9.104621755622054 5.8129751454773855 8.56083907669248
Mo 9.378649606620524 10.24785336026085 7.499000982225544
Mo 9.46907016273496 8.084528777386154 6.841422016482021
Mo 9.120351092570576 9.627468436364046 9.707117260154666
Mo 8.818434745500836 6.663939635501483 10.244143453716317
Mo 6.856295711805202 8.456084872045462 9.986835602187032
Mo 6.959323883449881 9.358209849467396 6.354965603227461
Mo 7.124416380902988 7.4505009332654755 8.11493526560766
Mo 6.664733455847145 10.24352553928266 8.030356177594735
