15
Energy = -130.51829678 eV
Mo 8.624891664944549 11.436597614539338 7.648298178226321
Mo 9.635843404651306 11.997549755306899 10.382501232652519
Mo 7.13909169763154 10.990490402927406 8.635683484857099
Mo 11.02274409910811 11.788791313768362 9.117072200046408
Mo 11.033330140839146 9.473789354440296 7.170218901544196
Mo 10.492454360527558 7.755032665135886 7.399286562851865
Mo 7.808977057166572 8.562849101279067 7.320727333626643
Mo 7.3727636799301655 9.804685420425718 11.251134389790034
Mo 9.445910350484596 9.438652204214534 9.488466353929754
Mo 12.192200215070462 9.158511501036317 9.858911637076812
Mo 7.237856121918722 7.903416698366801 8.972823390885319
Mo 11.612689252803166 10.084657682735243 11.386910192982347
Mo 8.84689570238351 9.927487674341595 12.295865941803811
Mo 10.417636845957118 7.529387266478522 11.665889089239029
Mo 9.805281587559861 6.810381412894928 10.122952462153261
