17
Energy = -149.30060332 eV
Mo 12.394073362400784 8.549588510360156 9.305785677539351
Mo 11.462035994196844 7.278756561802731 8.416452408971283
Mo 11.012599791920385 10.191810775568726 7.317953677379033
Mo 11.106922408476567 11.191376986170933 8.887412021369535
Mo 10.715265014515643 9.390125718124455 11.387713551745296
Mo 10.132215003732957 7.575282323061417 11.41489914426763
Mo 8.869098989703243 7.09342809893643 7.00931929633409
Mo 9.18895509454057 8.991657516015545 9.131618265872445
Mo 8.966968678997585 6.414517188389356 9.014216358935352
Mo 8.479480911990308 11.66670661301533 8.095576065338717
Mo 8.15718801624361 9.430632616204864 6.790607869173669
Mo 8.442783649102202 11.40161684368255 10.129709913566527
Mo 7.9091087230229835 9.199397700105205 11.688613267802781
Mo 5.673423055853047 9.271336280199803 6.780510042345772
Mo 7.144448329129967 7.739497535571203 10.519306704943418
Mo 6.3017915804102715 7.562143182626988 7.637419209624459
Mo 6.712272359631089 9.762674152703624 9.138440074658076
