14
Energy = -119.31499226 eV
Mo 10.277195751823196 11.830023444935875 11.406513541032824
Mo 9.845427490418773 8.300968345382717 11.297524753274264
Mo 9.236204651545494 13.289432725174601 10.873799774118453
Mo 10.303893241282216 9.901345465586212 9.456746346101822
Mo 11.273792716589652 6.395283112427138 11.025459601113663
Mo 7.7324823252981 10.692175004410476 10.570436110124348
Mo 11.7565408593971 7.855151706625803 9.14748870579264
Mo 6.295123765819661 10.21739542705867 9.569748489291774
Mo 9.596537989986233 12.10127294320164 8.694661266936501
Mo 9.709049972720395 6.057379544540422 9.629825935539772
Mo 9.959286218736064 7.783822370402025 7.682224689006152
Mo 10.36559076233322 10.194933556698688 6.780937565736915
Mo 8.24568508207758 8.215741952692664 9.478729895106765
Mo 8.418129694188712 10.185796645793667 7.432208175246242
