10
Energy = -84.26761448 eV
Mo 10.88155230823748 8.49914138317046 10.102406833388574
Mo 7.887667243132602 7.314242029073804 10.689844842418482
Mo 8.532590751419352 9.090970298119965 8.809637552369551
Mo 11.145099646857224 9.166765475282725 8.398103063033975
Mo 6.196268939837837 8.929955751585993 7.424366478519309
Mo 6.324698615974924 8.170292804576652 10.343762636410405
Mo 8.313609497344743 10.410608362242519 6.6611068197809695
Mo 6.880543873138625 7.092483350423568 7.753811427160258
Mo 8.68859161948279 8.564882688700424 6.058580427381592
Mo 9.445766188597077 7.108839120641663 8.066833648615509
