12
Energy = -101.30557033 eV
Mo 6.709314630730769 10.232236917920686 8.50630989146236
Mo 9.48610856855533 11.370883592570445 9.583176036534725
Mo 8.001670170799075 9.629924453144397 10.463594404738048
Mo 6.8506665715775386 7.7730450831873945 8.450907949583595
Mo 7.5432819597177545 8.166532729219051 6.075216141068179
Mo 8.849756922596818 9.688668787418413 7.748439444081348
Mo 11.270191675662376 10.056640989981826 9.219994076617393
Mo 8.371852893381195 6.05867704922556 7.584066337320247
Mo 9.557685028599513 7.4000605052138875 6.226961946059161
Mo 10.41195318087749 9.265448779911074 11.038200755912326
Mo 9.628522449408706 7.746135794599564 9.061691843607209
Mo 7.916013320210882 7.1682674248711225 10.53878717309521
