15
Energy = -130.35490068 eV
Mo 8.287302830661114 12.04027758165652 9.087489758552122
Mo 8.52994711643693 9.666144483099128 11.37478577292957
Mo 6.558977927364521 7.566145618713223 7.484882053439796
Mo 7.445277528495998 7.16715374469285 10.377760855616135
Mo 8.721262172749672 10.75343502700041 6.468744584801844
Mo 12.089890834329145 9.154502366091702 9.458742746854952
Mo 9.916193377066659 11.23965949933351 9.31613026349332
Mo 10.18036919094193 8.757881399930998 7.846618062324188
Mo 9.098425841943248 6.844547581319969 11.322204188046362
Mo 8.01980887025307 9.29834902224045 8.828849266362056
Mo 8.002034123473464 7.769694501847439 6.249573731461556
Mo 9.20331006104802 6.762053369344289 8.481038976362028
Mo 10.406421422288483 9.319364616006755 11.584051625523111
Mo 6.891816655808651 10.577761995046256 6.844464896903856
Mo 11.460135498727539 7.348139201150579 9.845718799383171
