14
Energy = -120.70503438 eV
Mo 9.035358237215455 9.563758121296107 7.984459862512368
Mo 11.211833141664357 11.19899756108714 7.518056659891094
Mo 8.595346320880587 11.442282726873632 8.560316554656987
Mo 10.820516096120352 12.778056477577849 9.03394883036943
Mo 11.497152212027204 9.158344106010636 8.601095168657828
Mo 9.707118649163789 9.60906506140459 10.530732786050114
Mo 11.990809636276548 10.83637011922663 10.153609174009535
Mo 12.016287313380948 12.915550724142536 11.952253472934617
Mo 11.844216935928793 8.860812100470898 11.964700002407174
Mo 9.62158704857709 11.859444379356015 11.031655214794858
Mo 13.030441253807277 10.420938849162825 12.619636771493212
Mo 9.455550677907478 9.992074088740434 13.179005416106502
Mo 11.044228752238785 12.439742150042001 13.476656251052587
Mo 11.031099053192774 9.826108862990532 14.295419163444977
