18
Energy = -158.5234793 eV
Mo 12.346016236770813 10.690759933770977 9.864000376638216
Mo 12.205486341086727 8.231375477249152 11.222216576955407
Mo 11.542338993098847 9.679171449690863 12.35958316978863
Mo 11.802920953830204 8.710662542314802 7.967952138655168
Mo 10.574694236117715 9.492328959514401 6.5221582380438345
Mo 11.013309093127308 11.515741028501838 7.955641824156442
Mo 9.535631120821735 13.243094561081705 8.91410459971527
Mo 10.24596545741195 7.085158689089414 9.730761423688683
Mo 10.092536602707362 9.711502123349435 9.936999043889424
Mo 9.032586727457664 8.03163033755041 7.976233787678682
Mo 10.723219667648191 12.292958912211589 10.799242172454871
Mo 9.370150263645108 8.141599683509202 11.82804754139358
Mo 9.04739979091745 11.076892336899444 12.143475759322888
Mo 7.631114181715267 9.696041221611448 11.043012861160852
Mo 6.7172109775157445 8.287227482608595 8.949791729121955
Mo 8.512015229298045 10.69255284960312 8.398606971595123
Mo 7.920797978536282 12.304394269739218 10.136975187455464
Mo 7.544675364445376 6.970349225619246 10.154832355724656
