15
Energy = -129.89183201 eV
Mo 10.271738108435885 10.505104918723163 7.956127640026505
Mo 8.746989325040074 9.723188273770639 9.94022230536421
Mo 12.00152736801952 11.420492195669492 8.258181967148122
Mo 11.624330146653774 8.659563898789845 9.578718145330399
Mo 9.360923763443992 12.688183221453874 9.527625508510043
Mo 11.397478827724925 13.530500728142087 10.224065631757535
Mo 12.680299751130185 11.940834952454438 12.313829019681329
Mo 10.960221011363144 10.949421897511037 10.672158395358622
Mo 13.384592369035369 9.93665647605016 10.282516437421142
Mo 8.457354462639177 11.58413568112465 11.410931617079266
Mo 10.174350544805883 8.517669392002615 11.489374476388239
Mo 10.417620868215485 13.111769873726997 12.234712958717903
Mo 12.435587399544998 9.353213243458525 12.317153500396282
Mo 11.826022318234548 11.435607315387449 14.38614651702681
Mo 10.212046469800994 10.594740665823291 13.359318613882406
