16
Energy = -139.66184845 eV
Mo 8.775235731249612 11.03562706392997 13.20285046196055
Mo 10.587440879733153 10.791774355485106 13.132907205960665
Mo 7.097385509757839 10.43594933420376 9.946986493065056
Mo 7.920162343090268 11.540800271783054 8.406901822218039
Mo 9.685170357813522 8.349941306112994 6.185358753629844
Mo 9.153871762628315 9.037986940672253 11.43626869306579
Mo 9.917105922672528 10.316994904461252 6.430858274119005
Mo 7.4397256582109526 9.293424675026955 7.3463782796843695
Mo 9.333356133139409 9.19980763826583 8.794129571478429
Mo 8.41792077338452 6.679082154030038 8.250085030364462
Mo 11.692071329678694 8.499998791218918 8.050622826026574
Mo 7.363463640096584 7.5255333227156225 9.593203196262095
Mo 10.627903698509181 7.20932296967865 9.92623909153785
Mo 9.646400088376618 11.143008333278514 10.473514871807293
Mo 11.607041759846952 10.617230616740628 8.80021073277669
Mo 11.566040047339301 9.096173790814902 10.81003614942502
