11
Energy = -92.97627346 eV
Mo 9.955503569764092 12.679417617414156 10.716319984015804
Mo 11.217592820843775 10.198499045896858 10.687097294812697
Mo 12.154877752484861 12.548759992999422 10.093146555151527
Mo 11.729315653098253 11.372583540947641 8.213676841023688
Mo 9.976626163734375 12.770877442050907 8.429199632753262
Mo 10.715593094493514 8.054979735774516 9.183421935773374
Mo 10.643478708121462 7.715999359556875 11.411079269159467
Mo 8.913604962791567 10.023812178152918 11.712530465438466
Mo 9.36110540899229 10.385001276013966 9.263536370758382
Mo 8.489377020347504 7.950091335444612 9.766345605516621
Mo 8.393425167494282 7.850478797914221 12.07414636776255
