15
Energy = -130.70383169 eV
Mo 9.71358347408917 15.057517257918677 12.8215721052138
Mo 10.653165583713173 9.510786353605996 13.18749348833915
Mo 11.092215448042984 12.616573388711103 12.830918175154409
Mo 8.960238344852327 11.477366250199054 11.890714630761526
Mo 13.75413086223647 10.728495874936275 12.844157784088079
Mo 11.38713153929713 15.537912585668472 12.39627126059393
Mo 9.830669946560368 8.817000424899753 11.668063040739474
Mo 12.746581789359055 8.223764622177718 11.43551789130705
Mo 10.58287469919874 13.324588828436484 10.60531693614879
Mo 14.443159633292698 10.627194941981683 11.103623683640796
Mo 9.40955275950238 11.269423300347329 9.85280455811091
Mo 12.368001912717208 8.72967367158474 9.723754908632777
Mo 13.208614571783809 13.202046384361878 11.685414848907318
Mo 11.678149307400954 10.911051458849945 11.072124431350597
Mo 12.729243045159196 12.686652093212102 9.595595952917067
