13
Energy = -111.92340757 eV
Mo 7.977945034599533 11.714101289288553 8.80607055813862
Mo 6.91992595708871 9.403529685186626 9.019501475974135
Mo 7.099791240736162 6.882683879687685 9.131186333603086
Mo 7.796700368888375 9.940354325223938 6.66754112949344
Mo 9.193057668511791 8.219466870374422 8.061466912184018
Mo 9.330624958434669 6.923318249433052 10.364365155624286
Mo 9.92282171317708 11.792429137952738 9.32956926996235
Mo 9.000567456551714 9.548728252497739 10.31493353566414
Mo 7.061117115263963 7.749627339179338 11.076568154801544
Mo 9.660538560668986 10.700138551229271 6.78161987622572
Mo 11.12068859874888 9.646385052097909 8.587660602837152
Mo 11.393811389058115 8.368296468806731 10.753628744425672
Mo 11.483428580472513 7.071959470142244 9.066906679965458
