11
Energy = -92.66330834 eV
Mo 8.751278116141549 9.132976271257755 5.559709529113335
Mo 5.17440605294994 7.328902341306318 7.301782886614402
Mo 7.431800583013739 6.758738027727583 6.918366078408814
Mo 9.76039766330577 7.539576176504592 7.675723908048885
Mo 10.48036677753649 9.606352500020057 5.823556282104574
Mo 9.137754091877342 9.429203948158179 8.351616090440706
Mo 6.65746847226175 9.107049746818818 7.758520770697852
Mo 8.339133995061209 5.706344291483682 8.961786795146809
Mo 6.2506214942527265 6.963300498234679 9.317156356136351
Mo 8.902641907700886 7.489178093924528 10.29106500238648
Mo 7.234343631244448 9.058590889910098 10.160929086247505
