14
Energy = -120.84178941 eV
Mo 8.828309969017695 9.266123916698225 8.168107281231892
Mo 11.79694781811788 8.996936579140753 7.917408405037846
Mo 6.281819378530465 9.13008598420073 8.76619880958746
Mo 10.793450854480232 11.191967478524036 8.820312425230014
Mo 7.725681333336304 11.557347300452367 8.654226788745792
Mo 10.313886859852257 6.839277546468621 7.977019488085764
Mo 8.052244591901296 6.65523058913734 8.981698061815456
Mo 8.885493653264756 10.771320949456575 10.5656553220347
Mo 11.651464761985117 10.556015850446919 10.544213969687384
Mo 6.072030021497639 10.955215321311373 9.957805366603708
Mo 10.180708346464586 8.491861311568114 10.048748688166048
Mo 7.5683909354291385 8.574936523608725 10.667472868086373
Mo 10.511862852767331 8.75019799301246 6.302397213435007
Mo 9.29258462335543 6.21835865903794 10.583611309188358
