13
Energy = -111.90434053 eV
Mo 8.566815807691068 6.788585458469223 10.808314549237059
Mo 10.479947398757712 6.240886249031914 8.596499536332917
Mo 9.635983881874637 8.3493560262181 10.440582893617663
Mo 7.8024531857633574 6.562552712596146 8.13338638109756
Mo 7.336652754802515 8.677035934423891 9.367321404983196
Mo 10.236179212338609 5.991036123901357 6.770807668176145
Mo 8.387056872121397 11.04232409457074 8.56077326736017
Mo 9.328715835668607 8.569898843036894 7.582467155949903
Mo 8.368260772907023 7.625294447035547 5.66410376589038
Mo 5.359644847903709 7.888893358240179 7.79852056736522
Mo 6.539475520596051 11.28662298921488 8.335173362829991
Mo 6.9621479487846365 9.347933464988413 6.759483692384448
Mo 6.083492031420636 6.717479598310094 6.237133834326666
