11
Energy = -93.60801297 eV
Mo 10.398832223393065 10.910593602518489 9.85696632859796
Mo 10.672430149936858 8.437741435775628 10.153488052620979
Mo 6.6012171095358365 6.867503045245067 9.32195241827327
Mo 7.39797117918808 9.212552572295456 8.05696154812556
Mo 9.343630941514519 7.423378230752068 8.501068476026889
Mo 9.516442370183933 11.246396669634214 7.636285131915591
Mo 11.264780609232185 9.629901896332319 8.030669116133106
Mo 7.902003287393845 6.172513907291162 10.426638603070497
Mo 7.926733405900809 10.977465537061848 9.522092600699432
Mo 8.385562856750488 8.83826545578817 10.520147818472578
Mo 9.281779866970384 8.975071647305716 6.665113906064267
