15
Energy = -129.00137084 eV
Mo 7.64106377978148 8.166350136881423 5.052151950173965
Mo 7.474662756679216 9.978612055209089 5.399961956028944
Mo 9.60837888208072 9.187533016501432 6.8925088918117945
Mo 7.198304773682425 8.406873817719653 7.7549457504528485
Mo 9.414850749138816 6.628216309353116 6.665918944785592
Mo 6.909135404395959 5.835622587482886 7.379902975195022
Mo 7.905256895886946 11.022109635228029 7.914484479745911
Mo 11.129954922862245 7.818705957283143 8.668127443349697
Mo 9.451379112441565 5.60582499621016 8.421167518110996
Mo 6.967436642627125 6.121941769056024 9.389996128387446
Mo 9.23210308372551 9.783939395452773 9.245061435574433
Mo 7.7229895835003735 8.37392472698477 10.601195637888036
Mo 5.3096640812289015 8.195904927884822 9.058922763295802
Mo 6.359019965452378 10.064816772488491 9.748360574168931
Mo 10.155891955190148 7.289716484938295 10.287386139704545
