13
Energy = -112.04759598 eV
Mo 11.888009971716784 9.58729854095205 8.831282854834935
Mo 10.177823047274245 10.679986410598016 6.890347808016303
Mo 11.349099255787893 8.272142731266062 7.51289760874277
Mo 9.660161392978669 11.394963827098193 9.015498923209751
Mo 10.901558345340746 7.484780500171176 10.328008866947256
Mo 8.196731460901482 9.479906309301857 6.54135774095831
Mo 8.585529310106928 6.8243293116464345 12.25268453535902
Mo 9.10750546541924 8.914260273084174 8.826221629045786
Mo 6.310645452864816 9.095747269029928 8.868277092176172
Mo 7.672034891663436 11.272081291540795 7.809352966385326
Mo 10.085307495096732 8.954277040310222 11.251724052411587
Mo 7.7931909596767275 7.143777668504536 10.674104671658194
Mo 7.106224919111147 10.040203913339846 10.290747870922674
