17
Energy = -148.6723479 eV
Mo 11.110518728372945 8.729549529560167 9.904774386775614
Mo 11.323397272597337 9.40908707898061 7.314023563238996
Mo 9.964938923540752 6.2887397806051 10.071750480489639
Mo 10.792591770026538 6.568627747685331 8.32434673752844
Mo 9.197577072566045 8.702118950863063 11.789296708837485
Mo 9.19439653794892 7.809577674736043 6.045114850923947
Mo 10.855129164402909 10.969128806282919 8.434360971068838
Mo 7.052442331656765 7.08848427788578 10.490672329064518
Mo 8.809517531029249 8.822045881712226 8.824673377433076
Mo 9.56545131759554 10.536718942551742 11.167020342705687
Mo 8.109451547894707 6.463957831977749 8.110736924882065
Mo 5.976134697290484 7.841100311701682 9.01317066354032
Mo 7.293315328160315 8.283002914732664 6.308040509618036
Mo 7.064571423536435 9.774378919474977 10.535255470037509
Mo 8.90393364468488 10.406664011858354 6.679138623283117
Mo 7.9742533899031 11.703999241804116 8.859822247467598
Mo 6.571257081685797 10.65452074895645 8.019553741452919
