17
Energy = -149.4077319 eV
Mo 8.40574384514714 11.228734800553415 11.859224249503729
Mo 6.795129301745798 8.712491835514863 12.068920642235584
Mo 9.433196893394982 9.486180010752221 12.35500065485027
Mo 10.374154739630557 11.121690543712146 10.3567131242769
Mo 9.045399507403204 11.834274368010536 8.492964872616204
Mo 5.906538531391625 8.191013129327782 9.166283846642948
Mo 7.749952978221562 7.348751910575468 11.253500397266126
Mo 7.982105279179393 9.806490368441429 9.745166267619735
Mo 11.190862336817181 11.279038877698909 7.712180426494708
Mo 10.076002193451105 8.451162619709002 9.987691162122701
Mo 9.413779187601818 9.43748728043925 7.62870933595386
Mo 6.654675203957834 8.779227267007153 7.556184448895227
Mo 11.967804482548612 9.573362660271 8.951494959843975
Mo 8.49945866980433 6.83473958265632 8.137109338400519
Mo 11.33899644672765 8.591914357789182 6.050856740616274
Mo 11.369324820388572 7.342332608354387 7.465349388294445
Mo 8.73604139006052 7.0365823740301625 6.2790887480443915
