14
Energy = -121.05615663 eV
Mo 9.464868146420725 9.314640255826507 8.693771772490468
Mo 11.772434361041016 8.980573378779154 9.309195076020831
Mo 6.23643717657561 9.489854833322106 8.455503869882833
Mo 10.561399956152565 11.557334950339882 9.35368584847133
Mo 8.03419982182005 11.212378070177687 9.859395677843613
Mo 10.079109536508785 6.679304215360895 8.908302285194448
Mo 7.386908834933681 7.314712271346704 8.856461738239734
Mo 9.515970991191542 11.070658713888625 11.853229633897646
Mo 11.533033015779132 10.871773085369005 11.345454385764942
Mo 10.612160929047914 8.383375898692108 11.112113859091783
Mo 8.076480219873675 9.051082225521698 10.709699485730667
Mo 7.49644838680565 10.567424555131849 7.25139471137219
Mo 10.947880761274483 7.384178138241581 7.278570897609195
Mo 8.2346998625753 8.07474140800233 6.965252758390712
