12
Energy = -102.66084278 eV
Mo 11.237731348461764 10.767592099031251 8.231414371686212
Mo 6.408838828447216 9.70914463194401 9.018444031669125
Mo 7.155872556981323 7.7975732525997055 10.054622968172469
Mo 10.256537187967043 9.231816946461471 6.82892453853571
Mo 11.68879600920077 8.79119117074983 9.316799993058103
Mo 9.440158236762137 7.466330871231397 8.680841083743944
Mo 7.455547049791391 8.618377894690495 7.285573467049803
Mo 9.77243832438352 7.903952279254841 11.309748259764056
Mo 9.051905503648507 9.698895568377582 9.300802087854063
Mo 7.934489250526683 9.239287960090977 11.668206764872613
Mo 8.450499210672671 10.6543031520967 6.894083850824111
Mo 10.919166493156578 9.89351417347174 11.182518582769793
