11
Energy = -93.12480721 eV
Mo 6.29126600413755 11.458667153397741 8.650299978559195
Mo 8.917854070708088 10.145095527230316 7.885761636841713
Mo 9.126656022564903 11.982186790582178 9.20891594244941
Mo 11.233253681253418 10.595678320772913 9.731529884700887
Mo 6.105428439620221 9.695853437807571 8.712388838162415
Mo 10.987207214631542 8.747022579928002 8.403687450185013
Mo 8.371623778414047 10.325442314884434 10.536905258731796
Mo 8.707111081018015 8.190722970671896 9.331287539208034
Mo 10.427393957868677 8.917047427738666 11.05294919205747
Mo 10.988193486359602 6.368215533413886 9.949628460407887
Mo 12.528515773491117 7.31967765579523 10.21673025232097
