10
Energy = -84.4779254 eV
Mo 9.834644482467649 8.466631185300917 8.546639978048407
Mo 8.675459874229041 8.761836553920968 6.273251737518695
Mo 11.31391927013066 7.8828130523960285 10.568783694330321
Mo 9.556404057551607 9.470080994203833 11.96721384216817
Mo 9.130114386781901 7.45524216638934 11.009792632372408
Mo 11.044455221198707 10.12642500951961 10.383957151642614
Mo 6.917437817758935 10.348976610185964 7.670659300860652
Mo 7.1871107786246 8.105863522809946 7.857656685880226
Mo 9.1012982291353 10.776992120764177 7.228655762890514
Mo 8.39788466437356 9.766876763833615 9.694500118524088
