11
Energy = -93.18290085 eV
Mo 7.412264722254291 11.173022310278565 7.439465666433493
Mo 8.370166570466134 10.488847982570999 6.0900414443491675
Mo 7.610700177821399 8.125138834623726 7.712141088362465
Mo 8.330101576378619 9.658207906027725 9.669121141646803
Mo 7.296249531007421 6.98336329925695 10.27303422828045
Mo 9.564190156377599 8.187477726520312 7.483830749151019
Mo 10.187691079799947 10.693866777465535 8.541679505106098
Mo 9.155562945469473 8.303892110472743 11.431776402011709
Mo 10.835317827298162 10.462261219019794 10.579291425244234
Mo 8.910164900127608 6.222428227050282 9.49523525774418
Mo 10.82548394499587 8.28162805685494 9.829320602884438
