15
Energy = -128.31493001 eV
Mo 12.351464810731198 7.711731331493591 7.586012884359172
Mo 10.243437975974222 8.484598442036786 11.205549402575
Mo 10.947479851650941 11.972254254495025 12.676742258934766
Mo 12.503067760836927 8.941236349793511 8.759450834267339
Mo 8.748829657669866 10.291713231845698 12.663299633295706
Mo 11.715027307122728 10.694195437556848 10.742988759992581
Mo 13.670183854034542 13.172441027754363 12.50959569266423
Mo 9.706547735824598 10.416475996584076 9.02536443249725
Mo 13.569945510361082 11.34964334620804 12.877814460891914
Mo 10.967078660478702 9.743367469045873 13.26185142432233
Mo 13.52313325592839 12.09638031027722 10.064227194343852
Mo 11.41915455254517 12.459086045891087 8.613583819417295
Mo 8.257078930472323 9.20034043654818 10.666556727470269
Mo 11.496493613354174 13.572181902267188 10.376958448586986
Mo 9.315851449713328 11.965923570010393 10.512680329690923
