19
Energy = -167.41497723 eV
Mo 9.4569036543427 7.6780285392407235 12.354825446442806
Mo 10.895857469328128 6.616400296547398 10.094136800018283
Mo 12.358320526087974 8.745839243077278 11.66982337928805
Mo 10.502054346543385 7.172813319580753 8.242086291656236
Mo 10.577686368978153 10.972271255432437 12.164165258965182
Mo 8.180904647696432 7.3488020462486086 9.723566373887666
Mo 12.80712635251321 8.720099537706043 9.868652048609226
Mo 8.157948071301934 8.974757451808994 12.201126321147896
Mo 10.112315096355234 9.178866409598433 10.156186435485266
Mo 6.142958860299039 9.045891042665682 9.865534647415583
Mo 11.010030143764345 11.753265959138043 10.536249693322324
Mo 8.233171462038804 11.059520487501434 10.111956754931699
Mo 8.485505398657544 9.057588943901793 8.138195322517134
Mo 6.009269881938111 8.545535330415643 7.942718981337514
Mo 11.21232549089306 10.11177236994261 7.810007330692121
Mo 6.902018389121657 11.249578378029279 8.571026218067582
Mo 9.884728263551061 11.514059673675943 7.821854201120828
Mo 9.469043351850523 9.817973882376885 5.4677643511947
Mo 7.811976637326635 10.410786905040107 5.843199988591161
