18
Energy = -156.99820447 eV
Mo 13.097661711877654 7.264095241461328 8.579382102743342
Mo 12.963922568923106 9.59436659832462 10.437892938240962
Mo 11.352344787694719 8.409315764942928 10.579204579167703
Mo 7.6661500188756175 8.688994170826575 12.585448221417737
Mo 11.163591047009493 11.310617790581661 11.085985334293147
Mo 10.208921846005067 9.796057052961638 12.680437574080784
Mo 10.31761342834685 7.863749312627553 7.956389773595526
Mo 13.173087687416425 8.764268774833472 7.529570604832377
Mo 8.948838102791814 9.62706774614952 10.111032489413605
Mo 6.559508342629687 9.587369386952293 11.401957174899847
Mo 10.540500714440766 8.786023910420305 6.268129415266501
Mo 11.0557638563958 10.4286053035745 8.527521964999377
Mo 8.578765250583578 11.337968143540325 11.975441199530582
Mo 10.729454137878621 12.54864518685131 13.491557209453472
Mo 8.85444518405817 10.226390118362556 7.7081427825760995
Mo 7.300862929705433 11.627735980332755 9.292038052223951
Mo 9.183746997185512 12.341353517265844 9.561064888361592
Mo 10.244180133903532 13.672070213712482 12.124263707385719
