15
Energy = -129.51074915 eV
Mo 9.130969888232558 8.685789004624962 10.9776189537464
Mo 9.275136659172011 10.923537829847126 10.202377824517063
Mo 6.950898178909451 10.014973665396605 9.48090818438862
Mo 7.1408183075333245 7.605298341056232 10.258778146890485
Mo 9.748400245745373 6.06586956828391 9.822545000782155
Mo 9.167250353815946 8.62927435503703 8.55272318007376
Mo 9.228028405619044 10.965326565512655 7.8535741471303036
Mo 7.8895948752130005 5.698074803613865 6.421529438883107
Mo 8.309141358893674 8.127664079890176 5.154536194822983
Mo 7.24405078158029 9.995230485697329 6.9673728611462575
Mo 7.043301413178562 7.583431888455185 7.727383377464912
Mo 8.146709721582939 5.259891766012356 9.12353940970657
Mo 9.776872185352333 6.55691490006401 7.110803448292676
Mo 9.89658459503211 8.99935710076092 5.771404209569719
Mo 5.189456593920159 9.026579209527998 8.712119186365756
