17
Energy = -148.0121083 eV
Mo 10.070736773466647 9.411060700639535 7.579899022669235
Mo 10.400527151043235 7.060868210743685 9.151847786811512
Mo 7.363493937791628 9.310468223615848 7.354352510086556
Mo 9.296344343801175 6.802809609156311 6.773706825741277
Mo 6.28128119886802 6.820441450424475 6.6650925201481295
Mo 8.971318514205779 11.332261956104318 8.680363287233474
Mo 9.845850589872612 9.047625921290681 10.19247790344071
Mo 5.1666850701701055 8.803377673341217 8.467548635140366
Mo 8.429050821140315 5.3255953483764795 7.636215271592415
Mo 5.642236495009069 6.024093928301218 8.278329576846838
Mo 12.094765903658896 9.154947545940583 8.637745154792281
Mo 5.818171581083975 7.95740489300795 10.318054756782773
Mo 10.22570261401893 11.684582896096254 10.71640426300682
Mo 11.582698646329963 11.426824032520079 8.347378420163496
Mo 7.273658358929435 10.031854456929091 9.71799270967318
Mo 11.97678918747161 10.587162445660086 10.768017901182384
Mo 7.880076556865292 7.5380084515787305 9.03396119841509
