12
Energy = -102.13809697 eV
Mo 11.178662141375197 9.455452861227661 9.762384527440851
Mo 6.726714699634319 8.449969572412785 8.143004161573085
Mo 7.723526327838243 11.029625011521626 8.346378598112816
Mo 8.22733814537496 6.687607432414317 9.67576158453641
Mo 8.9952452213167 7.335905077680151 7.136692129734088
Mo 9.67807668949362 11.21778745567834 8.229695493423286
Mo 10.18192080181031 6.875820218434146 9.559061382610375
Mo 11.11761116055799 8.870345343682144 7.868171521360191
Mo 9.13004301653031 8.645995477507375 11.358068121926156
Mo 8.91020760741082 10.569479362101346 10.76869370974031
Mo 6.787782777688277 9.035095137041312 10.03730550337568
Mo 8.775415511276044 9.259461150606064 6.547327216012883
