10
Energy = -83.35149418 eV
Mo 8.694166872225745 12.460534515708137 12.93164538993667
Mo 7.875952192267673 11.449620598112464 11.74225152455852
Mo 9.402684980300778 11.26758363692627 8.873492843550354
Mo 10.482479265324333 11.272664746316956 11.166523066168466
Mo 10.97940516617475 11.332048607821772 7.519282143683734
Mo 11.936338641107826 11.964115206575322 9.448317904943186
Mo 9.690255336743649 9.067868180074383 10.529776089100784
Mo 11.457114348396505 9.343051234756071 9.334745992639863
Mo 12.23624260454726 9.184537408040862 11.970448302349856
Mo 11.81308151145697 7.5125668536648185 11.286826221139973
