16
Energy = -139.96356968 eV
Mo 10.204036444138914 11.137261376220971 8.313867140758415
Mo 10.891722541300544 9.574132116620229 10.570358530799636
Mo 11.330311269320953 9.558335847938798 7.975547128641128
Mo 8.423389914566453 10.503564558729222 6.395705382692915
Mo 8.700877761107616 10.465629078342987 10.548940602103096
Mo 10.822930348483203 7.473934997714368 10.00696418917615
Mo 7.370575956280461 11.100643154506674 7.808285739362641
Mo 9.532695152523969 7.904508430261688 5.995758498830483
Mo 10.329422321203335 6.850041311100897 7.315865188743154
Mo 8.73139216119127 8.740868131263507 8.702244670603623
Mo 6.274095477003862 9.426448912433633 9.977214467354358
Mo 8.665309704982091 6.555354401485292 10.170918490324457
Mo 8.441294664838933 8.296462957024845 11.601589231756144
Mo 6.52245090504753 8.181323074522885 7.136943572936838
Mo 7.397728965514454 6.5641280339050665 7.413208787254
Mo 6.230760333223499 7.534095195688879 9.931606271925272
