13
Energy = -111.32153178 eV
Mo 8.54827769512986 11.627814182063316 7.962950139440003
Mo 11.212522263315583 11.223425760974287 8.91795215687876
Mo 7.443357879862611 10.246138976306137 7.5046411344631245
Mo 13.345104948081808 10.457222129887928 9.640771695746148
Mo 9.945962484657016 9.30682452121513 8.101951883620611
Mo 6.678518482727149 10.790065212620675 10.281497923662041
Mo 11.751479374193039 9.382247779526113 11.148967918979586
Mo 9.536757627750138 10.185662305456136 10.446890516324894
Mo 7.866731590694004 8.129868462789952 9.779990457105637
Mo 6.907570586112312 9.815513355472918 11.792839870386109
Mo 12.59247907524178 8.813743545786306 8.545612283162361
Mo 10.728835247600985 7.716455732500672 9.860984289502769
Mo 8.874407908250092 7.8116005187822966 11.534505942609545
