12
Energy = -101.40328708 eV
Mo 7.211599539199349 9.335644348111156 7.684457405562925
Mo 6.136547085017481 9.871906132320474 9.029343255035037
Mo 8.744834275670643 11.300249805674456 9.309942034575997
Mo 10.285372719620577 9.181523847455995 8.08795013253185
Mo 7.395329493041239 9.95619023158327 11.54080245307322
Mo 8.546557499057291 8.703088737191706 10.157871387215737
Mo 11.156949340579551 10.970363968596837 9.147268928322383
Mo 10.974318308526131 8.782908158248702 10.75931982026371
Mo 12.165644387408618 8.223804899773134 8.883408581223318
Mo 9.550103678974189 10.974031979318033 11.347393772436124
Mo 12.586778037810188 10.97713828778763 11.722733351624877
Mo 13.581360987064343 10.048743703192459 10.563232313946832
