12
Energy = -94.36894655 eV
Mo 7.673006027798245 7.658961092489604 6.427148259667661
Mo 7.632132589777205 7.653609114570792 8.881189175005813
Mo 7.714458246602768 7.691094942307474 11.342138678917769
Mo 10.056719474970604 7.697288432581648 6.437987466832694
Mo 10.151091603043382 7.655117115341395 8.893945821815475
Mo 10.100199152857634 7.666219997771457 11.346899141032884
Mo 7.690190249951488 10.057496128513169 6.451861659821617
Mo 7.643077735791393 10.160975563497729 8.90063000250381
Mo 7.669331084911517 10.090554673720959 11.345075766648993
Mo 10.104642814042712 10.09723098058146 6.437014238127787
Mo 10.132638914512281 10.155825915296852 8.872966611565737
Mo 10.085416105740507 10.068530043327076 11.316047160658448
