17
Energy = -149.8602074 eV
Mo 7.8517418486097155 8.578973814369633 11.754761526494411
Mo 10.732470221055387 8.505946103708062 10.64615055427762
Mo 9.024176813481446 6.214847245927477 9.853858499376486
Mo 6.3635217300278635 9.752053891642865 10.415057681965685
Mo 8.796243819575652 10.396149005325173 11.214867805402912
Mo 6.111452398949957 7.025596706300164 9.976925030739329
Mo 10.991657279575575 9.762314836832664 9.243090980431008
Mo 5.7825075059372875 7.913863235392733 8.364343557516385
Mo 8.374140695052585 8.198446886833743 6.531513201273464
Mo 11.102467204223442 8.15607735361932 5.349086177821358
Mo 10.327633918517414 7.522528322500607 7.879761104257836
Mo 6.778847268843835 10.64326884569698 7.517619567651064
Mo 9.495162874704159 10.028731173948248 6.914766677470664
Mo 8.373691603708563 8.80715522458636 9.055477176431822
Mo 12.142343543521454 9.229594301411545 6.413681837786393
Mo 8.108688366493032 5.911218310285082 8.205962817937856
Mo 7.8021590075401335 11.512140841436379 8.821981902983058
