15
Energy = -129.04323345 eV
Mo 6.730642598126658 8.171883168205062 6.572783301270612
Mo 5.461844421997265 9.811750287057231 7.716109802087669
Mo 10.756449903939995 7.763442235065595 9.72830171779769
Mo 7.429130102378504 6.101626497976989 8.439666456129897
Mo 8.89017073660655 7.268185737675153 10.844233018150213
Mo 7.105067876705359 8.665013029375976 9.242532116447762
Mo 8.972196059460542 9.9420719229441 9.475862577709165
Mo 8.566150669820843 9.21933628208376 5.547351574043592
Mo 10.691335430390161 5.411380379147513 9.924321874502697
Mo 9.157664854162336 8.236845141133065 7.712859798280997
Mo 9.004852583361776 11.197816816592962 7.166196414407984
Mo 9.683401678672917 5.744534991441653 7.79685796735108
Mo 7.157992392850303 11.49418145622 8.528336314015588
Mo 6.869081599741471 10.943350683552717 6.108280120930777
Mo 8.44969851767111 4.954260797414303 10.121986372760489
