18
Energy = -157.29204688 eV
Mo 11.309923372547283 14.246726866067192 9.046256509132832
Mo 11.387613320192218 8.900474226961688 13.28648435144403
Mo 9.917656827773852 7.905601052333612 7.894186869804762
Mo 10.8472841577764 11.065674445311776 14.935979658856418
Mo 10.522707136712175 12.21491603964018 12.274472489887524
Mo 12.036377231985814 10.69888147724019 11.375600703022075
Mo 10.605298649024526 8.485294988506562 10.680183708154656
Mo 9.759296063070783 13.597910985199519 10.232082369903756
Mo 12.458894484405183 13.415846212982023 11.050812064968875
Mo 12.38798669804804 11.657540158585014 14.161707664866743
Mo 11.595478531111931 9.641659864219786 8.628486522328693
Mo 10.649836728069532 11.795319643479221 8.215079760324222
Mo 9.557434344867906 9.577666612931905 12.775112992657357
Mo 13.008616458548708 12.00776969360712 9.469675769302123
Mo 8.982466895829106 9.737030732438976 7.481797690578768
Mo 9.637455152791954 10.847269045284406 10.14598937952022
Mo 8.005387132704879 8.922850339761622 9.652874532396128
Mo 8.919836064347852 7.002213058766411 10.12617077411057
