17
Energy = -149.007246 eV
Mo 7.315719476083712 11.762309339758813 11.625573390733166
Mo 10.992928442324967 10.844444726576336 6.933054621347378
Mo 8.612607716732901 7.646554816932402 10.141005915938194
Mo 11.72035533560816 11.343572888619866 11.543342657056932
Mo 11.658868198367006 8.15312167224277 11.567491002832401
Mo 8.79555987372073 11.37198918451644 6.776781378598438
Mo 11.349541267906668 10.677355494071776 13.180487661550197
Mo 10.661873346128113 12.15245132293032 8.779059165508286
Mo 11.06602963458897 7.006404072518118 8.574129139214172
Mo 10.391844293196023 7.9614055187822075 12.910104723602279
Mo 8.426766666802589 11.168432447363866 9.158723257570262
Mo 9.292967797343879 9.794848966107262 11.38802738751651
Mo 10.745069462692546 9.709169183340812 9.393357825162038
Mo 9.001059103765664 9.098971308420891 7.642505278428553
Mo 7.176163786257405 8.893118943197063 9.739071361694993
Mo 11.479626427204757 7.957380857029342 7.10388807039422
Mo 8.99579358641412 12.525941401675734 11.530514171329079
