13
Energy = -109.36460216 eV
Mo 11.404630838766897 8.900029576615525 10.505332538642833
Mo 11.081932769102815 9.873738975678888 7.959561381493345
Mo 11.063089134081203 7.634519912136898 8.508513090702786
Mo 10.093691510986394 11.044109665263647 9.859616137189102
Mo 9.560163701846788 7.451348088943073 10.953477585921942
Mo 8.933720815294528 9.623500854051464 11.456204558663615
Mo 8.321225939460438 6.844107253633604 8.447869234334686
Mo 7.260393909652123 7.719453025545001 10.412751598383556
Mo 7.274948304932315 10.2450351242112 9.78876086445041
Mo 9.512498482107599 8.002468614671793 6.7263003232345016
Mo 8.264112757215948 12.159814378264214 8.817148652531884
Mo 8.799320220679837 10.438660941363354 7.302798638932114
Mo 7.140885137751616 8.725953775926088 7.870669054557674
