10
Energy = -83.98253433 eV
Mo 8.044357538812166 11.258412822780935 8.196485349033699
Mo 12.666504713130752 9.5532508984184 10.043581033431728
Mo 9.470414180255885 7.4798611298658 8.571591988111688
Mo 7.445214372002711 9.675602175179938 9.066565514328623
Mo 10.510098877780507 11.59486108492689 9.829228615666217
Mo 10.16869389296054 9.162730469876081 8.436486625860256
Mo 8.486580534336914 11.604328005484103 10.770308567634984
Mo 11.552666013943773 8.16538725468712 10.712548131149779
Mo 9.172426430366471 9.386456270804395 11.145075521677727
Mo 11.040711462742744 10.67677790430858 11.78579666943776
