15
Energy = -130.36870064 eV
Mo 6.448062471216416 8.56300239071117 7.104433985282036
Mo 8.559343598633008 7.8766440449504085 6.004984048071166
Mo 10.750224154342014 7.869838771315664 7.186616377478214
Mo 10.005793698803634 6.256404544282064 9.325414515064454
Mo 9.260788987841913 10.985940208642647 9.810852569563872
Mo 8.52574933392273 6.648329583833862 10.604888858834636
Mo 11.026587478229246 9.907297258152857 8.154907202588788
Mo 8.6200066193918 8.626536844133213 8.6676525704704
Mo 9.275640798523487 10.025723542582641 6.472093557190734
Mo 6.295659186526845 7.327903338562489 9.144839790397187
Mo 10.656169015830907 8.653766506661114 10.308797236831332
Mo 6.486944310249706 10.079069236792359 9.615067386552887
Mo 7.21212704181826 10.979964653909262 7.98810808719239
Mo 7.736927460303975 6.238145951464251 7.832469771048609
Mo 8.604535060412347 9.425992340052435 11.243433259479717
