18
Energy = -157.32287255 eV
Mo 9.256713742793227 7.305437448209427 7.34923244117824
Mo 11.424863218764694 9.561325679597491 10.044577526643245
Mo 11.342343591324486 7.336851296470497 8.900529014023615
Mo 9.592169231119456 9.62213281437724 11.913481770784937
Mo 9.157395946843772 10.302412851782659 9.332376064147535
Mo 10.243246597000985 10.941382473923628 14.220682726181094
Mo 9.403070019339545 7.59847314797419 10.126059823520423
Mo 10.166396595747942 13.76120273366178 9.61200701750687
Mo 9.284485148252514 9.843689688768716 6.717194055652565
Mo 7.713897761918986 8.228877121466265 8.407017985097534
Mo 9.302430490521388 12.547928919965571 7.984546405049542
Mo 8.525713750994257 12.240973559984438 10.774885013299729
Mo 11.390098074451927 11.776571960359565 8.427633127042656
Mo 11.25451062187699 9.397759500192512 7.271279338224569
Mo 8.762103285237679 11.771612224913511 13.580879360718955
Mo 10.64359643929694 11.872245081301356 11.393686986307545
Mo 11.52214598846724 7.440386567641698 11.885216222011097
Mo 11.98977543398672 9.08854437697087 12.69568262198754
