18
Energy = -157.97313492 eV
Mo 9.918061583150905 11.546590235873271 11.888100943723211
Mo 11.058322684448184 12.364368316662906 14.21631579843169
Mo 7.36710296700773 10.218355609244039 11.86837245968908
Mo 12.78716899457327 9.531919317493053 8.288386406895341
Mo 11.269738270420127 9.061646221903244 12.678387722967193
Mo 11.964658002688427 8.04909500316713 11.181174991128488
Mo 8.430122973378804 11.727024116551444 9.721512756137484
Mo 8.437505065281192 7.409937787003296 8.76267434499177
Mo 6.825840742774759 9.364254245345286 10.338631256023822
Mo 9.060520402015614 9.145718302652053 6.5952831318620815
Mo 10.328149514602151 7.531274198113927 8.649643482116767
Mo 12.829416741435532 11.400005204624499 8.262332668033487
Mo 12.36780703640478 12.136383232917572 13.026895779823061
Mo 9.56771834525909 9.13015947227014 10.607911065193083
Mo 7.732332314083469 10.052412902777013 7.484699953263592
Mo 11.968042247326535 10.634314013046215 10.654218685334076
Mo 10.436810601947046 12.787361171788662 9.949723983794273
Mo 10.231994633404351 10.4605382383016 8.584261824939004
