19
Energy = -166.27375363 eV
Mo 10.34725907809394 9.478833991643537 6.543697799568277
Mo 7.9884501312482845 8.739412681740852 6.148970994665884
Mo 6.6787801691186175 10.529637332010456 7.032140139442828
Mo 10.13431000301946 7.041585186332153 7.249100621213324
Mo 6.073078693249272 8.602611197499424 8.30132867468062
Mo 8.997520047832186 11.343887107871137 7.117191087665858
Mo 7.622767364812015 6.8751411164892975 7.632676931259918
Mo 11.40060334272 10.51122283969035 8.576345737397393
Mo 11.78458450141698 8.10933912072249 8.734678800076855
Mo 8.932687321639625 9.016127916384939 8.939932001528652
Mo 11.411115485622771 7.348348135322638 11.040282772860154
Mo 6.986907515601837 11.200450408231296 9.377641858839754
Mo 9.390645537563762 11.68787054158271 9.521217600691578
Mo 7.524780490003956 6.855192202665628 10.184378697207336
Mo 9.827256149461572 6.245876956596119 9.561134092854125
Mo 6.696992848441992 9.213735881749045 10.645943358217282
Mo 11.11558829385517 9.767921051207939 10.9342693503193
Mo 8.771246552632267 10.323363127933616 11.53502025562405
Mo 9.12124514295173 7.915261873611684 11.729867895172255
