18
Energy = -157.79756373 eV
Mo 13.68978642834097 12.530241197842317 11.031420049429656
Mo 12.428997898602171 13.266589619775045 9.930762464440763
Mo 13.428706675820765 8.010536580132081 12.68899470824165
Mo 8.568389785911291 10.813944572870133 7.139584845904346
Mo 8.241859673447921 12.499822620924656 7.755052531003005
Mo 11.32653583422243 11.231853969164625 11.613273038708005
Mo 9.044683900417233 9.814695484547505 10.762977397314314
Mo 9.34122954737471 7.309425803080348 9.77521797627194
Mo 6.81313324719385 10.915609128568093 9.620209435832857
Mo 7.830902836576857 12.075546174315594 10.705075627546393
Mo 12.646451751882026 10.485726558440017 9.402324343607361
Mo 13.64733875120658 9.762099071039122 12.56164090023928
Mo 10.193699959398723 9.154427739780925 13.110340158557891
Mo 11.594793218459825 8.848424998941061 10.842010722163364
Mo 8.109698125965965 8.255503623190105 8.758909947887606
Mo 10.31768179098294 11.548812240378707 9.221883435210549
Mo 10.640538766612268 9.336655267922565 8.422745210838492
Mo 9.358011867944088 10.912173741264615 13.224159035173283
