11
Energy = -93.10712033 eV
Mo 11.402109866624434 6.719983147477617 9.942816909854836
Mo 10.71690186413762 9.752819541657177 10.28778809136173
Mo 10.109336315848173 8.282556182631792 8.285197079368642
Mo 9.078196774021734 8.064192871282618 10.940045016211554
Mo 9.762070889885734 5.865756118947507 9.624288081064718
Mo 7.591868518542578 8.148088005474046 9.300347895871596
Mo 10.191460206130063 10.834702439312666 8.167420637706769
Mo 9.509056268254099 12.645651487992913 10.279449748098326
Mo 8.242936296443977 10.365058847569207 10.194961097103743
Mo 8.321819279292624 9.808096505875316 7.537117932408172
Mo 8.4354679583794 12.729632722184256 8.741502547702659
