15
Energy = -129.91428171 eV
Mo 10.271347139827194 7.494647883136539 6.798800352204506
Mo 7.549924983116655 7.505886196446249 9.031443591765944
Mo 10.062693887406155 7.42881020671957 11.51076053075021
Mo 8.331294711683089 9.065229822237452 7.100402604891115
Mo 9.861411498263449 9.047637362519978 9.097426959720588
Mo 8.188931586826829 9.07968596180138 10.945918539832357
Mo 10.172220050911326 10.611572794823731 11.396754808675373
Mo 7.607107964438749 10.655398333816139 9.008014963934409
Mo 10.249591494679516 10.688117761032219 6.703503095431752
Mo 8.595180532167014 11.838990494803571 6.909125366817487
Mo 9.910123410123981 11.752162518921102 9.139777976691652
Mo 8.418425422937288 11.815807357480645 11.141726387364502
Mo 8.428980278698058 6.295844963066341 11.182325571235797
Mo 9.851191335091174 6.349986201835686 9.0425988275452
Mo 8.475338203829775 6.34398464135928 6.965182923139091
