16
Energy = -139.45154066 eV
Mo 13.848449455856457 11.535104977534893 10.217517163482647
Mo 10.03050523333498 10.003124106725798 9.294985637378531
Mo 7.031004312967236 9.480973931767922 9.006666187416894
Mo 6.340574523760203 10.971831817558355 9.80799858354643
Mo 8.524158921933978 9.75796292831424 11.22811861501665
Mo 10.31927483489822 8.155990147230614 12.51720120407006
Mo 9.209966236607505 7.674991941289913 10.568995209287792
Mo 13.057180515864998 10.190009901225958 9.29719811035518
Mo 11.066973545892429 10.623140380204951 11.336672781232494
Mo 11.414464775492768 12.713016016351647 9.082130526207138
Mo 11.667443246315074 13.350773639298211 10.821505058974509
Mo 8.90673075178949 12.380056968987379 10.213119888886506
Mo 8.578225536519662 11.930221751081083 8.32099761636868
Mo 13.49301677982648 9.787764535990275 12.508722710817
Mo 11.831712933198311 8.203549532426134 11.002049786828522
Mo 13.067729567704754 11.473140234964596 13.019918008546572
