18
Energy = -157.29099059 eV
Mo 9.782994053497069 9.599873784151312 8.23776269442024
Mo 13.195218521939061 9.370781397344842 11.691609081388181
Mo 8.51870332773834 10.297916288478568 10.18100970227696
Mo 10.944489580569824 9.23179063108284 10.479789142119825
Mo 9.179212290789273 12.358674380884981 8.737575993000165
Mo 9.013634382679756 7.417654888331376 9.765668059092631
Mo 11.574866196965676 14.15717039183271 8.850082182238486
Mo 8.950315225094892 7.892562858645154 11.924587866261914
Mo 7.048552573566023 8.899028767964438 8.225460174712968
Mo 10.979930388309663 11.569567105196478 7.190098970290073
Mo 11.594303543023953 8.816847976828361 13.137258499860561
Mo 12.544264841066013 13.797465124299467 10.33364048448509
Mo 6.540821425206158 8.408469698695432 9.962545309254438
Mo 11.856203581149726 11.328152279203016 9.118025969945178
Mo 12.037824720807698 11.369058520962856 12.051059293541966
Mo 9.88918716298027 10.61845312067391 12.418759831241356
Mo 9.940959898871135 12.703986611155438 10.683079738914085
Mo 11.021017780780715 6.952703720963212 11.647325322680283
