12
Energy = -101.91258368 eV
Mo 12.777982390761041 10.448705162613123 10.314286110827076
Mo 11.335293635559115 12.814869551227487 13.621023929121492
Mo 9.866959330308688 12.95286144200212 10.021032419692437
Mo 11.33027403260288 10.34583391460451 12.351422035955894
Mo 11.543566933050439 13.95810646686829 11.418843380334161
Mo 12.368932762237321 10.249412931383361 15.019949595764553
Mo 12.11609007931257 12.724721970326607 8.98543396390781
Mo 9.58155269801888 11.96535488409027 12.070949734309275
Mo 13.610724334738677 13.039381904310428 10.40921600723026
Mo 10.73655085342842 10.512556402041062 9.817981418119917
Mo 13.163369049999176 11.970590262160572 12.840827081318515
Mo 13.505711943440273 11.543055579445314 15.517314467160588
