15
Energy = -130.5286799 eV
Mo 9.230157919434426 9.120436404649588 9.181893858499008
Mo 8.728106583782028 9.834665379918142 11.773740798647767
Mo 8.82083582633963 9.914035500803047 6.529359446486247
Mo 9.681507451545286 7.139279803158501 10.860083623530405
Mo 9.130311118395186 7.935691254827189 6.6249480239252865
Mo 11.160791788680891 11.005199547891685 9.90016385223138
Mo 7.101589471384742 10.608282862345469 8.454317266651156
Mo 10.198887902048034 6.5339934125743895 8.976434450972324
Mo 7.300006626327485 7.103304468065695 9.966329862318664
Mo 11.931395195664706 8.297441738898366 9.67598312208753
Mo 11.447915015336251 9.025383944842114 7.792412809880484
Mo 6.689388677979736 9.264033081613507 10.564971128007697
Mo 6.997493730626408 8.305891641790515 7.972930849214819
Mo 8.447612862254124 11.444327230057144 10.53272328472042
Mo 10.259087330200838 11.593121228565064 8.31879512282708
