13
Energy = -111.47496008 eV
Mo 10.353918106875728 11.918391396075771 8.152678466364017
Mo 11.051144843774354 9.0848745882039 7.666891950949321
Mo 9.430642043225893 13.22211689362584 8.960599302612804
Mo 8.069929562121105 10.790932338864053 9.991103472859455
Mo 9.25895517450514 8.918897908675634 7.756796591197868
Mo 12.246342323095455 10.467672805400811 9.925003912787655
Mo 10.616514390791448 11.744201321490788 10.961022980964602
Mo 10.380926860665802 9.03095628385381 10.42421461819267
Mo 13.070176803496448 10.726444901996185 12.138617827421156
Mo 7.655087243558743 9.054525334737693 10.30070371699348
Mo 12.04072121207858 8.787065230198184 12.23036443651733
Mo 9.440932407186203 9.923437331198068 12.594345067435487
Mo 10.934998338704412 10.940252471282104 13.47899669877725
