17
Energy = -147.23682101 eV
Mo 8.158678265620535 8.935532952235622 5.532623458609224
Mo 6.667797383786079 7.308274953235277 6.899227363212917
Mo 9.432421728171864 10.21846847247873 7.450706839589557
Mo 7.551569298462015 11.169176037207457 6.123222584703809
Mo 8.47470058638528 8.114056220879652 8.339248735635916
Mo 5.857058112103178 9.407500855815218 5.88148367971943
Mo 5.8599006959793005 8.68294515517306 8.59450845687071
Mo 7.845698688676045 10.764801909438605 9.016346849485577
Mo 10.203785085029429 9.670878118574858 10.144089908477705
Mo 11.139704529050425 7.837052361143479 8.803969141584963
Mo 9.783161935656464 6.850651716446957 10.253272332994266
Mo 13.153227208166259 8.420456339900003 10.252015731719894
Mo 10.150335085096302 8.442592951638984 12.598414878215182
Mo 5.6868162396169195 10.893494398666476 7.829119000930309
Mo 8.046633685716305 8.832514085587873 10.693000376446925
Mo 12.337519302794215 6.995489702784966 11.252525035097674
Mo 11.68228542964003 9.487407028743895 12.367518886656923
