21
Energy = -185.23197197 eV
Mo 12.432063286652655 13.327821641226091 7.0982412779682065
Mo 13.63799268681383 8.757048450177463 10.851388112603889
Mo 13.436806244113948 12.822548013556414 8.495856262779895
Mo 11.976124553917222 8.715624994420528 13.39041409443351
Mo 9.745467740371854 11.692258743711438 11.504468396431571
Mo 7.035814429349827 11.596943673782844 12.663942087190314
Mo 9.494412522288172 11.536311669050479 14.367904433040941
Mo 8.225012821374175 9.62617603300266 10.962433712372187
Mo 10.528587486094777 12.394578959867202 8.980411177413622
Mo 7.327985656630954 8.805399677940489 8.685155287933041
Mo 8.802672157914023 7.637506318510126 9.016325364382752
Mo 9.758821825920677 10.057359194444668 8.598787629915162
Mo 11.6964716572132 8.48624728663908 8.501844750403581
Mo 8.032964504132503 11.72338578631354 9.846149184762657
Mo 11.976794796772017 10.892725561353664 10.082539484034248
Mo 12.19482888461936 10.330989861316965 7.517684085696715
Mo 9.305191330702064 9.830096900151277 13.650080393652058
Mo 11.997584054273716 10.592191419991872 12.970292731558485
Mo 10.67970105190068 8.992499802543062 11.068700059690723
Mo 7.939220953423599 13.249844286707186 12.50481291464175
Mo 14.302197499599808 9.539928889499977 9.383916825256726
