24
Energy = -214.69557704 eV
Mo 12.43029850864745 6.889836218555645 10.625363077840737
Mo 11.12581900996937 9.3085223476093 10.376240420412376
Mo 11.830290558318142 7.434213130166234 12.321356603244547
Mo 12.1108797518286 10.96023914127056 8.462333271868767
Mo 11.990487745895939 8.23778945306649 7.985483401767263
Mo 12.0099935245257 13.710503981954561 9.165497903514725
Mo 11.315053235464228 12.912979436006411 7.3290530945978505
Mo 11.83996210529873 11.801594192907507 10.840872149346685
Mo 11.075729810043951 9.815254465521386 6.436315981434585
Mo 11.01183410755302 10.111145628548012 13.016628750274755
Mo 10.206509540293151 7.051301244339883 8.815221718967779
Mo 9.497168714059704 7.026546456010341 11.157579278332982
Mo 9.265969956384124 9.244255234119786 12.71428433672847
Mo 7.362175436650109 6.920744337364852 9.10798694619648
Mo 9.506065889968761 11.06473046137278 8.261316039285255
Mo 9.335311404797947 8.533718626138917 7.040650678969881
Mo 8.643531279893702 9.196791461533603 9.78519153470162
Mo 7.01983712406638 7.283477766112932 11.05433760522299
Mo 9.45638836350681 11.480117408621773 11.162652030756506
Mo 9.643053940480517 13.250440629825892 9.501967477367387
Mo 6.885022696941389 10.443730223562957 11.418336581005837
Mo 5.773646620139288 9.19525178679169 9.141080832673588
Mo 7.149933088346157 11.696397351559932 9.88205749530921
Mo 6.876123207316632 9.661776346005144 7.674385001223616
