27
Energy = -243.01188067 eV
Mo 6.740287598128512 11.410726974378205 13.338924788774554
Mo 8.931513373713079 12.272528009116588 12.335627392153667
Mo 10.888217117170768 13.724272247264636 10.727700731598686
Mo 12.577044478244302 13.905046005536109 11.532626629104046
Mo 9.482778196577367 10.475127787767843 14.522051194738275
Mo 11.404984743436588 11.786119449212617 12.829442565881985
Mo 11.303849261193657 10.12401563796905 14.854653782704249
Mo 6.32837803881526 11.729155748074907 11.409247280686373
Mo 13.137565934447146 13.275289193964086 8.504102342181149
Mo 8.436125158530212 12.325916375645955 9.800413089268318
Mo 12.669930088243307 11.384797311226219 10.589722076599012
Mo 7.980369721180019 9.560476637017427 12.20590417963075
Mo 10.180377928935853 10.528683851912357 10.853494645973644
Mo 12.963956228435041 9.613500025457045 12.264957799554487
Mo 10.750594185193497 11.805452257227097 8.503553645668292
Mo 10.618816950382676 8.70335753608941 12.60974466784431
Mo 12.836337159273105 12.522999904077395 6.817941405835451
Mo 7.698649109370341 10.012981984888606 9.745200305159518
Mo 12.781342480760204 10.397416255578033 8.187802941772055
Mo 8.63482782919582 10.913122053303248 7.588680711914466
Mo 9.12986228164981 7.698748459539765 10.66663339068413
Mo 12.130160020035548 8.658469191949793 10.189205369755621
Mo 11.638247862094559 6.71050988592517 11.450405367865708
Mo 9.994441818233758 9.154411595129801 8.536511649275377
Mo 11.254698157828074 9.613759331810783 6.181256612271328
Mo 10.434824724034264 6.45938890607032 9.488902620222087
Mo 11.938623533662248 8.058780331911867 7.073326817301139
