21
Energy = -187.10743031 eV
Mo 10.232962376048327 8.327978340664878 6.2507964723094345
Mo 8.622262249095431 10.4299073759145 5.978585206397882
Mo 11.162872382762995 10.107334059462573 6.334212843042602
Mo 7.422749932268283 8.10750309918666 7.104527600731721
Mo 9.603412228538982 12.518150849375798 7.341672693629285
Mo 6.492086064724607 9.57940401995866 7.780850141554011
Mo 11.601070867508227 8.838549453991012 8.798635214266666
Mo 9.978358695541356 7.414029132103339 9.11881339287781
Mo 7.750276065667517 12.240495167945884 7.9661798368291885
Mo 9.195430382429256 9.904007073928359 8.296899326495582
Mo 7.858112178397758 10.810573124821216 10.494824870902233
Mo 10.151639866913035 9.422165749028846 10.974764189585729
Mo 9.945722201395261 11.794390195570706 9.922209298200737
Mo 7.869891810846285 8.435040572119298 10.059920811766391
Mo 12.033380812057072 7.39926959081634 11.323943889349104
Mo 12.918489406395562 9.203832115878022 11.246796276060518
Mo 11.362732979890465 11.634351102163714 12.216624322974653
Mo 8.32011531073902 8.67960026307336 12.91991146488907
Mo 9.503887427389541 11.368586314733642 12.829682066383633
Mo 9.289103780879978 7.169572116473812 12.384877987391656
Mo 11.196531733241056 9.126349035520134 13.166360847092808
