20
Energy = -177.67699878 eV
Mo 11.314959789091168 8.499272498248892 6.534410667049565
Mo 12.169861589516275 10.128434266745098 6.349095431393958
Mo 9.393331270176954 10.40420442463543 7.123264226604929
Mo 10.288691535734124 12.180374170399343 7.683311431703808
Mo 7.688170512711582 9.759518592915812 8.947549887967295
Mo 9.812442519322113 8.365475874339793 9.14882418242671
Mo 8.201815987810676 11.942791780369014 9.236392689530774
Mo 11.531857096956989 10.132473798775127 8.99189104965103
Mo 12.532785095024654 7.381213427924546 9.090567563310582
Mo 13.711715796384746 8.680413897311972 9.709958042888593
Mo 10.777580978314955 12.260376836391812 10.298221761350755
Mo 9.369042065300698 10.286071161211689 10.922240261033568
Mo 11.301536063122409 8.406657357589333 11.307319461823235
Mo 12.159421787911217 10.581108534045919 11.41942975482231
Mo 6.612001759073947 10.680010278618976 11.376860837507735
Mo 8.689403385741286 12.765907995235729 12.026842012329263
Mo 8.536385681048412 7.761550985046517 11.599791510665938
Mo 10.00599580397137 11.87314874294979 13.067228166501833
Mo 9.485407790945434 8.533835891510256 13.124306687696093
Mo 7.390769672052216 10.350335665947176 13.015670553953392
