21
Energy = -186.67808495 eV
Mo 11.684289044353832 8.93917289672816 6.977267945810767
Mo 12.360660354377037 7.537553534214219 8.07415938020019
Mo 11.05314474938868 11.64421754428394 8.454915330089475
Mo 12.672711142098905 9.853709433228799 9.582053756657743
Mo 9.292695973780647 7.6448974420185225 7.263476631112814
Mo 12.273574027581892 8.186272733257374 11.107078508125445
Mo 11.994135112423544 12.586367775451928 9.921976359387726
Mo 8.796338177994826 9.983433016270267 7.1930455330944545
Mo 10.709635170274307 6.015872352540322 9.745450343058515
Mo 10.203631274448457 8.745039042206779 9.339860973830522
Mo 8.844253932028206 6.343325413440416 9.707678636880805
Mo 10.146999415141485 7.9720254246453806 11.832299575433444
Mo 9.271364977316473 13.60388387398796 9.725835882054492
Mo 7.3889177716367245 8.862410739850066 8.407560335960524
Mo 10.829088637381721 10.537597648631433 11.206076163758636
Mo 9.529514989238155 13.089284352340991 11.505108728176904
Mo 8.69751352291856 10.970598469282928 9.680306396473977
Mo 7.790060715425103 8.66520409266132 11.067528256089327
Mo 6.676478579914528 12.340206521965573 10.995844690477005
Mo 8.385182202899053 10.37382864911715 12.223238170920446
Mo 5.9708617286079075 10.707477020929426 10.526782518703493
