28
Energy = -252.25354998 eV
Mo 12.474801921272697 8.776444284501942 10.868509436492124
Mo 14.280198331719998 13.612493174771506 9.854066025021021
Mo 11.896171107282955 15.500861087812604 13.366322821218015
Mo 14.449540071028654 9.074743799686635 11.801368014902417
Mo 11.363266595446065 13.104033183529175 16.397253301324838
Mo 10.342458054447016 10.971327923952572 9.971410734826684
Mo 14.083199167268308 13.829018592426666 12.546964811419278
Mo 14.686113879723017 9.959509843089677 9.469048905435914
Mo 10.922103618676934 15.811524917346475 15.971627407264195
Mo 9.81606900471108 14.817789125437555 13.337713954850713
Mo 10.648467457961857 10.3656585668282 12.284932777632815
Mo 11.78064218162788 14.207113323413026 11.19403054075748
Mo 10.727435184587536 10.773503631120258 15.103503512164213
Mo 15.551249635955163 11.765999416117696 11.073511009732547
Mo 9.433567938851269 13.270372444559644 15.267652891481076
Mo 13.976960030873414 11.954311078510731 7.531752712517383
Mo 14.724978421668364 11.827733563654979 13.317225311538849
Mo 12.938336235193269 11.546223263226965 11.13641677527793
Mo 13.243759762096273 13.944600892970872 14.935107479579335
Mo 11.596045368389618 12.724419437241718 13.558923710356751
Mo 12.837888228592247 11.050170519623435 15.606685240194656
Mo 15.777875770899584 12.119490914027038 8.391908229720784
Mo 12.002430468682808 12.82930363910882 9.20150397534718
Mo 12.843612989527234 9.951930116094713 13.468863339213458
Mo 8.870993708224656 11.834570821249871 13.196355763231985
Mo 9.932897063830758 15.324606200430617 17.380089416162022
Mo 9.673783849211686 12.915157650381898 11.314303085672629
Mo 12.48115960599765 10.164935365292255 8.781308143587738
