20
Energy = -177.55791855 eV
Mo 7.649127083776397 10.31755298671041 7.380605422684326
Mo 10.384588520679495 9.90936093313666 7.962578022615349
Mo 8.355554889063477 8.508051789367231 8.113843613145416
Mo 10.707471797208516 12.961765620521529 7.646116199142078
Mo 11.71293074945482 11.317306880493776 9.703951650301878
Mo 12.833412841083272 8.916738794326593 8.443518447824287
Mo 11.247381783661387 7.64649703676165 9.084948739303771
Mo 10.640405893426903 13.824364131797788 9.28568095056399
Mo 8.765474175865783 11.832995079285176 9.141863008448054
Mo 7.121633222496784 10.034107660028761 9.882134435285115
Mo 9.690449515073015 9.619492151764973 10.38403929302146
Mo 13.665916465350847 10.304123445403865 10.455655217639901
Mo 12.063466779925786 8.710561882508111 11.152828338961234
Mo 9.922421907484816 11.838489284373011 11.606352390090986
Mo 9.33006460650686 7.184509669478415 11.674898920033264
Mo 10.866325646382744 6.500832038515029 12.280750728559097
Mo 7.192247042998189 12.240637254161017 11.133758511760846
Mo 12.344926616169625 11.158048516932631 12.56001546192214
Mo 7.903757364020573 10.637280573459295 12.30584931378659
Mo 10.83256528099077 9.767406452594429 13.030733516531
