25
Energy = -224.94412364 eV
Mo 12.612405290726041 10.756743479928325 6.285787886426182
Mo 13.062511088102518 8.990549254866707 6.552926346099708
Mo 9.777720461040996 11.820397021747901 7.013398898964439
Mo 8.214398806729083 10.861804411756326 7.666947834783542
Mo 10.81426562639035 9.769127500846375 8.184952043898344
Mo 13.43641059633472 10.571222805514124 8.885586016362879
Mo 11.800902374029201 12.499967883733616 8.924424147002828
Mo 8.840450455119045 9.023599887017372 9.681549942977108
Mo 9.435062820542047 11.924946760133562 9.759114615999872
Mo 12.83579731780906 8.416375479453878 9.29687835361991
Mo 10.59759878262635 7.402612536902171 10.191158569107504
Mo 6.779556728150805 11.962152099064461 10.265134753090207
Mo 10.378324138545336 13.814308183519298 11.128088163738346
Mo 11.184440536363951 10.14315773967599 10.764865555714994
Mo 9.108970935125821 7.953931440407219 12.50666729244705
Mo 8.414043622623213 10.358335812307002 11.658656120458907
Mo 7.602499996829842 13.087842628545062 11.52239506393846
Mo 13.889418918326106 9.85610756972029 11.609187091737905
Mo 10.412381621602695 12.123594226800192 12.425742932134076
Mo 12.696297231183088 12.347028607070923 10.937926773049869
Mo 11.875102662959906 7.884737447373739 11.919015835519598
Mo 12.851378378662824 10.388338031107137 13.0816038516049
Mo 7.373469024249043 9.698686375080314 14.247978041493784
Mo 10.188247554257469 9.30952465166194 13.512433419774494
Mo 8.11037700817906 11.326940142274644 14.269612426562912
