22
Energy = -195.58051831 eV
Mo 13.081331463913932 11.507619022586185 9.50754654403007
Mo 11.122230721516 12.187589736362666 7.1244295536087145
Mo 11.713813814371182 14.203336056278719 10.303822119947544
Mo 11.58608829845687 11.986242835368087 12.008151831584573
Mo 13.334368690208962 9.96853962693202 10.557084289872883
Mo 9.13911486546963 14.04411363931898 8.362843553977665
Mo 12.014867827826542 9.851704995293085 13.637064264474818
Mo 10.069443533804984 14.399034359480769 11.149029883990849
Mo 9.420987912850748 11.333828766939352 7.191717085746969
Mo 10.2938961444812 11.921482051077547 9.7196473649488
Mo 7.856238673254767 13.097349225576533 9.24996950363508
Mo 11.151674913887554 9.758693864024453 8.63789763418524
Mo 10.679975281713407 9.582469913397903 11.25041478815963
Mo 12.277256892065234 7.585428688213676 12.118682061625353
Mo 9.213514480092385 11.810642610415888 11.970021906181934
Mo 10.083552355878828 7.697292404674407 12.7995705271489
Mo 8.233599894201893 9.975908783713344 9.935748246845277
Mo 10.094769138825015 10.324501372607314 13.935343169952823
Mo 9.542338676418616 7.443109217441486 10.1038219222634
Mo 11.818037294190358 7.656548730516597 9.483731259144056
Mo 7.899458843529883 9.326263166886495 11.718679994187626
Mo 10.684320108959396 5.863394571452451 11.217917738998205
