28
Energy = -248.73377035 eV
Mo 10.142148040257046 11.739624340649938 9.986182401131408
Mo 14.565358036132103 16.574880206959644 13.245626457136359
Mo 14.607168427968547 14.397960619709592 14.774483015473496
Mo 10.699833375360885 13.772076718263078 12.053046858878986
Mo 12.83541800676594 12.92058485795799 16.1903220272567
Mo 12.376249641923234 9.793837198084807 12.511088986465232
Mo 14.747014564870776 11.765410128034006 15.425530106357936
Mo 12.796750339297372 12.233832693254387 13.728826593880898
Mo 15.423247327074215 16.302909692674277 16.37433933505335
Mo 15.203970391023237 13.75134289587753 17.492710594018153
Mo 15.233152242322683 19.117250746913257 11.798268102379152
Mo 15.495931197445064 20.56035589921392 10.946004779515876
Mo 13.427770482117221 17.354023236064663 14.696392191923843
Mo 13.30669823376807 14.472047188389675 12.205850781951376
Mo 10.598890182429814 9.338871978906274 10.2197804049924
Mo 12.74591208482827 9.239445721763644 9.95411875642952
Mo 15.00875199765875 10.482243644705497 11.658408148528505
Mo 11.331259684132034 10.673423930198748 15.216047238496948
Mo 11.430375114930488 14.07637930227837 10.173532588639802
Mo 16.620915103806297 13.460410594209664 16.09616875022884
Mo 10.445169679979825 11.137094656271156 12.473558652441616
Mo 14.438409261173659 9.825177305318778 13.861925687755956
Mo 13.527556157965858 15.831710796210615 16.845159570628432
Mo 15.170494349643327 12.35654565613066 12.796430110262351
Mo 10.247061285005609 12.312357682099984 14.824126095479315
Mo 12.248930626029107 14.889062766691255 14.22675905353598
Mo 12.783606673843833 11.869795726005414 11.071973970916801
Mo 12.062274706162775 11.258300063574552 8.862174118874208
