23
Energy = -205.45871468 eV
Mo 10.703364887543724 9.46228212082787 12.27033758870909
Mo 12.474858431835186 7.8946336996676125 10.133137618886368
Mo 12.338342549436991 11.507717755479502 12.215465260336552
Mo 7.470429671341583 11.208480143295509 11.886765016016387
Mo 11.599123301465353 13.267024941436604 9.487067987222593
Mo 7.985118760316117 10.243768227621867 8.787379424734047
Mo 12.410806743026201 8.621764157440403 8.139769806488205
Mo 8.669667116759326 9.336766068504675 13.53488655341727
Mo 7.642218496453273 7.675395428502632 8.891772835639035
Mo 9.51279633381613 12.816701861231817 8.427530446721759
Mo 9.251613330604467 11.775258242251521 13.07756695090552
Mo 8.807767096931352 13.583313622210582 11.12938295044863
Mo 7.334170546189611 12.756031466239168 9.852457988338639
Mo 13.390437357370617 9.928638779857536 12.082035242720023
Mo 12.178459068854323 12.186589274381385 7.757961488359792
Mo 10.099529492896218 8.747701450769771 9.875532615865879
Mo 10.073487034950663 10.534006357342646 7.703660937761794
Mo 12.207172843818466 10.594439598245401 9.677192241000375
Mo 8.091605768095416 8.696427942326611 11.487041315493224
Mo 9.143089237397259 7.910379554215786 7.564806373339054
Mo 11.247903490337771 6.183888652044936 8.208242670711133
Mo 10.06240437997851 6.153418407115176 9.749060893266089
Mo 9.717544711149708 11.294960211766348 10.472834921423958
