21
Energy = -186.0358812 eV
Mo 9.504571130496396 10.455587835889048 7.19254377634887
Mo 7.328127890855718 10.386122436062228 11.823039858941735
Mo 8.766360873652099 7.8351160085020854 11.343221027346084
Mo 9.790169958398927 8.000400702141578 8.514496508979665
Mo 10.269549061725042 6.678874801284594 11.145050309956071
Mo 11.715106926933851 7.723133908754054 8.74948404089387
Mo 13.32006646397214 9.10346934223469 12.353615953129033
Mo 10.999105726017932 8.595439180843165 13.086395507912762
Mo 11.008581301960863 9.239634439897166 10.771183896110198
Mo 11.291612485857662 10.502384285105098 8.113249476727873
Mo 9.123168667955415 10.645437683437027 12.606442465207666
Mo 8.930465113822585 10.428755987013885 9.740162305498208
Mo 8.293191352541012 12.898499403734121 10.940157080727234
Mo 9.83076122042915 13.054098829593658 8.4729492246262
Mo 10.956351032314815 11.91092220458555 10.674853267797475
Mo 12.694753602637343 12.770202927907706 9.175608010863911
Mo 9.615327226438534 13.432949915802473 12.304328092643189
Mo 10.569220999688659 14.395203422912902 9.666410988889549
Mo 13.638482708513182 12.319969265446273 11.18148968622729
Mo 12.059709333394762 10.910955368448455 12.859488381736695
Mo 13.344232997522157 10.256157144697141 10.203698713861412
