24
Energy = -213.9507005 eV
Mo 8.02747714877605 14.405220567376604 10.315413832969298
Mo 9.9778761957987 12.131197388249005 14.158269540924667
Mo 14.015555399942459 12.950960454242283 12.127137384979145
Mo 11.378490563282167 10.076101811376654 14.21565929562417
Mo 16.38710010941648 12.171231711749957 10.654157504201876
Mo 12.033752334652004 14.480032220011132 10.908758330940865
Mo 10.453189998867472 10.666415312483199 9.964881868453604
Mo 10.343779980179207 12.875099848093457 9.588746814608845
Mo 14.321566643264942 13.7918191661399 9.747151340405003
Mo 9.329706232784815 15.596311162299092 9.93504016270155
Mo 10.921724558353562 8.921178461313142 12.025863491038635
Mo 8.398453854101142 9.56623568428632 11.63706047590229
Mo 15.323962033173615 11.167685914477442 9.219367328812387
Mo 13.09184310554843 8.833201124276739 12.569326678863325
Mo 10.24808420641947 14.163659705966259 12.16920696827778
Mo 13.579135142695225 11.335580611367307 14.258643228629987
Mo 12.127325419627255 12.265652139045123 15.604981788229365
Mo 9.003738008048453 11.990328309305538 11.855855240988413
Mo 14.9996391056868 10.688593662791654 11.930483710470028
Mo 8.688208384967657 9.85195957784204 13.589011897844804
Mo 11.684374233529518 11.684083609076756 12.095646318258298
Mo 12.252976047527772 13.807800143201613 13.785740197696928
Mo 12.863963845929375 12.169378868283578 9.577251616419407
Mo 13.21162838414924 9.794054313218082 10.481402622177296
