20
Energy = -174.42784747 eV
Mo 7.425512878021257 12.727401651281891 12.267944040650821
Mo 14.203920542733202 10.29593241800602 8.692929624756196
Mo 12.278852060027768 11.90466125417071 9.460788579908296
Mo 8.01454526829147 14.103594093427121 9.583489931515459
Mo 14.620574111555927 7.547242867004399 11.40772202231044
Mo 11.95183205716272 8.160515454894787 11.183308582311588
Mo 8.863338202588238 13.737777478208498 13.114318292673968
Mo 11.232399100612287 10.630944129918108 11.398703957398682
Mo 7.595110200690918 12.199069865633358 9.54079761610774
Mo 9.591935324675294 11.354614983732382 13.412069792606026
Mo 13.959800696100519 10.164576988684916 10.735630071013224
Mo 9.79235781176624 10.651661628529066 9.143141461499741
Mo 8.545495696090498 10.16462846912944 11.673618686639188
Mo 9.228173727790034 7.936757705278663 10.006693681585684
Mo 9.94346265471664 12.713429647157591 10.934075818363873
Mo 11.898372284550508 9.157880969548495 9.125588665655247
Mo 10.235494249555819 13.029348351891867 8.5589974552487
Mo 7.8337604940658245 8.97147734196369 9.212477720911147
Mo 14.441938829402103 7.607465175789365 9.573293368870978
Mo 9.91512360114294 8.513019317289402 12.546410421512649
