29
Energy = -261.57164122 eV
Mo 12.596168892289965 13.106375132748845 12.713526532900016
Mo 12.504870410483932 14.472073560419306 11.326779110551545
Mo 10.904571039173899 11.438347313564677 14.15484409468728
Mo 13.693446921863153 11.7187701433329 10.455688672242559
Mo 9.81638348870293 13.968063277132702 12.585876270729628
Mo 13.072282396488664 13.031953919113779 8.96108468472948
Mo 11.755858025239787 10.474748981377433 11.844532749863195
Mo 9.63528561651914 14.889675993746796 10.84341958451592
Mo 10.46738064564774 9.222684209050893 14.065904177900908
Mo 10.922984188308032 12.581725995709805 10.433904396560486
Mo 13.343159196379775 8.494320547412768 10.553258601245485
Mo 9.242234329648001 11.244173575912574 12.571583514701697
Mo 12.210656145975271 10.362513759995924 8.849562022482456
Mo 11.997097487133749 7.869907897140411 12.249575506779534
Mo 11.77897767256341 7.777400019749207 7.681971319472303
Mo 6.819022644390861 10.307654784129568 11.014088271195211
Mo 10.782121255377758 8.38404308547831 9.995885284801894
Mo 10.815052955360347 11.978516382539237 7.9112980512119595
Mo 12.400304296113568 6.279434755389927 9.621201656102063
Mo 7.7302479236754635 12.80319260275261 10.866671897866269
Mo 9.316262062085896 10.598568619047319 9.908620414410498
Mo 10.367439799257708 6.166154070648514 10.698160984339546
Mo 8.554906378926404 13.071800475728248 8.921990784196272
Mo 9.712660936456484 9.489899613963411 7.673660546062363
Mo 9.181120381771722 8.803096580116225 12.152717461628948
Mo 9.828152373228662 6.681945586501866 8.17070445419874
Mo 7.968099167034907 8.173254636161346 9.57881152974651
Mo 7.016937522201052 10.687587724792554 8.92951816998821
Mo 7.643027365618851 8.13816283179211 7.463744742010609
