24
Energy = -214.71410927 eV
Mo 13.447036178118267 10.170530032781315 7.648668007896853
Mo 10.515148325844569 9.528681119533642 13.2468714215211
Mo 8.822670211388848 8.526062729053821 7.395313874460501
Mo 8.834542635034827 12.029888722066223 13.995146944661778
Mo 10.218090806312398 10.852373694474712 8.520225554619213
Mo 11.512004755456081 13.77903748691844 12.105193053542976
Mo 8.262827861787066 9.88839703403162 9.566849843484585
Mo 10.32200397900961 9.06474712092321 10.745008558565795
Mo 14.074866696168163 8.84507599895406 8.854047062018402
Mo 10.079390498371309 11.492395963138502 11.508358875916638
Mo 11.158706440845124 13.00976767295963 9.785255063339285
Mo 9.321886537808847 7.263872873851654 8.999105278512198
Mo 13.403705919045798 13.355548718487437 11.245712408011412
Mo 7.859262721098155 9.74343153797003 12.331017302281795
Mo 8.741728877374495 13.848274057954177 10.909626355713756
Mo 12.816387584105524 9.170580968063845 13.750661160406842
Mo 11.448781503885366 8.281712360762178 8.3873188588938
Mo 8.309030526426174 12.753801249409538 9.432356709113751
Mo 12.609114407459343 11.315965108048797 12.443911265752154
Mo 10.94249632626517 9.659501125952062 6.583528919792746
Mo 12.682306820910254 8.569518645588518 11.708600087598747
Mo 12.43419804517382 10.66053957074475 10.113987805784559
Mo 10.636871292778572 12.098119908132798 14.37710305612272
Mo 7.15418422961 11.377427334468294 11.666511555057404
