25
Energy = -223.89223381 eV
Mo 10.24154264521043 11.389920837012347 7.575028925120027
Mo 7.369986089166212 10.104446516768851 8.100243774310352
Mo 7.719510144463257 11.980030104322735 8.316774100764352
Mo 9.994891187479253 9.00648588631806 7.633444786630707
Mo 10.817860230820246 12.755075790261863 9.853390885685355
Mo 12.083232666603148 10.60827830212256 8.59913544702663
Mo 9.42686107038101 10.454549911941132 10.010870289860803
Mo 8.626582879277546 7.888802068174315 9.233739173421169
Mo 14.273829662643458 9.217000744872337 9.705765984447874
Mo 13.9457472789073 12.268550352305509 10.059632171749847
Mo 8.425406874025924 12.971932686350723 10.774020995036992
Mo 11.282780837402104 8.312162227826757 9.839846725772828
Mo 10.039098080270671 6.950505112030784 11.181802433584743
Mo 13.08298985039903 6.784345009063991 11.153951246528633
Mo 12.217124638339394 10.485381394739372 11.223657583703925
Mo 6.844884512734724 10.57661430051887 10.7417388578399
Mo 10.104454162400994 9.387183149353028 12.248141734687902
Mo 13.162765197326241 13.196377711937718 11.409263304942659
Mo 10.692609138732202 12.248975906192095 12.266359901063929
Mo 14.6591995981853 9.285858546446814 11.511070829690608
Mo 7.93193844286423 8.606886593784349 11.480044903823753
Mo 12.398437958657267 7.8146533847172615 12.566364544758907
Mo 8.20091529532683 11.328720828090592 12.51886779735592
Mo 10.395863930085888 14.804679468306158 11.89387553552888
Mo 8.82455823225683 14.335653770500816 12.8660386706222
