24
Energy = -215.08855821 eV
Mo 10.97641131654635 7.957345108550089 8.142385234902887
Mo 11.3513343148984 10.342235129238823 6.294817428140566
Mo 13.048415566851856 8.573314618496328 9.886174209869147
Mo 8.514439758754442 8.664898856533863 6.059823562063848
Mo 11.969636062519625 10.881596744627444 7.932455938246485
Mo 10.631226404749166 7.05728682539999 10.112053612820393
Mo 8.55856117644228 7.24250830933154 8.277626357797935
Mo 12.515438947022654 8.520690688532797 11.735790082059378
Mo 12.648721144652878 11.413813866645068 10.809240585581904
Mo 9.647515581410993 12.76602250054929 7.1993404352090655
Mo 9.365734276126862 10.045181060490563 8.164394325481213
Mo 8.48199406996291 11.728140285891163 6.2145702894729205
Mo 10.498571447922375 9.617925349346528 10.456143972424895
Mo 8.022213294669697 6.115735999580258 11.0316519835672
Mo 9.914712018737674 12.209212425108674 9.882829449451227
Mo 7.002065626169901 9.181751906924287 7.234010322544548
Mo 9.347384791178719 8.40706116004679 12.721141361537715
Mo 11.494148702733696 11.46641991280462 12.25774343337602
Mo 6.518324300165677 6.656425296942108 10.148002153559725
Mo 7.518701774036594 8.519176023832404 12.878071094616121
Mo 7.674681098018062 11.58082298724594 9.104969660594078
Mo 8.091203534978707 8.840321675139226 10.138460205568169
Mo 8.698634476603223 11.094384248136869 11.74474200185933
Mo 6.585263702106962 10.580744053219082 11.017153102736629
