26
Energy = -234.02229546 eV
Mo 12.237681731502848 11.154324781209134 10.30573412463223
Mo 13.821662357179411 8.820120930861565 10.56046637752523
Mo 12.779556413830605 9.116043604162972 12.203074402253549
Mo 9.396142324814253 11.822256670505142 10.446410277573923
Mo 12.943428764829447 10.128119856796891 8.360901714960216
Mo 11.556269240898661 13.171431957247956 11.938503381463617
Mo 10.65981084755993 10.757463079432625 7.939017485513124
Mo 11.112779147912292 13.032817224778116 9.09041824150746
Mo 10.94227046514152 8.749384626138628 9.88397013360993
Mo 10.338940795046001 14.452343068365488 11.182597576296212
Mo 12.133793673474349 6.785249712164597 10.889343224579559
Mo 12.722955063907758 7.273698295917138 8.199596314569446
Mo 8.909482130871638 12.752615597301102 13.125667227630101
Mo 11.19491059135448 6.055412137651304 8.65057353901382
Mo 8.43699832549389 14.11631348431608 8.970757787466374
Mo 7.686196203026437 13.481078952350412 11.882640635381286
Mo 10.17289577773672 10.385593765546124 12.187527477289287
Mo 10.457097946761785 8.372550193614023 7.174901432924766
Mo 8.513149593718017 12.722656633769674 7.832220459012536
Mo 9.449866290405698 6.5185867779014215 11.049392985595379
Mo 7.088958330635173 10.679433838942154 12.355481945737468
Mo 10.33010501085715 7.5830787419850365 12.571389251557749
Mo 8.460099263614165 8.996224191010194 11.039917962191002
Mo 6.740783198270075 11.171725171766399 10.449721559997329
Mo 8.446788652105258 9.7711817759882 8.683373907260489
Mo 8.806116257652063 7.495585222611671 8.384970395168851
