28
Energy = -253.68903729 eV
Mo 9.986440102263863 9.961893218633628 6.0819319644162535
Mo 11.90635645025548 9.632799834327844 7.468289213205932
Mo 10.59964901165777 12.056982541726118 7.0247717153143405
Mo 12.559463562277188 11.716954569687845 8.393128210140105
Mo 14.305438578899535 9.425543585406718 9.318716195002978
Mo 9.510959899583371 7.895452180262396 7.519920416343353
Mo 7.615263149645149 11.457234299814036 6.7853861486315585
Mo 12.192671045736796 7.354005876150118 9.098152208208168
Mo 7.347101623349306 8.483303314105628 7.311376200436924
Mo 14.25790748225659 10.124563754872005 11.015755098925052
Mo 9.234247456699032 10.182868317950465 8.657148518311345
Mo 8.077522460076564 12.803507656471972 8.099188505016075
Mo 10.479503232219383 12.312439923443419 9.808969098161125
Mo 11.649261328553493 9.920076159591988 10.099837891735321
Mo 12.246837935498437 12.34217707072161 11.45148794442028
Mo 12.689193574602498 7.615388353131074 11.15444106943819
Mo 6.760520056046695 10.495427141302189 9.156666341684508
Mo 7.9518830088653125 11.927992451772 10.66887215844318
Mo 11.787791301912735 9.955765517186595 12.790018777388221
Mo 9.997776133632623 7.708863848316325 10.140683164105573
Mo 9.383656724511322 10.051765105553061 11.438724781186641
Mo 10.46034491007505 12.137578287167901 12.682824374125184
Mo 7.44980834565905 8.023696222530546 9.497576156640799
Mo 10.596827281138728 7.923487294090823 12.630778540096742
Mo 6.670430522460942 9.416374136731713 11.868562519555683
Mo 9.057856530324448 9.976584177817635 14.166345667225237
Mo 8.026028428036806 11.42768252218054 13.59747352352865
Mo 7.796401449562593 7.92935578969684 12.272031059935182
