28
Energy = -252.09450696 eV
Mo 12.274093057593428 10.264702658986511 7.950866199826161
Mo 13.9707211040998 9.357284277199168 9.684402397825961
Mo 11.731515560555334 8.058854368086836 9.164693930219087
Mo 9.830035302621628 11.586483125150894 7.50772134003353
Mo 9.211615646884955 8.879401848396478 7.763839405981323
Mo 11.3752171771136 13.013701235213212 8.60845330415227
Mo 13.490737379521418 11.58893638927886 9.781189928482066
Mo 12.055411940093272 8.106377711331744 11.331432616569607
Mo 15.182694213775495 10.821662875819198 11.934493604778805
Mo 14.72070995970799 8.978666825310103 12.251394975278966
Mo 10.819350978777399 10.575693657896624 9.977844419291344
Mo 12.488547583430325 10.604922891238713 11.937542686544221
Mo 7.5963169383361535 9.704222456124157 7.294071599572968
Mo 11.712012114983583 13.268709707810656 11.536606052224768
Mo 9.417058901532167 13.28350439948813 9.774021056293712
Mo 8.321871104280076 10.70565185050301 9.755286021558561
Mo 12.400744858176674 9.004446808538685 14.165425232503171
Mo 13.454351549973492 10.672079929860907 14.431750090995004
Mo 9.393684228648992 8.289289203902609 10.658211995663008
Mo 13.284105981025704 13.21363946955799 12.583099698151878
Mo 9.980971114382513 9.601155590465824 12.619401415966845
Mo 9.216974786677032 11.847351527554569 11.972171690972411
Mo 7.715571127863995 12.438686954856687 8.114913274395152
Mo 6.998778766387756 8.641360870225842 10.130282013740137
Mo 11.182785299352656 11.615229425333581 13.779304087828981
Mo 5.637253730329452 11.205260379829511 9.914319729640248
Mo 6.512537095880464 12.435890387708087 10.963953668989992
Mo 7.329021008635308 9.755925188268012 12.044208780538746
