21
Energy = -186.13806742 eV
Mo 9.989892488842871 6.67655656056607 8.928490981291915
Mo 6.814735849980801 8.288211784972633 11.478800275860138
Mo 6.927917315097872 11.126541824951863 11.304155970215678
Mo 11.7546716250952 11.84148900519827 12.062886600550746
Mo 11.080614539994409 9.940826069477646 6.310339218814103
Mo 12.944973707713011 11.786556276921779 10.393931253274795
Mo 11.053921221206208 8.991073279997641 12.670220376224666
Mo 9.363797799842912 10.91468946774132 10.925623356581562
Mo 10.39767529908392 13.166961893916085 10.362981890607172
Mo 9.233218197958152 8.263009425669475 10.634662951386485
Mo 12.844934155335256 9.312871559454093 12.327948653112626
Mo 11.66536463748868 7.111325673822843 10.301599208759795
Mo 7.792959049860445 9.40781895511115 12.873295137158545
Mo 8.019780065153713 13.388439153908102 10.583799412869707
Mo 7.081494587193875 9.779013673121456 9.430159991039519
Mo 10.751397890624633 11.586582202873386 8.439488669058347
Mo 9.480833033081826 9.33498565942613 8.282874642616823
Mo 11.614030044824402 9.640733772685028 9.907000638436621
Mo 8.091085792882144 12.106943501180416 8.865128159244481
Mo 11.771107814501725 8.06228586721662 7.848828492252831
Mo 12.769237798913116 10.439626724024443 7.525106461256251
