20
Energy = -176.99633115 eV
Mo 11.470193083564524 8.200498859575157 7.6493239658349275
Mo 11.84890881753923 10.619500331897195 12.63830830966517
Mo 10.25056583075986 11.66156145296475 10.911322692465646
Mo 11.805647748339588 13.437264112140149 11.900115169397829
Mo 8.559691805638701 13.097254783593806 12.492024591695518
Mo 7.978023829805598 11.695820422412268 9.77965551344878
Mo 7.956063292736145 9.644209007584264 7.433734143265254
Mo 10.143301218054049 9.17681728154379 12.238424278122555
Mo 6.743252634079602 9.230580940158827 8.782272163252768
Mo 8.208329633340215 7.381834375397083 10.666261986964154
Mo 8.675871691699315 7.023098012477123 8.872279621371149
Mo 10.993123142755735 7.687468518654756 10.339451322161432
Mo 12.616426652456685 12.768360276981365 10.371513297446544
Mo 12.225470842681974 9.778989356616309 10.39065805212852
Mo 11.141425929315298 11.327482482140873 8.043203317794255
Mo 12.879265944530236 10.87492302810021 7.860275145904807
Mo 7.762868928406131 10.37163424594499 11.34805188908953
Mo 9.135567256300302 11.656395384667471 13.495804360905781
Mo 13.154909456885353 8.04876293166456 8.474784455794273
Mo 9.637335728751838 9.503787663125545 9.498779190931845
