20
Energy = -175.59468931 eV
Mo 7.232746007590575 11.53576412450332 10.599868621088419
Mo 8.111139866034293 10.400263376142085 12.990317484908944
Mo 12.219085332837697 12.743035188421118 11.53661828539342
Mo 9.819197084470774 8.717164905554213 9.921739753762912
Mo 12.99818259008185 11.607260201782404 8.300799708449762
Mo 7.942884364407218 9.883628399691876 8.18867759413134
Mo 11.946978410785013 8.382692147134412 8.140701548742312
Mo 9.63055021812431 11.579396244398088 10.70917137037696
Mo 8.705692953356799 12.56067667529853 8.450068904148587
Mo 12.911432532078175 10.05113930432845 12.847819473365423
Mo 11.688194372306448 6.698893575911404 8.810118279906584
Mo 12.064557150994544 10.350598097006081 10.372535974469496
Mo 12.088525612360526 7.990394095529322 11.02551935888782
Mo 7.648292082796905 9.243982588526936 11.173507951481161
Mo 11.646652623238923 12.895281391949068 8.714343025801071
Mo 10.193825707368307 9.514206621138092 12.332706793937515
Mo 6.635450818525862 11.67247330159916 8.214004777360184
Mo 10.931149855662198 12.153015132803356 12.888746536599676
Mo 10.281074541680283 10.688076575525029 8.236256386396185
Mo 12.249320656172111 8.276990833630133 13.491410951665157
