28
Energy = -251.6293734 eV
Mo 7.700326175845781 12.035612034767277 13.509180197238026
Mo 9.386590459910124 9.52881024181799 13.854892872806667
Mo 10.626460250091087 7.29430288920668 13.706077438649928
Mo 9.466114423159558 7.357600391519078 11.97992398539213
Mo 8.152688766006312 9.77017393069124 11.933350443055266
Mo 6.008885492292803 11.418449904175406 11.12791894376252
Mo 8.164452767536675 7.948402153032287 9.541296192985843
Mo 6.246419723411242 10.230841949651223 9.754312417632303
Mo 7.09225653886299 8.261808139855072 7.681466289112443
Mo 7.87217168430243 13.457079163937406 12.255250256436112
Mo 12.333384647114329 7.418025320170979 11.819754275407009
Mo 9.915540005589426 11.808568130554397 12.039021879882034
Mo 11.169899261333072 9.618361472733602 12.080648025934126
Mo 11.159017833137066 7.617692723234165 9.840837286352336
Mo 13.881986071544004 7.590774313788774 9.188499963008514
Mo 9.875842052446403 13.94348918548724 9.996064236331918
Mo 8.414184264337905 12.160193817701732 9.820884075498226
Mo 8.45764178449045 10.076363176539841 7.7325241827199
Mo 9.946003084151346 7.522246915795545 7.184101796083504
Mo 9.745393688235648 9.863795164920674 9.798631902649898
Mo 12.70641977370439 9.79999986360118 10.08090186450908
Mo 11.752438682079067 7.22447599271909 7.124390704857661
Mo 11.396477509548088 9.980902360948766 7.71139736760919
Mo 11.383474461765607 11.965788011666678 9.95619756679559
Mo 11.339106347974061 13.927748692478355 7.830944296062866
Mo 14.018763420892588 9.001004661106005 7.921393048995684
Mo 10.03536099171314 12.399321651936043 7.570396649636508
Mo 12.821772156039913 11.783791966270762 7.911477940006319
