28
Energy = -252.28109176 eV
Mo 7.2307534426599815 8.908195098734387 13.8443787554618
Mo 6.463169968154623 10.577263664100348 11.369259653700379
Mo 9.071486849088362 8.597230873431508 13.396359407928573
Mo 8.1277857070069 11.195803247337045 12.940410542719855
Mo 7.249906720357615 8.127762440680243 11.268143106356137
Mo 7.881906987539326 13.241702563974075 11.101241276140634
Mo 11.859729794160534 8.829723110246467 12.288482728555014
Mo 10.366160198286416 10.708794438814763 11.978226801998241
Mo 9.315802539032322 13.616224818656752 12.26412387796265
Mo 6.239262932939431 8.828072359194088 9.305658928817552
Mo 9.82391616494514 8.004389622825359 10.78154879605994
Mo 8.420871226609421 8.276873822564372 8.70153084177107
Mo 8.433828507510905 10.480013452823174 10.102237507569862
Mo 11.968007759132309 12.521354711922463 11.874478456997242
Mo 13.530015975452706 6.680678614850215 8.700678093863406
Mo 7.600241701361665 10.630847128954214 7.364066084718623
Mo 10.7960988109568 7.079513426753609 8.383228020041654
Mo 12.887653635023419 7.392476986584295 10.285811353422073
Mo 11.150702162408674 9.765556673453375 9.308694575853169
Mo 10.317678134168286 12.51990924423145 9.838607059529451
Mo 13.112905867962349 10.39466522348543 11.146702036571979
Mo 7.7824554571301 12.32428686648035 8.249662216353652
Mo 13.61000815682783 9.51781963944404 8.629468492749615
Mo 10.03541928706413 9.381955384578463 6.843255620903496
Mo 10.291628432230068 11.73070850500294 7.513406972080156
Mo 12.05236882179962 8.293022203767624 6.9544826246251015
Mo 12.625383989967018 12.24581868449726 9.385990067678259
Mo 12.618751190562573 11.007834473322664 7.174967833486217
