20
Energy = -176.97607256 eV
Mo 12.213876791234139 7.144271877799979 9.49656364377528
Mo 10.117362987351024 8.313862775676537 12.704411025192794
Mo 10.162387430565383 6.927416038976133 10.481189870211502
Mo 11.330090829848345 9.243495745704054 10.461060462869176
Mo 10.079003662487361 6.926567927166398 7.9296660389687235
Mo 11.460372018856944 8.963224684686905 7.902605252296758
Mo 9.001025364905033 9.22144144159534 9.136641052782664
Mo 9.470728745533657 10.225804861403523 11.945149478384911
Mo 7.916534659376551 7.913109770219287 11.557790070370006
Mo 7.496833836645545 6.437543101118258 9.344228702714691
Mo 9.855988283433579 8.14035398304154 5.845805094161358
Mo 7.834512695299935 7.770368895544741 6.835705529674002
Mo 10.602456885249781 11.546476524590542 9.233878190088433
Mo 7.124849961464182 9.959867597576189 10.99422505313239
Mo 8.537960274969548 12.0657534945122 10.103093053615854
Mo 6.318429185686113 7.962977001783212 9.23021283460722
Mo 10.282816215175886 10.907951548767423 7.00423686999663
Mo 8.104327090809297 10.045446855751104 6.469173435379258
Mo 6.771311888859219 10.63797343734254 8.384932542150697
Mo 8.228512524875324 12.38378587541813 7.869955544345626
