27
Energy = -242.64545873 eV
Mo 7.605735346831605 6.885994147894929 9.532974091642581
Mo 6.290133704295193 8.859813048390933 7.738568909694416
Mo 6.2325675348859075 8.033435979878382 10.56253569729401
Mo 8.78983427629772 7.8891809455325665 11.547711802474367
Mo 7.323471131418661 9.733482171684512 12.141604418269266
Mo 7.109543296698804 10.41104121304498 7.14044942591789
Mo 10.945667161912898 7.406990841050492 9.594045582411239
Mo 8.952903452200752 8.932516172756495 8.551181851455276
Mo 9.112064582460585 11.681292362899644 12.537904709132444
Mo 7.117836683621471 10.584028011218082 9.890426660771993
Mo 10.126967530702888 9.664196113512384 13.576115190876461
Mo 11.343335293768147 8.449991671972624 12.0376833367499
Mo 9.645298345438126 10.141553953117159 10.700448891481324
Mo 12.872959453041698 7.557320152863802 9.640024831665984
Mo 11.495870272487725 8.928260711523354 7.332342719612673
Mo 10.1601326786444 9.91715443758545 6.4155427915873755
Mo 9.242943823390833 11.713405406010255 8.483044707525147
Mo 8.362874502233625 12.71930245608972 10.304964541639814
Mo 11.11834979175395 13.70965283252037 12.695334690519887
Mo 13.872794948661785 9.354751365686761 12.053973474384257
Mo 11.849449304846951 11.106033244100896 12.57133706856875
Mo 12.29422654582249 10.105767725513525 9.90194689356309
Mo 11.990465863977425 11.784146368900556 7.758510322168903
Mo 11.028316217735982 12.533101368737189 10.217392435319828
Mo 12.819368676193223 13.631917175260885 11.918167595119398
Mo 13.294539122094948 12.504232753717119 9.052406518887201
Mo 14.329514904971226 11.077099782363518 11.377851508205048
