28
Energy = -253.20370916 eV
Mo 10.623122079571047 14.07245814222378 14.451878407897105
Mo 12.300212347401894 12.369639113512589 10.796077218685944
Mo 11.90002864393429 9.91071827098315 10.09971640480275
Mo 13.635973734070497 10.17485659897084 12.421440757005925
Mo 10.389124643401432 11.37414333140338 8.768892776951079
Mo 15.441895248673912 15.324375554055877 16.576483363253274
Mo 13.46131355455313 11.382994734250769 8.320904462537264
Mo 9.149918390418238 10.734516683565252 10.33624725871975
Mo 14.060407737034797 14.340671312593294 11.940204911709865
Mo 14.4703606009423 13.678619887035696 9.906284419532975
Mo 14.559706525223406 10.885876436007187 9.79457161828514
Mo 14.355719002998947 11.280538994877759 15.912854448999795
Mo 11.065458383010293 10.283532084615524 12.274984128026526
Mo 10.253234542066402 11.326521339889005 14.816248601187693
Mo 11.432638561199916 11.669649524501867 16.292083583833236
Mo 15.735585962889377 13.679988573257955 17.259545862048515
Mo 13.01294155237884 13.944524911617117 16.142660839129405
Mo 15.16913364027529 12.21601315003757 12.319285899370138
Mo 11.299054249887059 14.630287007144691 12.560868957201063
Mo 9.857577413928182 12.422037627977 12.269593234404088
Mo 10.023465999101195 13.431806717606285 10.168610729964836
Mo 12.681030359016246 9.91363278234 14.54677442628469
Mo 12.652851024686749 12.408839303702427 13.754865701222096
Mo 15.140785589283203 13.146219713533096 14.533643166390034
Mo 12.226511988473638 15.203866451440405 9.918220262610397
Mo 13.300558029593937 15.129986170609529 14.50925954115454
Mo 12.063725523186763 13.89300039167029 8.456158683017586
Mo 15.49533695901833 10.40660351885865 14.271119118187913
