20
Energy = -177.40955881 eV
Mo 8.30273015128879 9.359827637126559 7.281569091267767
Mo 11.492481858674795 9.993462323769133 7.716900944821502
Mo 9.412058930101216 12.098533554595052 8.02677091957344
Mo 9.97942467229709 7.109372105503499 8.70465062034561
Mo 7.098099678456037 9.95058381636118 8.564576420560813
Mo 11.14237067020474 12.900766984096146 8.001457189321702
Mo 9.562980598073425 9.702611346824881 9.725754357418936
Mo 8.149780947007853 7.227915643960591 9.282401016941588
Mo 13.07735985903928 10.850108988041129 8.652623152725095
Mo 9.73031202668913 13.495036463995461 10.502780479097785
Mo 11.185485916056386 11.444918535216436 10.370018599090052
Mo 11.987695403723336 8.651152028504255 9.825576728008405
Mo 8.30030905247663 11.853021460789714 10.608350377658297
Mo 10.06591762748282 7.515870603885349 11.392133081184266
Mo 13.332092699765786 9.971881499604304 11.561082489166836
Mo 8.145263783202374 8.85955667179101 11.507964396787786
Mo 10.583873044719986 9.774683375642494 12.33482994484954
Mo 9.909861191305225 12.333177482207088 12.86449132022932
Mo 12.732079227314651 8.382682307628267 12.484179673833365
Mo 8.352627425303533 11.067641933640797 13.134693960301144
