25
Energy = -224.76714609 eV
Mo 11.16087563209179 9.683563542137424 7.21675514507323
Mo 8.510484353797457 9.23019317477673 6.901810935501542
Mo 12.352932116598573 12.195162141291119 8.074583462862487
Mo 13.068864102451366 9.298464644612396 8.742310811188649
Mo 7.818361562815328 8.001154843667669 8.287059841298406
Mo 9.640240555452143 11.668363451684245 7.9957379494113265
Mo 10.409975676152262 8.036329943299899 8.591760012934023
Mo 10.505113755629448 13.298096698816247 10.121247084448035
Mo 13.484188803841292 11.903172001506178 9.575242264239542
Mo 8.401913368075304 10.201914987084097 9.468145870373409
Mo 11.070624867604971 10.486683871970625 9.912596704910689
Mo 12.145897499630765 7.845837873737865 10.2864222941738
Mo 8.511228080299432 13.024630290415015 9.943318663994972
Mo 13.46219382913264 9.718647960471593 11.479655843003457
Mo 9.390003726998613 11.280710425079823 11.929620367246265
Mo 6.647157501069468 8.930237983633122 11.191925130012503
Mo 9.463308481445006 8.36076665328066 11.296037812385944
Mo 12.087731514506892 12.180625144245651 12.100535005789585
Mo 6.807834010462313 10.859910613847894 11.396519773415362
Mo 14.739578651351206 11.557543295068376 12.484026889396512
Mo 11.38413963898743 9.69448179196377 12.592015809980413
Mo 9.812386979833517 13.59456101927676 12.905694558608014
Mo 8.634458640144999 9.092626337930241 13.040948132347868
Mo 13.455950757537432 11.110667226842391 13.935324795931459
Mo 10.689820272613801 12.400918461883366 14.185969219996112
