21
Energy = -184.60597808 eV
Mo 6.877475052701684 10.808616796104674 8.101779219185936
Mo 9.762176279169736 11.973685921065659 13.044075444372046
Mo 11.96431926874614 12.03982539093216 14.502941338896145
Mo 8.92778641254207 12.030348557844007 8.331654573857527
Mo 12.699767515728343 9.270526004505468 10.575576184535787
Mo 9.199945820945107 12.456536241976352 10.631933875745151
Mo 11.049346786826366 11.122217173284351 7.367141737696662
Mo 8.34631379441319 7.307184721429712 11.085326903255186
Mo 8.560344570612274 10.19238951823511 11.632639781067674
Mo 11.280635796596469 10.09063952185066 12.630532929341827
Mo 10.607188954341666 10.342262118398802 9.827365542379932
Mo 14.4376827600138 10.530047164808112 12.198311239007309
Mo 13.704888521749334 11.681586557362497 9.898450744676415
Mo 14.142265139008787 12.433955783328463 12.662362267018773
Mo 11.773133582558545 12.270342217985256 11.480433764226138
Mo 10.108009183915946 7.762980843416112 11.298513163125895
Mo 11.757811826130173 12.74979331009459 8.766749785612193
Mo 8.347159781081105 9.25477862686465 9.410248410574281
Mo 6.84530046811971 11.452058821922476 10.109627102724147
Mo 13.020290378869943 10.165118272594846 8.291565659971505
Mo 13.102433528245019 10.501963029143452 14.560593641916576
