29
Energy = -262.05975165 eV
Mo 10.97165200969682 6.947744192666574 8.828766793845237
Mo 12.873853006369332 7.2722345890233155 8.634105172637286
Mo 13.98896647458159 8.799019714699236 10.652018300992443
Mo 11.22493783501441 9.056345677751436 6.7993733256300155
Mo 11.835721667652322 7.682209016002369 11.394726279350307
Mo 9.380518793097004 8.562326019647083 7.161217298861157
Mo 13.853121175505638 10.049932798027937 7.7956234304425065
Mo 9.261464512480554 8.744014144870652 10.252331216528887
Mo 11.667955689632194 9.641673073251502 9.38847320717455
Mo 9.55447237024243 10.909283202604986 8.446526497356134
Mo 13.951473079506723 11.117350051853636 9.785260199245114
Mo 12.28143813768162 11.608525559787806 7.45229534171818
Mo 13.142295635283169 8.548136580961897 13.001140421993775
Mo 10.256742388677365 9.148520056071884 12.792633927023607
Mo 12.24827157373227 10.62185120620535 11.884885904743008
Mo 7.639846075906162 9.40129878602208 11.812407812778176
Mo 11.598345727340732 11.004750121775889 14.398634915512536
Mo 7.263803622321178 9.534357256119096 8.89796757703081
Mo 11.681113761786568 12.552353891626183 9.635407775217002
Mo 10.082282667939415 13.6310119552341 8.362707017049983
Mo 9.649700850182013 11.274266348362717 11.19989565358613
Mo 7.7822758213684375 12.34640347029232 9.405942666016763
Mo 8.877237670813239 10.855420680622876 13.895884265532505
Mo 11.405325328935364 12.916173519110972 12.260667457339707
Mo 5.942988193997652 10.480955972487575 10.143894486099004
Mo 9.328776303724863 13.946703661847693 10.456018971189659
Mo 10.800630441258592 12.814520708835873 14.744561744303297
Mo 7.140397987737096 11.962885580716783 11.80218465549122
Mo 8.792923277610017 13.031727008133824 13.11679827591498
