26
Energy = -232.40794195 eV
Mo 15.199918466521488 14.104668212430061 11.302521968692348
Mo 10.226750504369127 12.861440003925784 9.166519186045834
Mo 13.123913198394998 9.646981704460961 10.886092904496723
Mo 10.702664445015486 10.210401505889795 12.507950664048487
Mo 14.289055242464944 14.069239042821783 13.92430038550354
Mo 11.98558620537528 12.559730522497931 13.912944133884146
Mo 9.074469702506967 11.956042962183178 11.331675813207259
Mo 14.520263349004859 11.820885972636406 15.26106216858891
Mo 12.0887570306486 11.29506357242792 8.657511834830595
Mo 13.874852401779147 15.88862108758866 9.639931450054318
Mo 10.969881808637295 10.23824660407495 15.379195344712736
Mo 14.437086241584028 11.992779879757887 12.449699642848964
Mo 13.198381147465131 13.30651389463095 16.132498332574254
Mo 14.025976864854318 12.369766573160872 9.815927804343076
Mo 12.81536775731193 10.975085394170858 17.366344521620142
Mo 12.992782832345165 10.261179594581241 13.488935267996336
Mo 11.321634960260583 14.72374257118148 9.898144935488467
Mo 11.173425791116559 9.514102689230308 10.05161775824313
Mo 15.103438088768401 14.756833819032474 8.595083982017586
Mo 11.779458131705939 12.057646094769773 11.163342877101094
Mo 10.619583507946528 12.145769603493692 16.187904568574776
Mo 13.481598432787644 9.570662827909386 16.134387217711186
Mo 10.003955939842728 13.831236992965165 12.113146516357515
Mo 12.966682115858532 14.423366537047144 11.890424528074425
Mo 9.481421802963974 12.026004550399286 13.881951798409181
Mo 12.786035314242403 13.774808587408236 8.193928136595712
