27
Energy = -242.34226222 eV
Mo 15.565094753881633 10.85996996279072 12.496457561267942
Mo 12.531316750101535 13.151137929717706 13.119595278788143
Mo 13.332544484529818 11.260028943431001 11.436545864109311
Mo 14.58159748724487 8.561016040180895 14.209720984600803
Mo 11.170668974484968 10.604981659817575 12.992166536561836
Mo 15.184800009543293 12.704311538016043 10.1562639759556
Mo 9.919805447011688 9.339060849531604 11.374782352701246
Mo 13.185366352792427 11.763431460380295 8.601620580327484
Mo 11.819102898559914 9.526290424812654 10.396892938068518
Mo 8.564702781799882 13.843949332425122 12.387887481074655
Mo 10.912155768285597 14.790023420179331 12.00404314998477
Mo 13.247661511385132 10.010479445862542 16.455521383094005
Mo 10.871691679914573 14.757220271697877 9.766602739585776
Mo 11.513786699769867 12.025323764866359 15.460939911808419
Mo 8.421724693146363 13.461074317999028 9.95191954217273
Mo 13.88592107689932 11.265675469992948 14.141856552853538
Mo 11.928301238129029 9.253398730452258 15.339133779104502
Mo 8.549238513380274 11.616723475764367 12.226569595681159
Mo 13.11473155550152 13.829782879541236 10.625158004820516
Mo 10.553665485040257 12.816067407767783 8.049608635161777
Mo 13.144160912078451 13.660775296209923 8.049228034745493
Mo 15.231686226531446 13.154474377257003 12.464202452301468
Mo 10.632299908876927 12.210298123424495 10.908580101337975
Mo 13.46248653905291 8.693653181017478 12.771120091411335
Mo 10.185914627451005 12.743465065169909 14.263558756232907
Mo 10.516939307776202 10.790254152778974 8.46750353683957
Mo 8.362927187902638 11.36337539441278 9.600484213046482
