25
Energy = -224.56947956 eV
Mo 11.291383682644945 12.090752152576052 13.358123252475783
Mo 8.288119547946115 12.652557786090046 12.24573512279054
Mo 11.129245730584923 13.08872984189137 10.77683109885514
Mo 12.231971812990285 10.496417192164945 13.121822309113153
Mo 12.161555703951175 10.28741859300473 10.212465240145054
Mo 8.163298255763594 12.914675125626802 10.363677968215454
Mo 11.214077939762555 8.360871252340976 11.456677415573758
Mo 9.887638520336433 10.768385531870933 11.38213207921824
Mo 13.20022224785539 12.42852551075949 10.999352843049465
Mo 7.810446726517746 9.566099206486122 12.944201232367499
Mo 9.516952259032657 9.358917321234506 13.656692177570147
Mo 12.267515044426892 12.900689818273898 8.321472984158513
Mo 10.062993121109635 7.911414201179995 6.8734238729511326
Mo 7.234332529997534 8.770296418308506 8.000486440946956
Mo 9.532529082230294 9.653943885188081 6.3728447520201925
Mo 12.105590193472784 7.5854889567287636 8.993543024563989
Mo 11.881589358362879 10.070718654615272 7.813081350002955
Mo 7.595875555288753 10.813992080348196 7.9497544968029885
Mo 10.526623096806178 6.527833629946376 9.460621564439275
Mo 9.545650082220767 8.92414690105202 9.295210251467903
Mo 13.871895736834372 11.696914066398032 8.463635483462916
Mo 7.516598891952146 7.598407039398159 10.549287899538843
Mo 8.923463931243436 7.221807140912546 11.798485140626422
Mo 10.068079021210972 11.474487884431866 8.765803708979954
Mo 7.500674544468184 10.364832426183536 10.352960907674222
