22
Energy = -193.68748091 eV
Mo 7.448167516741082 13.608031514268223 12.592833882822024
Mo 8.442311108181212 12.527103632623183 13.618724082143324
Mo 9.19225406199659 9.603568806388365 10.127547786637331
Mo 9.36485095222667 12.303672422990227 10.970328575822366
Mo 9.343792641092747 9.89170049922354 12.592654271485523
Mo 6.970759408059114 10.999609004529738 11.135931398306736
Mo 13.393563921247413 10.814008377336986 7.4401221088483664
Mo 13.493175601010904 12.507299995452438 12.714480668222002
Mo 11.523211197394858 10.785855419360368 10.976372382811665
Mo 9.289427362870674 7.467861874844527 11.601745597103616
Mo 15.206944753520816 11.854740784895998 12.482544407067477
Mo 6.637988253696519 12.596860577570352 10.121323247798925
Mo 11.11229569441582 9.8209615194974 8.450959472124191
Mo 11.57344786796878 8.662265902983592 13.244386011713752
Mo 13.921316082666845 11.554021869145576 10.056752545363958
Mo 13.492401253137324 9.408000547870573 9.757581238356035
Mo 11.078261407877683 11.288407673596776 13.370935974767413
Mo 13.565407208199373 12.744308205101241 7.820582417458063
Mo 13.416036506842538 9.770191353637124 12.486315491497738
Mo 11.257785669001475 7.955960687850485 10.989446926490835
Mo 8.673063257214645 11.719724482615014 8.78845053953103
Mo 11.184489221374209 12.070877508823395 8.662249788684433
