27
Energy = -241.04698371 eV
Mo 13.028314457628605 12.037800397015719 11.003666804296815
Mo 13.466746241931945 10.422896252437123 8.87638698823875
Mo 14.012395715956508 10.367644154792334 15.25567246241468
Mo 13.72036691603192 7.281153983086054 12.777299506325045
Mo 13.117958794823632 8.63169037127063 15.31179177311647
Mo 11.102221362464837 14.516752072425282 8.971002071196978
Mo 13.61273267547857 14.079729479932551 12.07506201272869
Mo 8.189311397994718 14.068648321134772 12.381047611286219
Mo 10.587748844991502 10.879616053648153 12.14414070708292
Mo 9.49505759997101 16.51407127496608 13.341261831883727
Mo 10.823722756020192 13.485867607866199 11.55006629852591
Mo 11.775037379513563 14.879460947136353 13.784989111864036
Mo 13.111761421553993 9.94697802534349 12.753659783700238
Mo 9.384140727017027 15.2364245167969 14.730429911065764
Mo 14.872305845392388 8.868562018992396 10.73324454028285
Mo 10.105598017078425 12.662580346826799 13.836995042575339
Mo 8.821884373163801 15.026786427343191 10.905294209884971
Mo 15.210594722584293 8.194004007522853 13.487555857441807
Mo 15.311253238100658 10.610564242841075 11.451862125871925
Mo 12.142486392515552 9.635638608996311 9.926706225281164
Mo 12.648073186113848 12.327032129846621 13.707982325751894
Mo 11.199300545279694 10.499363605679733 14.91075031550099
Mo 11.165451678001574 12.628563037562545 9.05551822035935
Mo 10.947733496523124 8.847346910899427 13.366322249771867
Mo 13.937465833919294 13.74540674194589 9.124400199934598
Mo 11.511909878490526 15.815706255266333 11.605458437666888
Mo 13.713534240189205 15.460283871638614 9.832346088137696
