23
Energy = -205.17023195 eV
Mo 6.714419856331037 11.613442605369588 9.701739035545726
Mo 6.558190645388079 9.839781523191293 6.952484567518409
Mo 6.915085437503554 10.254367743592262 11.571958473949104
Mo 7.080858797221825 8.96281398865747 9.218318457025331
Mo 8.669295880320751 12.832273853201684 9.700541464791518
Mo 8.80731841072848 9.167929108902847 12.841912764484096
Mo 8.608804217148897 10.968898001293132 7.813571547658323
Mo 8.33286926154355 7.545311885470772 11.256715019301513
Mo 8.81550633162918 11.942569467059768 11.905073084722062
Mo 8.046468352935895 8.499838831100993 6.604193311647441
Mo 9.13507471401499 7.495976342888513 8.868322639813114
Mo 9.267128578418115 10.032596327707061 10.135063528318964
Mo 10.482258216399595 5.851357630010919 10.476699348193689
Mo 10.745354803162092 10.464270913112049 12.452922292584326
Mo 10.405776030662269 9.233299824608293 7.73771606744943
Mo 11.115723045418983 12.523482068172996 10.56537748479402
Mo 10.857577759805876 7.539522788323905 11.415124793941532
Mo 11.229245300976913 11.624430833685738 8.473846449479828
Mo 12.203618398401122 7.518156641585209 8.759671310726342
Mo 11.960989498214392 9.792221918494866 10.247673300342612
Mo 13.283207120957302 11.762579581117604 11.637418547987632
Mo 13.218376122072069 9.017009369156398 8.145672292125656
Mo 13.688975430054764 11.65814873918783 9.728220814182842
