21
Energy = -184.85624956 eV
Mo 12.467079930596686 8.496958427093233 11.392147697385887
Mo 7.998606268171699 12.274434814916146 9.40945082507038
Mo 10.122665797898852 6.587849953976943 10.424198055741297
Mo 10.025908046938902 12.645029266418609 11.290144480239062
Mo 9.159668327904846 10.18446735043078 8.058301419246176
Mo 9.127084113756228 10.282761155714596 10.956747566760692
Mo 11.796381026077572 10.023095357250725 6.958374948232059
Mo 11.884890390709716 14.416671161484759 12.431870830998843
Mo 6.995020647901512 10.57724064620786 9.5746172670068
Mo 10.284674763278636 8.33171041501378 12.151622369965875
Mo 10.918127861229623 8.922064578647818 9.399440838576316
Mo 11.68905936178503 13.009719801251718 13.612272326489006
Mo 11.658839619671502 10.876890673201503 11.888177140804752
Mo 13.029933173402728 10.471720592689623 9.858118919305781
Mo 10.70867934062701 11.44883445193374 6.391426457678228
Mo 13.86425540861691 12.317194813484198 11.539288100788598
Mo 8.552176588037833 7.962150706903539 9.8256413466416
Mo 12.78950926389178 13.220410302192867 10.140351055063679
Mo 7.9137662266993365 6.758239019584587 12.370655434977541
Mo 10.895361521889907 11.704627063292714 9.116771781826372
Mo 7.301327607862321 8.456201733579697 12.30834927612628
