24
Energy = -213.17735955 eV
Mo 12.96215678709621 9.583035582116443 14.035280302711746
Mo 13.682132637432728 11.071188173340136 12.70456447607982
Mo 12.991998668467248 6.882285551700173 9.500863000742855
Mo 9.977899165601663 13.198176880327003 7.719604215207317
Mo 9.200228258402518 12.104921181050877 14.437491479916655
Mo 10.317793045653456 10.534758282827799 6.453825532839517
Mo 8.45157797968531 8.550843091299681 10.860195452452796
Mo 13.198693127892515 10.00368500146485 10.099819308414434
Mo 11.546634236479619 9.342923335149427 7.333766688538956
Mo 9.148260191157414 9.02899292451116 8.531186798406338
Mo 11.858933777704681 12.534610408856015 13.357521944471587
Mo 8.937196600009198 11.77971748282683 9.407763029764842
Mo 11.717945850927988 11.810315834214348 8.461243767793727
Mo 7.7197688376822375 10.625466785623326 7.732760397983358
Mo 11.266988721755018 7.345521244124503 9.49201192891968
Mo 10.637315234780317 14.145360215800752 9.605170981855682
Mo 10.706752521963391 10.200359751424495 10.387892855776798
Mo 10.873528081237787 10.341552706377694 13.087010447050115
Mo 12.785145100603335 8.60323444163423 11.618577099514177
Mo 9.824129587013566 12.590216577459028 11.730086879136294
Mo 6.895414921626014 9.752859044896889 9.999763146360744
Mo 12.176314851606818 12.581259679917293 10.728299588313773
Mo 8.667919067210065 10.231919983315757 14.536791965235471
Mo 8.256837588212987 10.773491823398832 12.084528275698686
