22
Energy = -195.36613973 eV
Mo 8.512783375741849 7.72286607369598 11.335211928783972
Mo 12.290504867655867 10.533457293748354 13.522936998543933
Mo 9.089375305878784 9.243670760300466 13.211843588582811
Mo 11.086714576321087 8.826321003452502 11.846268337285549
Mo 10.661767987591938 7.29010385177828 9.53548075630615
Mo 8.329724322047852 6.50007996839406 9.142393111363885
Mo 11.10761787897032 6.267624617940374 7.135592972629749
Mo 11.935004896170362 9.406315575113227 9.589635388285492
Mo 12.93514079128494 11.053658629595843 11.820298313200333
Mo 7.462143216465974 10.156258209651636 11.60493112328509
Mo 10.141247314991995 11.17816284165103 12.112314359858265
Mo 12.074852634210364 7.925026132297703 7.093476484167743
Mo 9.36918351406152 9.752764165443399 9.79347511749926
Mo 8.6946623136242 12.312750504583285 9.95974221303867
Mo 9.297299703050825 8.107303368692861 7.520045153598452
Mo 7.0704607500563315 8.520514245195544 9.275398148630083
Mo 6.608083238453071 10.910595484689852 9.532416693963272
Mo 11.008951096974588 11.927050806048241 9.788996486212715
Mo 10.563016231572337 10.35669920635218 7.450531842795568
Mo 7.963675860336702 13.208648325302384 7.738882608606389
Mo 8.238557213643567 10.753378400768993 7.581820939005608
Mo 10.042098158920048 12.967743293710868 7.5259250541582015
