28
Energy = -253.90772843 eV
Mo 10.424471383493405 11.826260734742236 7.039922301679462
Mo 10.865231907159504 10.0652904525163 6.231801240210451
Mo 8.224901181207773 11.646905271245968 8.636714574862925
Mo 12.02436496755777 8.117379883343611 7.730106547307661
Mo 9.006668332420311 13.945457461487631 9.145309082410265
Mo 12.618322984391167 11.092989246830761 8.380012209987903
Mo 12.159563073890505 13.308230675646499 8.829304953767771
Mo 10.516396792748226 11.901388412560776 10.329251552630756
Mo 8.338496915091055 9.613864109923496 7.18174662059481
Mo 10.276169326108464 9.662767703395911 8.89206507014772
Mo 8.391911768875817 13.365112885513254 10.996841648145061
Mo 11.453985499189033 10.907722485522966 12.772595847193653
Mo 10.968739643314604 14.666552870525539 11.064396102413127
Mo 10.939215911037785 13.546353365737467 12.587183510671256
Mo 12.793142977167099 10.19792130656413 10.768665132950279
Mo 13.035771394806101 12.57873022639849 10.810969244805607
Mo 12.327679301986933 8.343935940882748 13.128101577487364
Mo 8.904456295735477 10.96664640019416 13.366756239226333
Mo 12.199417635391864 7.870386210542814 10.28746922425694
Mo 7.965674600128624 10.599154108825598 10.738449933631985
Mo 10.112655818457231 9.155136312788027 11.518932170819578
Mo 9.56593113467759 9.26645289329684 14.11733913593163
Mo 9.894874948273538 7.404153817514825 7.3445846208720615
Mo 11.324310834043626 6.851506920131691 12.57653266542951
Mo 7.337574155162985 8.58173245034232 12.28982590843239
Mo 9.985601634967942 7.059457548324065 9.641333597239225
Mo 7.917147665698588 8.546248231487734 9.358203848010325
Mo 8.424837726013516 7.058875024071324 12.15649725296219
