22
Energy = -195.47290379 eV
Mo 10.384740690283246 7.329658121166994 9.257051405278844
Mo 11.652900429151266 8.661090549418864 7.613484287876962
Mo 11.184728317252002 11.124791474588905 8.77780762331837
Mo 11.6621846452957 12.426836842415696 13.902116063967641
Mo 10.017225088414566 14.105543741688258 12.690232280305153
Mo 13.126740893103122 11.947380659014298 10.107412166923195
Mo 14.040503531876569 10.145586665052717 8.34103887420068
Mo 10.799425734011953 10.249773086005579 13.454359263157128
Mo 7.629805016034899 10.725525593372023 10.671921439241865
Mo 9.597693973103059 8.865046402561505 11.522956756648192
Mo 13.13326452313884 10.831756771529191 12.112815029449392
Mo 9.32726996460113 9.472882769884212 9.256547252368122
Mo 11.10796039869178 13.94264314616021 10.288345001116685
Mo 10.400262987916282 11.663903210294835 11.44453928216937
Mo 11.850651058199686 9.410140464687018 10.421728076452405
Mo 8.47801193041919 10.771600585456838 13.41769402279138
Mo 9.425660006709634 12.609583729559194 14.620411635722798
Mo 12.570444330800443 13.852798367192474 11.723971141169486
Mo 14.58585916021932 9.504226317682578 10.11428656430865
Mo 8.560783896155655 12.287146110270621 9.665350304947783
Mo 8.118488227772414 12.89420447986645 12.23802157395135
Mo 12.967638437043565 7.591454342706841 8.773431444146427
