26
Energy = -234.65613745 eV
Mo 14.608365586312921 12.295912334604026 16.434755879220965
Mo 10.58500851490231 14.889255909263085 14.602705007943912
Mo 11.375441544067144 13.020405117118782 12.75538376420249
Mo 11.028673288850063 13.24102705403333 15.692753581619884
Mo 14.649408122633284 10.452077590089381 16.25657461295317
Mo 15.257530237773441 11.859881592486618 13.669633922522943
Mo 9.745756515102768 15.107181783733298 11.858891744557988
Mo 12.723192367101515 15.508540370867566 12.937723406679748
Mo 11.417781909407436 12.251925274554193 9.973062538471781
Mo 13.261980822213273 8.467557488846383 10.97671260807932
Mo 12.681496948658474 11.365891668474777 14.563176685470221
Mo 13.212068472546768 11.232868454393572 11.68357968447142
Mo 9.169815346119329 13.318008787669838 11.080601285574824
Mo 10.293696167432216 10.70601584887268 11.879472853583975
Mo 11.788657196518425 14.53622025909236 10.60931181837095
Mo 15.966320741101375 12.10026469962628 11.150951904523358
Mo 14.449494253321278 9.708792658914792 13.636774798028855
Mo 11.844746859229407 9.281664568598943 12.861543439751316
Mo 14.005870799421318 13.811462232571081 12.026072149502117
Mo 13.775909816106983 12.835078217147114 9.366520180060549
Mo 14.068639896315402 10.878858503769333 9.105197215099713
Mo 9.946869266565875 11.038596170599131 14.312189582732758
Mo 11.83847758746714 9.441600658983754 9.98170201584121
Mo 8.911759144545108 12.76135304358786 13.772434864452912
Mo 15.695987834525827 10.125887856973616 11.312271544153464
Mo 13.323310551013282 13.85196814839673 14.583628770582523
