28
Energy = -253.40580394 eV
Mo 10.953944240404654 12.96336777136015 13.06401062481114
Mo 9.219480571369107 10.4887310384638 13.079265507134838
Mo 13.027791081963871 12.605660515401734 12.900338197223775
Mo 10.426213032256218 8.18575208229795 12.8826902039978
Mo 14.582376654547073 10.193860648241195 12.341862448623477
Mo 12.557446748681638 8.374476343791441 13.08691861496325
Mo 11.810267967098296 13.547884229285025 10.498661061436026
Mo 9.728537255734512 11.94303893669839 10.81550805635199
Mo 13.633289095485411 12.34429965346412 10.361814998731615
Mo 9.614597331115016 9.302289545506992 10.601951720724216
Mo 14.16367821418657 9.478994750628608 10.671604919822705
Mo 11.868418369071815 7.962418618313734 10.434984237070758
Mo 10.449243348728018 13.061399810625753 8.253550527826954
Mo 12.520929753603793 12.655808822389512 7.831281864639636
Mo 9.083065569176894 10.771459664989704 8.350938688231482
Mo 10.37606348643714 8.241563739836588 8.188964452207339
Mo 12.625625533912515 8.492982186722987 8.18975388304992
Mo 11.408160838000017 10.514324559007017 14.266774838742672
Mo 11.858536161711905 10.532855528972645 11.894444655343692
Mo 11.721581933747812 10.673100201714977 9.267350989365548
Mo 10.963084178193945 10.45736678624377 6.9634041409692315
Mo 8.980422728820425 14.498423306809347 10.257838954767072
Mo 7.711503027571947 13.235644571293124 9.552781193827355
Mo 8.252846813576673 12.714998281465439 12.410016636474326
Mo 7.193336369675931 10.531405868945818 10.905353631653403
Mo 7.3486628057245795 8.899168119086626 12.0614308244431
Mo 7.528110864627989 8.293189455440775 9.018728749115924
Mo 8.531261014354165 7.020748192734605 10.01732452748573
