29
Energy = -261.19907819 eV
Mo 12.449778888604211 7.082019260074712 12.790401798761865
Mo 15.157386631402774 10.869317037121384 14.919665963109438
Mo 11.5694415731395 15.911751105687456 11.241497084438965
Mo 9.985502958132363 15.078721840827022 12.94681829400001
Mo 12.967447490536186 10.333101508816801 14.058425606016131
Mo 11.799164875683752 11.027538288965014 11.655805379632424
Mo 11.804489481087655 7.96426164642245 14.44630329534683
Mo 10.820895810409725 8.84121367214767 11.936434682851223
Mo 9.09013419377214 11.49837334504715 11.815780927487445
Mo 11.188010939406078 12.443172939539007 13.606176635708348
Mo 10.096040790418074 10.079679845482566 13.731224679408275
Mo 14.05420545738404 12.14784210489809 12.561916573221746
Mo 14.67919750901176 8.437688268173051 13.262939841651114
Mo 13.748736554915574 13.006548237663033 15.026926895269186
Mo 16.32072386450111 12.597181559886302 11.46133827828323
Mo 16.317765367980467 12.925241826255133 14.265940770909335
Mo 14.173363330752487 15.593307404311112 15.13302059677796
Mo 12.750359288741109 14.597992174651756 12.914097256068061
Mo 8.60881190566278 12.679537516345702 13.386236555330637
Mo 14.033915660710358 9.327237845518953 11.598029148617174
Mo 9.053637425446015 14.297586660193343 11.204350699652132
Mo 12.141426567064578 14.87687209310282 15.402527269918806
Mo 12.15544849351755 17.174564654819797 13.71418468719646
Mo 13.734320830549642 17.112927792434043 12.610255514273858
Mo 11.42308729997634 13.476585162885403 10.890396681448724
Mo 15.372035508833898 14.614356086158837 13.026035907353194
Mo 13.990627705843758 14.149687107196932 10.41055103029338
Mo 13.895055464837553 12.24109864635928 9.909116529218904
Mo 16.261854370509703 10.734161696432691 12.555346643655946
