25
Energy = -223.9912676 eV
Mo 7.5619765858697825 11.755591425548003 7.399215847482583
Mo 10.373129972373837 10.927395080258952 6.8008807826330395
Mo 11.383607963026058 8.757483454432252 7.363535261565989
Mo 8.67189791744693 13.136604947608783 7.958103545368548
Mo 8.92867016947642 9.233931283721754 7.5279146601630105
Mo 11.31498375022238 12.583424513728527 8.746452465213935
Mo 6.795856283488864 9.791449741167796 9.44890136222345
Mo 12.242051487498125 10.358048056038028 8.935213151613693
Mo 9.3829256038951 10.845150473812955 9.38331100901064
Mo 7.954364656931161 7.147126926765142 9.192518823408788
Mo 12.907808198272727 8.244578981640526 10.685656616011324
Mo 13.73631141263056 12.705896797703966 9.65961648121445
Mo 7.188504890480539 6.889471071993294 10.94934482575108
Mo 13.865094252087099 11.21816704252527 10.929210109422533
Mo 7.233503185764873 11.605808744499774 10.406874550243888
Mo 10.349220820648581 8.34683816434248 9.70742914910949
Mo 8.317089516413997 9.165869181622586 11.311400874493447
Mo 9.862969681593066 13.166682903189365 10.864279050976892
Mo 11.754131536969119 13.169705371095866 11.524872566103493
Mo 12.334072529431483 8.443408874915727 12.457741237317066
Mo 10.04253243324587 5.9950604341169536 10.85691106706794
Mo 11.292893666358003 10.575927939316815 11.313010588195867
Mo 9.186157482020164 11.345848588452846 12.871559252201578
Mo 9.738955522434452 7.053978361648717 12.355883919730648
Mo 9.755149132986976 9.710410291419791 13.524021455042924
