28
Energy = -252.05003205 eV
Mo 11.892108457964136 13.695209913069851 14.803876263715134
Mo 9.13272677609514 10.079342525960572 13.335184236173989
Mo 14.601273922005861 13.754847614475386 10.316511446426434
Mo 14.793041362239142 13.770741397106228 15.082010079716692
Mo 15.260181298908071 12.143989414593536 12.782367927191787
Mo 13.35923175109973 11.619505132663654 14.235387510754801
Mo 13.764593772429787 15.562664402051132 10.718156908932333
Mo 9.564194604538466 13.027601076091317 10.812263977423823
Mo 10.836537773705633 12.334995438836007 12.767510663798305
Mo 10.27290268897963 10.53724181040763 10.705151931213766
Mo 14.49976960119974 9.4120095751547 12.854632020382956
Mo 11.818720358626532 9.75839453350129 12.729956600492656
Mo 11.580038338647126 11.547930742696412 9.156949771530718
Mo 14.200726108117088 15.924098707385872 14.002193714139546
Mo 16.8567861201156 13.56541264605054 14.299385336509069
Mo 15.274541675033392 10.05704223964453 11.096924479134277
Mo 11.8957077427459 13.698557498639216 10.275096339227517
Mo 8.200497806830594 11.600122748422626 12.473672793635894
Mo 13.14678823422464 13.921445277407507 12.755017304899727
Mo 9.418827871873951 12.262566388774424 15.087224771959601
Mo 13.072479135958742 11.499037313252897 11.242269000450436
Mo 10.923543369403475 11.090159773534674 15.36616296044688
Mo 12.65453136604849 9.129361582391745 10.662748117343769
Mo 9.28201622332088 14.570682921254916 13.390275260330949
Mo 16.292086146251542 15.918062617837577 16.086305935627443
Mo 16.93038062449085 16.645957228586745 14.548255462715726
Mo 10.712242073943614 15.234081717547099 12.421291462621298
Mo 15.724188483587609 14.958955609260382 12.624391688283737
