27
Energy = -243.03789298 eV
Mo 12.550734680851885 7.355647751495985 11.508266121109443
Mo 10.994534689749237 9.682222630912575 12.440569750149146
Mo 12.849708373609525 7.200410702843723 8.58333956146184
Mo 11.056814324037877 8.975431348948375 9.97229071876896
Mo 10.270695307002327 6.543556783127968 9.758082393322761
Mo 10.696956611938766 7.186577956010036 12.294408198128384
Mo 9.919524452639807 11.732570366214935 13.52291000950085
Mo 8.559645528969838 8.397419012242647 10.326374043608228
Mo 13.373450963211393 8.987895342287125 8.546213212225968
Mo 13.09897787264285 10.378408025330755 11.158592947676997
Mo 12.179096219767894 8.533533997218061 5.923228537265903
Mo 10.101256171096477 7.762687173336495 7.646863214036612
Mo 8.439431879759429 9.325849765779083 12.869811867672485
Mo 8.018489230249237 7.319580382670983 8.207433996161758
Mo 11.77542381412368 12.135775043881535 11.36395124089404
Mo 11.506222572650186 11.481207981571739 9.07914395558779
Mo 9.248955988544628 11.15836810624326 10.883427956696398
Mo 11.381498577549795 10.0731169275427 6.3688461014343325
Mo 9.151441866156707 10.075633471842236 8.272860833805666
Mo 7.783781344767615 11.419028950704964 13.301696958140184
Mo 6.592896851688605 10.369090516327015 10.883368802568835
Mo 9.06647796302314 13.766904030756628 11.856681205686415
Mo 6.354101717930971 9.510035654513059 9.133519195942819
Mo 9.765347679939602 13.251387903087336 9.192622949629506
Mo 7.557366436524921 11.843052831695411 8.701115378455478
Mo 9.562288717800685 12.410980659690656 7.212884529998422
Mo 7.39871911057386 13.314190441276573 11.068876169642493
