26
Energy = -229.5216861 eV
Mo 8.331337217499904 8.503565728253236 14.240994714148325
Mo 12.104940896942699 12.730448701589124 10.29747574362442
Mo 9.976983737822657 10.599669076420659 14.466683447893434
Mo 13.09904156083083 14.534962003729495 7.9228777047667585
Mo 10.996250730989718 12.984820177821907 7.758935996763108
Mo 13.447740510538416 10.428351841617628 10.510759857172383
Mo 9.121671321356118 9.77866936368398 11.9751462968381
Mo 11.359890075513734 8.875200337502584 10.562448938582376
Mo 11.561540353336532 10.89928474800096 12.280687379784721
Mo 14.26284167430359 10.760106313834045 13.013511123458896
Mo 13.325846466393099 8.522304573813585 11.821380942414745
Mo 10.74797649406068 8.212062897014958 12.614900030231254
Mo 10.031219086535275 11.068017683126403 9.735271576349609
Mo 12.17653460236984 9.501150090651205 14.610743814584904
Mo 11.725131337795727 10.766887451554249 8.405951327516851
Mo 9.656457667059255 13.572659711067523 9.54201630580331
Mo 10.61032688516951 13.036235308650944 13.822809304387452
Mo 11.262448164499247 15.326567767892065 9.811509716895861
Mo 13.92385214630726 12.721389990782454 8.467446316880967
Mo 14.773664089607085 12.747970830635115 11.046638214420001
Mo 7.371902496385786 7.962556334373697 15.603432543194822
Mo 11.046283134161639 14.734149861130257 11.795097326940583
Mo 13.022864264096018 11.480375411709808 14.792729104742182
Mo 9.40145539677262 12.506772357196033 12.251951459360416
Mo 13.665663383509811 14.824146041654773 10.30894569074023
Mo 13.140874683995696 13.173655148431914 12.555590513437936
