24
Energy = -214.67407262 eV
Mo 9.771197247111525 7.940861358797492 12.820483388577102
Mo 8.679500512964871 11.23762743904246 8.154447472584916
Mo 13.463542074114672 10.798951761415388 10.596634665223313
Mo 9.80325804522332 12.48567704893376 11.659915613922188
Mo 7.936424095701751 13.521631078368122 9.750444212999613
Mo 11.464894368078635 12.174405417831565 13.90053057496825
Mo 11.506682204071268 7.392848260660248 13.051802604272426
Mo 12.988725679539273 13.138228899876125 8.842944985816297
Mo 7.310927369284874 12.06835076816097 10.665983734378766
Mo 13.57007629380011 14.79684582707265 9.694408721522795
Mo 11.374868729900502 10.20183102230034 12.335674888256124
Mo 14.694602662737012 14.04225969664676 12.300859573624571
Mo 9.907453152758082 12.574816253301227 7.751783186286376
Mo 10.764481670947415 10.105373087198519 14.985483336142021
Mo 12.054700702285881 8.373616483358681 10.510049651790933
Mo 13.659367579458563 8.589239779864904 11.756803897146062
Mo 15.279108015596243 12.845993114150197 10.80393025247369
Mo 10.784100769639707 14.09360295988273 9.859489789440412
Mo 10.973635647796675 11.28454152963437 9.783436906375604
Mo 13.699569010768741 11.558868982871166 12.941758250345705
Mo 8.846405031902606 10.613831153295182 12.80557330540661
Mo 12.724658331751975 9.677106714516757 14.609440285425155
Mo 9.203938060318043 9.823786330701008 10.616934930831608
Mo 12.444694335182916 13.188289554211488 11.514118391568134
