23
Energy = -204.9983065 eV
Mo 12.111388383426869 13.99429571047415 8.64247852213553
Mo 10.226052096455339 12.377448906765634 8.22103341714957
Mo 10.670168795098748 8.595278049968401 12.360640676846353
Mo 9.438899009133648 10.714383487873873 13.314530132741215
Mo 11.415209168658228 5.715839067950951 9.61458851073811
Mo 8.375293350880078 9.723015476297345 11.07729479717926
Mo 12.205316408197433 10.438512045963353 12.634579090578312
Mo 8.79283852907084 10.25350236349569 8.586491620391197
Mo 11.797494224668748 8.41897871000482 10.233374924164886
Mo 11.399043527045475 10.171722054528441 8.373259505878814
Mo 13.07152768529282 12.325718783674931 8.168981774808698
Mo 13.316443003109537 10.736516803202099 10.377979222441214
Mo 7.1515036017020375 11.87673281689884 12.414117791754379
Mo 12.839068150509165 12.74043265710002 10.948650906910402
Mo 10.979269566586003 12.39377379330404 13.071065067944145
Mo 7.8956590436074645 7.971014360689377 9.02286549986695
Mo 11.690354063301656 5.902616475220308 11.40892308987951
Mo 10.523735910725541 10.970460490043298 10.647256879708753
Mo 10.156135447583011 13.422794014974631 10.582506268518854
Mo 8.119924763603318 12.298216418188627 10.088301571173394
Mo 10.085549923774455 7.869929993232345 8.176058750839323
Mo 9.301303856449238 7.270654387113373 10.67719590932078
Mo 8.455219102706103 13.322626503672033 12.748342973976786
