25
Energy = -224.91282389 eV
Mo 10.992174253265146 10.452522566930769 13.073728503204526
Mo 12.120703849266768 8.903874323212749 10.659973631239751
Mo 10.589867013360914 11.896409559325743 10.779487461852115
Mo 10.10752716583804 13.150257717535059 8.131724067893783
Mo 8.56092971069685 12.341894370155533 10.632549805606414
Mo 12.780218770554054 8.055558108160895 9.12280011221217
Mo 9.011255380684423 10.941524191192459 13.090743374393169
Mo 9.586873331233814 8.147240679105161 13.189883423431205
Mo 7.613441933113913 8.626526578127052 12.982854161464779
Mo 10.238974333591061 6.620804938383641 10.852469866955808
Mo 11.363525002069307 10.489393393064523 8.440888637060766
Mo 10.078163320714662 8.16509578655755 8.805696011109825
Mo 8.205525831922419 7.0597407349628 10.819218019513627
Mo 11.403156034476462 8.912781312203583 6.560122564271854
Mo 8.866154028804129 10.685398540311658 8.693218045975817
Mo 9.93421876972826 10.744534238845933 6.1871827570308175
Mo 10.580779989652891 5.896981360977329 7.570689872562212
Mo 8.464486434116647 12.884331488641074 7.310864963971629
Mo 9.383610041527087 9.485711928596247 10.981714983630594
Mo 6.683716885572583 10.046971799491482 10.42399063197001
Mo 8.880830103005028 5.6715188633032385 8.28092901256396
Mo 9.197375091716118 7.968001688063508 6.234192980355992
Mo 6.144094556779407 10.80349851082203 8.798914376587609
Mo 7.710646586528743 9.814565393712225 6.396467693871245
Mo 7.609801673338226 8.342723535364227 8.35991368653562
