29
Energy = -262.53728992 eV
Mo 12.416919132061505 13.922088542554945 11.510762007094025
Mo 10.299452643494647 14.620374226140573 7.654223915963508
Mo 12.412984923916163 14.123290609021158 9.605681059932458
Mo 9.962503323009656 13.086610136437674 10.100223784155306
Mo 12.848939578144671 11.407122426805149 13.104576627933785
Mo 11.208303441972966 12.25241880011143 7.852642598128746
Mo 13.783567086217817 9.7936809757087 11.960330623602362
Mo 10.53614581288089 12.266909088603395 12.47086112894679
Mo 13.884199402215119 11.49101085004341 8.09606066949348
Mo 12.627797668303042 11.500042418379467 10.426410094868531
Mo 8.71756310358211 13.549148608382465 7.65978766513007
Mo 14.206574809417068 9.78858764590237 8.939423747464192
Mo 9.523259415647438 10.818825671136077 14.513929068593557
Mo 11.140440901237042 9.577320804052334 12.773199874910215
Mo 10.116202414180222 10.46493498125846 10.37278444312483
Mo 12.045842398968718 8.53142325249429 10.718563791917797
Mo 8.199550790112076 10.939574739506737 12.00604168372066
Mo 7.70064537663318 11.948565567578068 9.841707744448385
Mo 9.338270685523483 10.798063195923003 7.971525441495395
Mo 11.740551271919564 9.718687326966803 8.193892265281871
Mo 10.85005757927951 6.768919574192087 12.674123700271199
Mo 5.817776503277226 10.23235514593518 10.560154927746963
Mo 8.815161835915069 9.1106330811049 14.115150166234484
Mo 9.032743715049168 8.193809520207022 11.332468215953192
Mo 10.856441122685855 6.039144270632223 10.958877201909724
Mo 11.803234689770791 7.174105440423262 8.398325123407567
Mo 7.772417634060823 9.249313052761957 9.489710479732295
Mo 9.94601084771742 7.766115110998148 8.684310756956295
Mo 6.609574337510597 8.955107921872633 12.017306989434909
