21
Energy = -184.89330266 eV
Mo 10.82556629437927 13.258970279936236 9.492928051364236
Mo 13.86552496788711 9.427559907410096 11.597994599645943
Mo 10.802757902628858 7.750080521973818 12.20600628612248
Mo 11.684219194456851 13.120544574205633 11.410699107319283
Mo 12.963448146059767 7.282472400585605 11.264191332743513
Mo 9.169457887884729 11.87262725094461 10.880677729322327
Mo 6.60873543559202 12.645455579839911 10.680544114739039
Mo 9.242610087465735 10.403175235091167 6.423079030888543
Mo 6.65751688575084 10.952578289138641 11.4507504600045
Mo 14.806957114121113 12.214255640052007 11.582493574618596
Mo 9.083923972669794 9.244399673206932 10.4035573897492
Mo 12.765661860670415 11.26085081021065 10.171269558120358
Mo 9.143458196997832 8.840708275775267 7.442006752663773
Mo 12.406833469204308 8.863850690574107 13.461069889048995
Mo 8.254143622295915 12.521295295039565 8.26887780933372
Mo 7.476340182391996 10.736556570851633 8.718065725820324
Mo 11.196079075556696 10.468880281303642 11.954076558248614
Mo 10.432110426744142 10.902437099976042 8.705526095273392
Mo 13.649171651743647 11.730764131686081 12.997228656735752
Mo 8.97299290235555 9.473647814379621 12.618979104660083
Mo 11.701453864775686 8.812806760748346 9.866625052188079
