27
Energy = -241.65060359 eV
Mo 9.298436914333143 6.376401661434318 8.214801645667432
Mo 9.294199839469837 8.086809534159748 7.192322670678946
Mo 7.848215805441377 9.956376450986689 8.598699746471315
Mo 8.222706968849883 7.992925643327315 9.788228548915804
Mo 7.94741134246251 12.813865241061198 8.607281613027046
Mo 9.904623646084232 10.93733405158056 7.577605876447621
Mo 12.931218470014128 11.725050451441945 7.22620841599295
Mo 10.936244213669056 7.817263857023598 9.654926827372458
Mo 10.52165743649436 13.522838045882267 7.388045167646362
Mo 11.629392146021505 9.392867433098322 7.9532143511573326
Mo 6.71203784958103 12.19463271121756 9.876229102161728
Mo 7.8231663278806245 10.127008850548377 11.424945319322394
Mo 14.326821757243547 10.622380990056506 7.767946250159509
Mo 10.102723874648955 10.401593445877394 10.132296393817677
Mo 13.313320096399107 8.565323810979104 10.060655463179542
Mo 7.777515443796386 11.821277051157614 13.168708704177323
Mo 11.923360594037275 9.240146731057143 11.85086703375606
Mo 9.534633380133116 8.346243380321651 12.05673942088206
Mo 8.210525331229958 9.24940315365783 14.503421165551233
Mo 12.832868001084329 10.964152234450767 9.869897037356456
Mo 11.529270292864274 12.13819283111701 11.801095023061995
Mo 10.954525691077427 13.07400718236027 9.144014421399207
Mo 8.89695332250012 12.594127445751948 11.287168504651882
Mo 14.03706530052139 10.810115618629782 12.378435365281337
Mo 9.99112635535612 10.816159999628509 13.153398165678471
Mo 12.850331947541587 11.081908997712311 13.814622610001923
Mo 9.93259262382893 8.548612162624844 14.673932967176526
