25
Energy = -223.27140645 eV
Mo 5.753044291189462 10.444312333277146 7.1445482642240945
Mo 8.431887379601083 10.24507642081212 7.200024783163396
Mo 9.93172885230031 7.96658002800184 6.312531631276879
Mo 7.04120017886017 7.680924541375581 7.360812518212267
Mo 8.780763487641304 5.6564937339699375 6.701966643769033
Mo 11.910696263299599 7.9112685898853154 7.55910375432881
Mo 9.209043570426214 12.242747455524668 8.06215958911351
Mo 11.188480527382561 10.251358051232733 7.668961934330535
Mo 13.340422312138585 10.141522049920264 8.514548245417249
Mo 6.346814577048627 11.738781503336472 8.372122392072784
Mo 9.478088807219283 8.1119592877329 8.746519913304871
Mo 10.321340301641705 5.643505935716336 7.953489632103676
Mo 12.196806594610118 10.741027827335365 10.279980027984958
Mo 7.432574704088524 6.497535325642529 9.006629970397897
Mo 9.635678933960174 10.501232557694701 9.83782569238227
Mo 7.020744001277818 9.28688794190548 9.342371111974279
Mo 8.183146269192768 12.709008020464434 10.36049646820056
Mo 9.794781758838962 6.332796828314466 10.938996889333549
Mo 11.710046450438737 8.412532275642548 10.189304657252176
Mo 8.381528110657072 8.20202006861781 11.359967473403742
Mo 10.241634600557253 12.690430980940041 11.610153894924618
Mo 7.347326902767593 10.739006292344367 11.342491230614709
Mo 9.95397251215238 9.903923059746756 12.233360443467017
Mo 8.837176135052411 11.98703496696088 13.017693250980098
Mo 10.943496551847314 7.3744579977954166 12.296363661957233
