23
Energy = -205.0443322 eV
Mo 11.602172769912329 11.62663167496573 15.095462247297089
Mo 8.899191510357808 10.47707736057003 14.716308538744162
Mo 11.541241424255846 13.662229287477038 7.837252245962414
Mo 9.462048698350932 13.828173757141654 12.194302160249082
Mo 9.511831792982658 13.952250788392616 9.222001915809535
Mo 11.515355266793609 12.871559275026081 10.412017064205651
Mo 8.753448877052985 9.477316879232049 11.663681267778513
Mo 10.880559040688 10.263552101706086 10.00738324235212
Mo 10.574866564856343 11.861155590605327 7.779353656027677
Mo 10.226779429487005 9.155128653605145 14.415061906506047
Mo 10.545038241971936 11.19722578338975 12.566087586234428
Mo 12.778933789844155 10.432093987384935 14.186373145393546
Mo 9.733262720549725 13.424628611005371 13.972399390635795
Mo 13.153378378791123 11.23959010845931 8.355444424358687
Mo 7.87110982306845 11.22173399502029 12.37759244049611
Mo 13.159455337752581 8.690912733561213 9.506509383959617
Mo 13.132049927827929 10.931904674351648 11.509835919102505
Mo 8.956615910421782 11.878400138953735 10.105030413884657
Mo 13.705273298791148 8.560009953960288 12.282565040002053
Mo 14.000573448882156 12.544183764289562 9.646252893962119
Mo 11.595887537924746 8.618157491818907 11.939407721646882
Mo 12.360030947833218 13.0230924269199 12.728609272068061
Mo 14.852975874065125 9.502202735943852 9.984165068512265
