26
Energy = -233.80763691 eV
Mo 7.291103649408082 9.249090714405112 9.101698694104742
Mo 9.866341756496736 10.890558789545818 6.891809633681185
Mo 7.197510926692641 10.566245431094874 10.869851508661123
Mo 7.867988062020721 11.456011549227197 8.00013438844451
Mo 8.963632127836329 8.240319348432076 10.92219952282009
Mo 10.404682537965709 8.21978723304144 8.264850903202682
Mo 11.245031072870102 6.849960807006163 9.67640945326651
Mo 13.179111487197135 8.133788315735197 8.951016600888815
Mo 13.964002446038563 8.768061444595542 11.316798171424415
Mo 10.875544992186319 8.2838799222637 13.096767178026026
Mo 11.605744908423835 9.23002337401683 10.677754967115249
Mo 12.214013914821756 10.316815812970779 8.247152222271584
Mo 9.632251993287857 10.749833693579916 12.14262417197312
Mo 7.983670934342029 9.035369948142316 12.78890956363031
Mo 9.590623516879367 10.449721310874645 9.427681562607207
Mo 8.801711999803572 12.92998553219566 10.309087041436582
Mo 10.53609832740519 12.804172022530901 8.077834355649276
Mo 8.509606789064502 13.021240071234336 12.575732107562127
Mo 11.51850730828337 12.029733968473526 10.585352388972609
Mo 12.81168535903898 12.697693278717354 8.603771440660617
Mo 10.79009231871832 13.041671494777702 13.154117737592339
Mo 10.707347599795458 14.2462033856762 11.16289783467397
Mo 13.307889547794538 12.69954242541217 12.402720552623045
Mo 10.410183644081656 9.706386798488497 14.369161846891323
Mo 12.61327312465721 10.728864873917855 12.850316816686837
Mo 13.912002941643673 10.754671467922446 10.376037522564626
