23
Energy = -203.28932598 eV
Mo 15.61241246155202 10.44536337260159 11.575810365656242
Mo 7.481638726955842 13.867824671829712 11.32925642726584
Mo 13.110387161804354 9.260075010265346 10.681409196353668
Mo 11.938122331252018 11.527737149119623 11.519953353296259
Mo 7.458451130891185 12.295776978199926 13.274198174738817
Mo 10.060652455903673 14.719913390363196 11.36650530081831
Mo 13.991331125082478 9.581016576433807 13.318264629696245
Mo 15.905107975248756 14.04165733119362 13.137825199067706
Mo 9.807276734268402 12.500477049173174 10.315462918541991
Mo 12.096376653200116 13.705644254923044 10.140136099575738
Mo 12.0478299684431 8.486076793037823 12.311092809326444
Mo 10.10198967905386 10.101285919011499 13.056698536789012
Mo 10.347967198236592 9.905376435512842 10.601623313089888
Mo 16.565192415759856 11.43304098179861 13.183967335210278
Mo 13.962934546976742 12.17748283013565 13.087458338716008
Mo 14.203970499432701 12.193605836473566 10.305462231654998
Mo 12.150973382063508 14.013500665531867 12.730699990456976
Mo 8.127662772018143 11.135209575310066 11.652074065474237
Mo 10.091829877552028 12.653199241078351 13.074998908428155
Mo 14.312514781333727 14.315692793921638 11.380896824697395
Mo 12.141863665312899 10.937214710723508 14.2349449843281
Mo 16.718447743577013 13.051155082845098 11.35378963325294
Mo 8.388635651847805 14.745079999735994 13.093883886701303
