24
Energy = -214.67649989 eV
Mo 10.061943665034079 11.20019484466423 6.974745225524
Mo 10.309636791624365 8.11255878846916 5.645381089235692
Mo 9.39499592691478 12.822646766651093 9.316674605011617
Mo 11.423870785940755 11.57001982472134 8.74761349699244
Mo 7.8030549438824455 10.948609651574728 8.925036944576986
Mo 7.276911850446277 12.452262712446055 10.80977663020282
Mo 11.460593594604282 13.340961476057158 11.13907693976738
Mo 8.802365646201396 9.144962801675353 7.321091202723131
Mo 11.639454837585529 9.214576199514598 6.94010126083626
Mo 9.888576962174467 13.63507669634428 12.14476541584092
Mo 9.565746712167988 6.694048480501236 8.085661542441738
Mo 10.331403237554612 9.241139406127935 9.264347786560624
Mo 7.56879660138543 8.258966770332268 9.763336099101322
Mo 9.662371803520545 11.036477422891025 11.070331284069445
Mo 12.554823395904855 10.594426441995187 11.080406086743823
Mo 12.798232761964067 8.070733592845274 9.657404457422079
Mo 11.40978319255371 6.504178714591719 7.463115773599989
Mo 8.516902531956037 11.571509152082808 13.621202611606547
Mo 7.138610838593705 10.43019914160454 11.530611456894487
Mo 11.482421776709675 6.808458513921361 10.225620067049933
Mo 8.769659974140152 8.015399291263774 11.20258056818444
Mo 11.372505298566326 11.283339102465703 13.00994204480524
Mo 11.399941177092343 8.96177655725345 12.027706012794082
Mo 9.049610569443804 9.767500918710883 13.63343508315582
