22
Energy = -195.58767687 eV
Mo 11.532454491749759 9.49820211355196 7.6363454041274474
Mo 13.92149785296212 14.218223519284237 11.26067559280804
Mo 9.604642415210376 13.169763659981161 13.296139673975892
Mo 7.571251522550877 11.211649584337442 12.915639727220793
Mo 10.643238007010934 9.565192003557563 10.214154377396444
Mo 12.606901665466172 12.908205378259437 13.405026304819563
Mo 12.419644477900441 8.965821241316377 11.358933967659738
Mo 9.206955494607579 9.968945437035359 14.910550313875035
Mo 11.149981649471869 10.604060706286024 13.044901243236069
Mo 10.539040594986746 11.569439079830893 15.244878428001527
Mo 12.717262550474727 8.41682842981753 8.705854907798066
Mo 12.379954859451773 11.681580226916081 10.804130940514481
Mo 14.811128147555804 13.103084839248446 10.146664772052203
Mo 13.460919586703517 11.18709260836072 8.488249549606177
Mo 14.402010018881494 10.14901612159823 10.07014703201279
Mo 14.027246310363855 11.768283013563346 12.904789335490822
Mo 9.584130611467664 11.843201797555158 11.324727885222673
Mo 11.056897351166796 13.920016012411526 10.951869437739221
Mo 12.024615051986258 13.718418939903136 8.87414445018029
Mo 10.693161810026675 12.03191415922674 8.809601818226335
Mo 7.874774032090049 12.256391951707503 14.669739188997877
Mo 9.31193438663819 9.279649364818317 12.532956033335465
