29
Energy = -261.37141708 eV
Mo 14.922959211313954 11.918805291461927 11.064952322235882
Mo 13.791315534654954 9.718159636108332 9.718998938795007
Mo 12.58012737925309 11.776193857000132 9.481601554665719
Mo 12.54238203030822 7.9089249734093015 8.423370843927062
Mo 13.560672229549255 13.040192217100351 11.675543584284634
Mo 12.76396365406793 10.424768010576539 12.00175399409039
Mo 10.978439792858087 9.739826261021994 9.502355741346623
Mo 12.351266741808725 8.00939800183748 11.241203037922508
Mo 11.18107844330715 14.070391448848493 9.571519416009412
Mo 10.625865755950931 11.999521532584367 7.719755845332452
Mo 10.160430911942605 14.520170115732666 12.13943062915206
Mo 11.799865325957942 9.708504501131205 6.93724707242758
Mo 11.213038387749407 10.184108251579206 13.873912051954683
Mo 11.54610392430941 5.963084334282687 9.928354920449904
Mo 11.347639643377239 12.484056463725015 13.649589805319106
Mo 9.703456851919922 14.377435294945379 8.307535395808557
Mo 10.241289006913501 7.515119307446879 7.922810227201369
Mo 10.543903163093761 11.810776387621884 11.449307720464699
Mo 9.198607784052097 11.726842378994096 15.225394167732011
Mo 9.840748300829446 6.708752470398103 10.597045471049352
Mo 10.137714419727166 9.105297032310114 11.85296721389439
Mo 9.557036660908333 9.57962528629473 7.077674204688278
Mo 8.626328588294411 12.79664256547876 13.361273985552915
Mo 8.684519645225762 13.851299942070666 10.792837713409666
Mo 8.956984403405066 11.616373940628915 9.2735059034074
Mo 8.324062354154519 8.977556681814777 9.557574479314484
Mo 7.935401780079772 11.015596608363067 11.681359891559158
Mo 8.467713730000717 10.093300875839656 13.903289438685523
Mo 7.614922578568591 8.528505787649744 11.520158519565571
