22
Energy = -195.6039204 eV
Mo 10.654942435922015 7.270946390697594 10.14423182390158
Mo 11.285141684362456 7.951689353077737 8.483847783861373
Mo 11.454624160584071 8.408722667326538 12.66488864417367
Mo 9.047180974577632 9.429484467077316 9.243366382039882
Mo 12.988687825747043 8.680198118541213 10.683804765851432
Mo 13.102960744854387 9.954316052326146 8.918518736828123
Mo 9.226611735272657 9.28542187869541 11.709424475967406
Mo 10.767095229697526 10.901117353592763 8.43479925348448
Mo 7.111619013429013 10.847328298914519 10.445361272772178
Mo 10.161216865156293 10.043145658043874 14.459123176005631
Mo 11.035938286558144 10.778885381317725 10.899047508416977
Mo 12.71935767761192 10.104291421378376 13.146709301460126
Mo 12.957272205981356 12.817860020844135 8.615313978822948
Mo 13.85347405529748 11.39483431319015 10.847007766642436
Mo 8.72236628931 11.471573034847278 12.521740899288664
Mo 8.016411551443905 11.83567373270019 8.578933254673569
Mo 10.246955748928738 13.142053709150263 9.376670229850584
Mo 10.867095151954004 11.797860144448222 14.376973575039534
Mo 12.805792668146779 13.964675416983225 10.121903239893264
Mo 7.83275412914586 13.06024231919328 10.511008811695053
Mo 12.898419110143005 12.51615498767931 12.446226267958858
Mo 10.47314776825921 13.037420819421113 11.761670111652279
