29
Energy = -260.69611201 eV
Mo 10.236018331068847 8.60264726492128 8.496315437804377
Mo 11.672739802629767 8.65832613709722 10.665538096437396
Mo 8.023772947680452 8.069735135877831 9.470387395393125
Mo 9.170326755014418 10.23538219725274 10.264577011972582
Mo 14.742843069040292 12.156376869763097 12.536904342227666
Mo 12.050289460132422 12.222048472319019 7.9512540978932
Mo 8.062891298017448 8.859287082169313 12.13204025393648
Mo 12.811661033469427 8.392058420102972 13.189713388066556
Mo 10.673484480805321 7.437925817611518 12.615165333776526
Mo 6.258819533592075 9.913155730878032 10.456125147903814
Mo 13.87339744762513 9.805850255984694 11.514034878602486
Mo 14.47298656016911 13.773515884969003 11.383652309522693
Mo 9.823072482249001 12.307427023125642 12.347855393811829
Mo 8.127381120572098 13.982806301827559 11.123349502770665
Mo 12.426408597291823 10.946567964943677 13.252679307286266
Mo 12.17057615802431 13.76306153587546 10.133040397092694
Mo 10.225060113617618 9.732847249802735 12.840788994333238
Mo 12.069818612631886 13.365984904996 12.576133184811214
Mo 8.574844513938855 6.458588507941624 11.15718560691787
Mo 9.847855273074167 14.836106771778914 11.35838162151698
Mo 7.180359747413023 11.2483830557874 11.861318736055265
Mo 7.564213083938447 11.791018587563958 9.311064524095785
Mo 9.87716795501966 12.8540217567886 9.397836566042404
Mo 11.65708441645131 11.320020738848354 10.75298513062039
Mo 14.031617981802825 11.7989236460383 9.797889721884337
Mo 9.47735876941784 10.935331856043296 7.616996836508596
Mo 10.318502642794934 6.4726805757927295 9.944657527223569
Mo 12.976337018315036 9.753917250184529 8.754691892951136
Mo 11.593263638664835 10.286718474484386 6.8312288617066645
