20
Energy = -176.28963057 eV
Mo 10.895353125723524 6.6513999981876895 11.46482681560262
Mo 11.973354567041111 8.596082335418776 7.1100655099141745
Mo 9.937252778547379 9.92499893267482 8.515135034612259
Mo 11.259621800962519 8.547958166898512 11.479160496448065
Mo 7.920348369173129 10.842514554457745 7.530631534227426
Mo 9.036010683750186 8.537322257390661 6.208604664573339
Mo 11.92299027260888 11.646050416975536 7.587539488428725
Mo 9.91119457599512 10.168860306988686 5.753521561735794
Mo 7.570295539463398 8.380647732983276 8.693193738165018
Mo 10.39520649058003 12.625413892732507 7.732605879742974
Mo 8.164095081804124 6.6338842303047585 10.93572463664999
Mo 6.376018905064639 10.120791867201573 9.306312729109944
Mo 8.49091337566739 7.558330569803163 12.64245234543996
Mo 12.55678513551849 8.804353870617835 8.890496439253821
Mo 8.551482637423778 11.878722035896228 9.91253016105102
Mo 6.130845793526804 8.55114149212574 11.421128421165143
Mo 10.602416315814104 11.3961681024387 10.428864800788032
Mo 6.801959621937039 10.208111239528039 12.16430351179213
Mo 10.287742816191185 7.537533170649587 9.050718839373008
Mo 8.858891255827507 9.382599775190368 10.793428527277644
