27
Energy = -243.39708278 eV
Mo 13.433839884876758 10.026486778240804 10.554286285266791
Mo 11.62503881763301 9.081938184748374 14.324470380614343
Mo 10.833391371622636 6.719485316677639 12.67611541953638
Mo 12.328812435127645 11.914150304806737 8.590818538756233
Mo 12.957155335371006 7.254027841241375 10.67811235010498
Mo 9.704963915290588 9.065080254120542 14.088680450588297
Mo 11.315695298220657 11.75765123195932 10.711348969674356
Mo 10.80315590620336 11.652975850016977 13.470019516932936
Mo 9.005558878589529 7.182513273700893 12.213461121399533
Mo 8.410965288602501 8.730400084423682 10.031768370644196
Mo 8.668310561085745 10.548326034921926 11.76879739817779
Mo 10.977371939954784 9.200591605832576 11.535304147328924
Mo 13.456194010096448 8.208376836888101 12.344326878419533
Mo 10.429573394920984 13.783182878211017 8.890317162976338
Mo 10.48720696262327 7.353001181013542 9.843027216278612
Mo 6.889795092459344 11.211412887566814 9.893375577584992
Mo 11.875115967452638 9.355231026775218 8.894140941435342
Mo 7.796969353097256 13.233834301400755 9.090275497139542
Mo 9.489117256838307 11.06572792220018 8.835572095492779
Mo 12.692207898723296 11.245277219247509 12.88944228559723
Mo 9.056904483967433 12.717467665892377 11.34334304681938
Mo 9.622253239669496 8.704244600791954 7.6905648084649005
Mo 7.098954775694201 9.722076720132057 8.068413944335262
Mo 11.252085361119608 10.727112203066461 6.571996820354026
Mo 7.480778355310845 11.907197259294746 7.18820624182865
Mo 10.050444805976074 13.130647268363253 7.054739478593747
Mo 9.232157602421292 10.381110367942023 6.009095571682012
