27
Energy = -241.97339308 eV
Mo 13.326991151251876 10.072739501556802 11.496954593461155
Mo 12.913803220316927 7.639681325870669 12.756336866845666
Mo 12.641288679802676 12.696372059249528 10.761198707803388
Mo 10.978342516569754 6.856425278443265 11.056113198222906
Mo 10.741249109866622 10.878613710223338 11.035176664415475
Mo 12.691136245902829 8.819731833197574 10.03155964527366
Mo 12.882851501317045 11.641958073648658 9.139874666787975
Mo 11.250935882022892 8.617088475800536 12.884056886647176
Mo 10.680739563386158 13.548084028202686 8.853870723389392
Mo 11.141484479293041 9.82527723793428 8.104160840535126
Mo 10.85614413058845 6.962022645186032 8.394366553810638
Mo 8.880419929530005 9.966863862006658 12.458164082944487
Mo 8.557472421757979 6.888449083283379 11.957199976707845
Mo 8.289433846835623 6.586420859000778 9.869734258338557
Mo 9.701306431629218 8.787725471200947 10.157399340751393
Mo 7.101024947857863 8.894479922378423 11.248502019891744
Mo 6.893345226637563 11.49653324477479 11.895353630673645
Mo 8.891949760613961 12.482038489980756 10.997889674099534
Mo 10.794863373405263 12.646008343713579 7.25111327570128
Mo 9.397972398676773 7.985088354556213 7.42825127112032
Mo 8.95809199379404 10.523660535992057 6.064743453599545
Mo 9.112479987096979 11.222796270935806 8.793479419076341
Mo 6.7858161382759254 6.758150457028062 7.289288686583744
Mo 7.264714919465975 8.991668832648038 8.8812390466608
Mo 6.661845966349545 11.323994470479736 9.691794318257774
Mo 6.719543176648958 8.193954771205506 6.184121104263582
Mo 7.3054660502677375 11.036665009029274 6.746113453327042
