23
Energy = -204.64916771 eV
Mo 6.904287197129476 10.1165667397131 9.659632787324915
Mo 6.447681951092763 9.24113388705283 11.712134437656857
Mo 7.554100883465682 11.372223730327905 12.108204571598558
Mo 7.261776298689844 7.394889488117422 10.31047067870048
Mo 9.019592750829805 11.939867176887605 10.075534307623487
Mo 8.349403211119839 10.93545231251409 7.606195716160373
Mo 8.762634372607819 8.358839974789953 8.461067943211416
Mo 8.824034941770234 9.90641388660495 13.60970009699122
Mo 9.077744564181119 9.391492833453334 10.918607238972962
Mo 10.348202589851375 11.114567689404973 12.422150866760822
Mo 8.5978406538816 7.068520532469499 12.312937326013781
Mo 10.56576448753759 10.260756228870118 8.754090754001453
Mo 9.987416692739256 8.966030945426567 6.320445546565601
Mo 10.275460039786187 12.992217390927246 8.133196634979791
Mo 10.238794579281425 11.41386313334862 6.2925121210334884
Mo 10.58216731269591 8.346726486204696 12.985489900122124
Mo 11.755532288447817 11.922262118518967 10.340470008622814
Mo 12.323892121083425 9.31186120445936 6.8805388300819645
Mo 10.052098988562854 6.991091650132221 10.559750323687853
Mo 11.467652218818245 7.849135364896268 8.502352278148397
Mo 11.753391868470002 9.221389023767586 10.870535664400993
Mo 12.548150239780519 12.047452850620152 8.13482688640808
Mo 13.351411230678023 9.938407920754225 9.029730622696365
