29
Energy = -262.38939437 eV
Mo 13.467815393957968 9.83921439770295 12.705754634366974
Mo 12.868839706586158 12.059701003396958 10.927447345443706
Mo 13.4029494364734 10.492298683847906 9.75520557413516
Mo 12.15083500782394 12.758188554703166 8.418823881731354
Mo 13.229886668069593 8.26328232468365 11.691023784150088
Mo 11.31679752648371 11.766256314969247 13.692978624739151
Mo 10.987299751125533 8.747233332608966 13.450065078649066
Mo 10.340153844585975 12.594398162508737 12.320235471515636
Mo 11.880630065065391 10.644654780507084 7.442889892724988
Mo 11.056784666728527 10.111151902573164 11.397376156106482
Mo 11.577376828235707 8.621512459881789 9.276659046730558
Mo 10.062771750180833 12.21403576147773 6.832742507476785
Mo 10.2097828437357 12.041803973261143 9.463898638221014
Mo 10.618336855378546 7.241478090117665 11.299609954834137
Mo 9.283110725673163 10.03397272403287 8.108691179256098
Mo 8.930574220671689 10.342825746138947 13.114889592464557
Mo 9.465882088323449 7.255564869196045 8.685673975797148
Mo 8.616295194669123 6.321574148387042 10.807442168816738
Mo 10.622217323023051 8.282017028229268 6.317002452674605
Mo 8.84080631885316 9.146263285981362 10.560374061567002
Mo 8.55084030343189 8.127044991069969 12.966220470748034
Mo 7.69304782851633 12.417676074873972 8.163209177346697
Mo 7.452201547790821 11.420260674949922 11.126176241001586
Mo 9.97838790554888 9.79034534965968 5.418149037703969
Mo 6.8575453199454826 7.782477531369626 9.44823170428197
Mo 7.503959562797808 11.386237816266581 6.497149565608567
Mo 6.457977625309883 9.805826213485764 11.767999248734737
Mo 7.647913400325945 8.253694050348459 7.247616789683845
Mo 6.732593070844869 10.06151964228353 8.961472199381962
