24
Energy = -213.70440656 eV
Mo 10.103976649076039 10.991295861781126 8.854630126522295
Mo 14.915566869924918 15.39740944946965 13.073100872774779
Mo 11.088041944968856 12.140324996080457 7.646998853754089
Mo 12.08989801418327 12.867901671319892 9.95273271145472
Mo 13.0748516909401 10.843427838267598 9.015290867093219
Mo 15.575456944264923 13.025933225713391 12.694047533180855
Mo 12.992180206611383 11.032996751935741 14.998912456325993
Mo 12.756294874303379 12.417080179069384 12.567639135462345
Mo 10.884716970052379 10.578274424053419 13.454321882443555
Mo 12.449006592107155 9.117341910442542 13.207283954680774
Mo 11.050667915014808 14.593242211175173 11.64518786814729
Mo 13.891544600119333 14.901533261532709 11.280123542527104
Mo 14.563044543459323 12.5075166243913 10.470103832963673
Mo 9.797072081915257 12.367413931743302 11.455035870790896
Mo 12.898894851116383 12.93540313077892 17.092604297803472
Mo 9.458228038785148 13.596325398232105 9.88577213825931
Mo 14.778405693521899 10.671939259858593 13.726286495328228
Mo 12.444156768613253 14.903716831524301 13.579432192560722
Mo 14.173544945550612 10.290044731976888 11.391055721958178
Mo 10.297327272934458 13.351183874243912 14.301399919777138
Mo 14.10118746359893 13.334765690915857 14.643359658346137
Mo 11.719845673971017 10.300108782393826 10.954501416270661
Mo 10.489780149854472 12.153547872743367 15.73418477702188
Mo 12.161967690477544 14.46699309215653 16.33110902939394
