29
Energy = -260.94805457 eV
Mo 15.835880733818655 12.3234249483069 11.151223754516954
Mo 14.809312951272814 14.368998176684727 13.86188652955185
Mo 12.509643866460339 11.131824033720894 8.021219995870476
Mo 13.931493623714243 14.66670399385783 11.169549156451842
Mo 15.85422558869613 11.991090756616305 13.882987820229372
Mo 11.528884696688348 9.189263868907336 7.0058154391684315
Mo 13.613519969966017 12.962807130545999 9.914914809285822
Mo 14.844337979992263 10.677365132451296 11.356385897529695
Mo 12.114038841107153 10.864426798097092 10.483490843133337
Mo 14.517350931084351 10.675392417181111 14.429536791652678
Mo 13.205220397422536 12.412125006836577 12.761577517627572
Mo 13.584119467356356 13.303119962406802 15.214091981608135
Mo 9.897003461639265 10.537384870361292 7.41299088037601
Mo 10.691463060238297 12.471312121249206 8.829779887167158
Mo 11.161521465345569 8.918801570813427 9.342606657129089
Mo 11.373049525407328 13.8006786112289 11.124147527591022
Mo 12.373887090339133 9.59107379494064 12.934622310673962
Mo 12.554189117935856 15.18385143619139 13.240572022937172
Mo 9.402505457420851 10.562771467300012 10.020375253761706
Mo 10.408842457221315 11.385181844422362 12.435113721595526
Mo 10.084166975523617 8.61576950819353 11.990076696138294
Mo 11.847239307005582 10.777456903782966 14.805585184845249
Mo 8.954291357366909 12.988546799051171 10.834041490867337
Mo 9.98836962400988 15.003519450142122 12.633003530398035
Mo 9.620972604671831 9.030092821803903 13.813884866339638
Mo 10.968522206602207 13.456773294777703 14.127986235565373
Mo 7.882586081266242 10.815607493956586 12.433978652683583
Mo 8.039376683153773 12.908598679166865 13.005516037793777
Mo 9.493018734148384 11.508373834575526 14.800135598784843
