22
Energy = -194.6318088 eV
Mo 14.080153576471638 13.566512990722531 10.162677977986004
Mo 12.072521312347 11.77433080538402 9.966015093481696
Mo 10.866702844933537 7.919496895243634 10.789691825940979
Mo 9.72698557596207 12.282762529822197 8.562675275086452
Mo 10.173589875326371 9.090010025934442 12.903027252022843
Mo 12.087153051082957 10.451001102177056 13.668052378159564
Mo 10.963715268747016 12.0614594690149 12.202352934497014
Mo 8.73195851772158 8.203250072360216 9.626093979677353
Mo 11.018466771595813 14.12705706628782 10.061435769550004
Mo 9.14364368474274 9.574857994656103 7.079464962041014
Mo 12.530372804491634 9.79150934769236 11.497681860984773
Mo 8.758711735928504 6.960856088683649 12.20772771416575
Mo 7.964854512335008 10.495088253838343 8.573459766191165
Mo 9.632028138800681 10.4387784980977 10.734616952943043
Mo 10.0340430078197 14.366120769533252 11.907750133832755
Mo 8.620411545568565 12.787570033681547 10.501829511435604
Mo 13.76123148995947 9.903841174019108 8.837126525741656
Mo 7.793368874634903 9.502718319236015 12.13127297267367
Mo 10.888265097283124 9.680244886229906 8.672757878303846
Mo 6.96058972055784 7.536150452192286 11.236709570928976
Mo 13.185169256219341 8.172093466134525 9.1203773458782
Mo 13.308811228276237 13.588829265795013 11.799124104831849
