23
Energy = -204.06446922 eV
Mo 12.195366214723682 7.499996387518457 14.788340364366716
Mo 9.781198304842649 8.483863647983942 14.943375039771851
Mo 10.763850301886794 14.958224495533452 9.711753836387594
Mo 9.703398695687726 13.508725829020088 14.90398723379534
Mo 9.865958108283928 14.180557296425391 12.364805867486197
Mo 11.819792983480331 13.014039948583953 11.494051225205542
Mo 9.706312326021875 9.253244580125688 12.301100078222692
Mo 10.914504682658144 10.947945069609355 10.481381565434683
Mo 9.660339305807895 13.457724718741261 9.599259786019134
Mo 10.816988848023025 7.385630584398496 12.651241074116799
Mo 11.902925895791975 10.778165002969034 13.04187657486263
Mo 13.344495816829905 8.848375588066977 13.067391159399456
Mo 11.507697990365806 13.112269984453002 14.440625766068285
Mo 12.20915385595568 12.67807753892786 8.472326771966276
Mo 9.86282175739431 10.81309375193107 14.385988260279655
Mo 12.792572152590383 9.87662918226801 8.414697103673237
Mo 13.714610681783789 11.05413675870079 10.928762075627034
Mo 9.191206358916386 12.088137330234577 12.122712748374553
Mo 14.665709416511362 9.177453813023522 10.641151979236424
Mo 13.567165784034819 13.571683302579647 9.445832442884493
Mo 12.17730026538352 8.69001215038928 10.943549878434435
Mo 11.931748997196355 9.546295285150654 15.507275813044405
Mo 14.43721693253866 10.782291916462455 8.342641362743
