26
Energy = -232.00505782 eV
Mo 13.844078541681602 13.347355491342295 12.035577953983934
Mo 10.462324255038721 8.488710989218836 8.459194486264996
Mo 8.408503201476035 7.182666344439006 8.580769129261522
Mo 10.598098493068749 9.917530447079624 12.860218939457438
Mo 9.063061189778905 8.642211383121156 6.031991091150317
Mo 9.297427380300558 12.171172820634046 12.094897419412453
Mo 11.444143940388518 11.567638252605512 8.122783244482589
Mo 6.531410860872114 8.888655883846242 9.752779667186232
Mo 9.019721424628564 12.741746300493427 9.061721314213322
Mo 12.158764710783908 6.973746549347804 9.379558628700604
Mo 10.30646700755527 11.464390317386592 14.749496591131035
Mo 9.736159900854467 6.212082110507688 9.925060947792568
Mo 11.38132529285818 12.889528600954165 10.45677720091416
Mo 13.505322059846916 14.563582402168045 10.699136907095639
Mo 6.462838033623199 8.535124264852524 11.723528675732451
Mo 10.352940524624463 10.524218198104304 10.244658660295276
Mo 8.152846495753964 10.220843504166062 13.051671601760685
Mo 12.712441664606835 9.79892351163798 9.165360317428663
Mo 10.317253911726507 9.943863920455177 6.025457299332211
Mo 13.523974222572276 12.146180338862505 9.445583065215404
Mo 11.7000411224562 8.047531639499487 11.172037141039956
Mo 11.352581087650137 12.577072335563205 13.463914983284308
Mo 7.686062413481905 10.85719707965619 10.672108615227257
Mo 8.697089804056358 10.845414300240167 8.198227139279247
Mo 8.986739346713593 8.400706472777928 10.997902711884361
Mo 12.688376724126421 10.804328315983517 11.520042112005404
