25
Energy = -225.36808558 eV
Mo 9.728912202919215 9.108338827436434 6.590179764519365
Mo 10.523625800285261 7.528644035405647 7.183979773088342
Mo 12.152300366372938 10.11642406470221 7.879775698752068
Mo 9.84400976963022 11.471240315793764 8.16459777267154
Mo 7.906223160043382 7.739691956111296 8.584934915154612
Mo 7.49758685235762 9.77943208985952 8.164836943867897
Mo 12.469516782864044 8.357312887503236 9.096163768422144
Mo 11.865617150244018 12.222114642806647 9.352043859712978
Mo 10.118190217691595 6.166295299311298 9.745110822665591
Mo 9.985162877035883 9.03442770953619 9.470477212340793
Mo 7.897467443344558 12.528024912740912 9.204541555673867
Mo 9.401602201887533 13.68932848201619 9.993401270293624
Mo 11.233250943669447 6.828872776166978 11.076514803726097
Mo 14.395738202167749 12.210833934812856 10.668047466092384
Mo 9.830312764400418 11.255855350894649 10.874084093277324
Mo 12.353908392070696 10.252026035980053 10.764292392237513
Mo 7.513770795657911 9.842028770722502 10.56282090919868
Mo 7.431949590391609 12.466653455817536 11.966818999072206
Mo 11.828021078629956 13.019827932933502 11.842984637408208
Mo 8.476949101662623 7.8373900159639245 11.280422743173029
Mo 8.991357836439768 12.880320591297426 12.908291619420076
Mo 14.272535158138115 11.790989663038253 12.436441344874233
Mo 10.536847936355592 9.032093285874225 12.56430408984492
Mo 11.509179075995684 11.397229927058524 13.147324899673501
Mo 8.782199259713275 9.990837996184608 13.023843604808851
