20
Energy = -177.89322874 eV
Mo 8.49186818835829 9.405293231662194 6.324871986944144
Mo 11.494338236906996 10.76367687735699 6.629945643177675
Mo 8.641919633919885 11.049693535027526 7.487372541100061
Mo 10.3120919823461 8.690178169696308 7.93629687418411
Mo 6.578990742134206 8.915677074224856 8.076333953264145
Mo 12.795377596687464 10.132072408248991 7.723734568770322
Mo 11.070953451765225 6.649897178512157 9.456721840894101
Mo 8.002592633186735 7.645812211756417 8.737684326201093
Mo 10.525267585244764 10.733045286245074 9.414210534365447
Mo 12.536588337113217 7.197866787706566 8.349952792230766
Mo 7.69192629065294 10.326557217602856 9.864196172485142
Mo 12.187045097723441 8.987549410205906 10.321559447195636
Mo 6.658398803880314 8.279558165958607 11.334004083618145
Mo 8.618783927136022 12.77151150573852 10.300160648060457
Mo 12.187574782776883 11.095903252257425 11.702716476480335
Mo 9.494149238794543 8.76851077450533 10.714069762347059
Mo 9.752921560310092 10.971747395838728 12.017362479799598
Mo 7.426194860285249 12.282209280100844 11.719803549429749
Mo 7.367686303010239 9.399210554348791 12.573443424102695
Mo 11.510930514794973 9.279629450034315 12.66115866237744
