21
Energy = -186.46331733 eV
Mo 11.746972693119965 11.060560725832962 6.75625885947385
Mo 12.47469790214173 9.73428488260379 7.89160581896625
Mo 12.231350087481577 12.428664032344829 9.369717065995387
Mo 8.899404305566364 10.741599634444407 6.914596038732559
Mo 10.622896851197412 13.26397392120258 8.881418111393112
Mo 9.914738073365443 8.799217050328465 6.919777341580553
Mo 10.191637555593228 10.621960730626395 9.008596040210806
Mo 9.749674899813554 5.992496726072747 7.580882085510462
Mo 8.126162447631904 6.6834968947335485 6.992055947517003
Mo 10.529352047782284 8.021521705237753 9.530518876211282
Mo 11.85367566238273 9.971584508948451 11.198936505579661
Mo 7.905562757589573 9.024951141868824 8.680734454243929
Mo 8.93726972228086 9.510012884457073 11.240425685046002
Mo 8.390350404786691 6.913418099192964 9.949557231285146
Mo 7.544547618875555 11.561809814405377 9.62322395116306
Mo 9.81026530230495 11.886230945927128 11.107138106480043
Mo 10.191669788332295 7.583176528011843 12.054837488679123
Mo 6.622864887028969 9.078783952135893 10.96137432402284
Mo 11.02157273978166 9.983609276718088 12.965043428648915
Mo 7.863167787354195 7.19556710271929 12.213562437924566
Mo 7.002124621533523 11.521814709056503 11.561298357874831
