26
Energy = -234.00408236 eV
Mo 6.818663570678172 9.492511755548907 11.910740082413092
Mo 7.917637474043105 7.800103476063525 10.16393972946867
Mo 9.655146460538846 9.176680286303599 11.920462975065144
Mo 6.155877178408729 9.80023372433832 9.32188013353914
Mo 6.534581192951852 11.496791129176172 11.711721710459393
Mo 8.536651741043157 10.615775175504265 9.81924577335274
Mo 10.451759684027227 6.89403208633451 10.244459290314012
Mo 7.864470376602465 8.777164704333979 7.850561494584104
Mo 6.445426369766229 12.169832885392344 8.786290703138123
Mo 8.909517776553281 11.288182731111156 12.56813392380261
Mo 8.450125677532586 13.37622325441244 10.359942519689302
Mo 7.435366031544108 11.305144618956732 7.249866771737897
Mo 8.441405262159826 6.2774644449590715 8.468140556085034
Mo 9.47232489723461 13.107987195910537 8.724640055508397
Mo 12.027515172975908 10.577713562538415 12.612554615296698
Mo 12.036892049309586 7.686741363830109 12.17395905404536
Mo 10.650937204229242 11.941975570193527 10.910081798722594
Mo 10.295498781238578 7.655304900888504 7.978400313308077
Mo 11.402488096685646 9.453994464904365 9.980607360283788
Mo 10.061082542698395 10.490329822060568 7.758493458832219
Mo 13.705597206295964 8.509779559873609 11.270118133386983
Mo 13.300286039135022 11.268281943883812 11.277324447879634
Mo 11.952365334884247 11.703451510515816 8.665944583255207
Mo 12.719562683831297 7.280843756442903 9.423684430751715
Mo 12.509333718727673 9.176541793985052 7.422903744707636
Mo 13.833385306871502 10.063614219110768 8.64731791591484
