20
Energy = -177.50347335 eV
Mo 10.467186205160585 9.391696018342511 6.613320207666883
Mo 10.03951263873375 12.344884893722114 7.173963388608088
Mo 9.951221075343236 8.059853121874898 7.80063478348255
Mo 8.445515329818017 12.86973182724667 8.027397205988818
Mo 8.814716925574508 10.325918465190783 8.616264163843345
Mo 12.320284649468071 11.023437274536647 8.639846125925796
Mo 6.342749621307357 9.939091182830554 9.330208100158815
Mo 7.150177354736394 8.222039334862961 9.083236151571283
Mo 12.496996695784306 9.155130416793678 8.653612538765193
Mo 10.43643428776622 12.248543377192465 9.85622295281031
Mo 8.113920208298087 9.524550977481319 11.257575053811033
Mo 11.242324158450222 7.19302339527326 10.425277633842178
Mo 10.472628420222232 9.883810326987472 10.546820000897993
Mo 13.346824664319058 9.908383994159959 11.315221479886134
Mo 9.229891497277716 11.847605612203877 12.265097128115892
Mo 7.900625375232546 12.149370917514963 10.853344552573764
Mo 9.494809470370702 7.195787806343154 10.968765448390108
Mo 12.332448853672545 11.149723175435462 12.131101484060352
Mo 11.483167741466207 8.372197530037067 13.078334377744962
Mo 9.957009093791456 9.233664618763266 13.4022014886493
