20
Energy = -177.28531325 eV
Mo 8.951836057664144 11.372424715019589 6.725073442002899
Mo 8.385356904264025 9.453211488180695 7.000193470789602
Mo 10.956135668990182 10.271753205614706 7.806923272728613
Mo 10.033548115834341 8.200074089165778 8.693434713297094
Mo 13.609546029986944 10.08565261775924 8.13851859774402
Mo 7.693882445344024 8.944345098265384 9.528870914381402
Mo 9.86223803839434 12.435153421059303 9.139362682934996
Mo 12.850744887506455 8.733712823979747 9.251619531587085
Mo 7.700181462008346 11.320980581072948 9.099892124217385
Mo 12.30783000930518 11.485176699906795 10.048622518666589
Mo 10.000193717088793 10.140383990988676 10.337316193701506
Mo 11.289770051328599 13.522529717113315 11.096268752795385
Mo 8.721194416827883 6.460010536206846 10.273804613608865
Mo 8.777666996644653 12.270170438764833 11.412822231953971
Mo 7.7405439966170535 10.011890585410393 11.779304577019875
Mo 10.980471379918168 12.013538998958625 12.526314380678704
Mo 10.831236656453388 7.723737078051704 11.32899780853713
Mo 8.049591539671965 7.2406359987616495 11.891283096825747
Mo 12.184209455642847 9.778539469279018 11.734140014095734
Mo 9.699013979574016 9.161270255506242 12.812428871499161
