21
Energy = -186.25414411 eV
Mo 13.346500978494879 9.82137388451953 8.014651585292645
Mo 13.344625957289415 12.316068568885415 11.341474417525536
Mo 13.951483566430257 11.45978559431652 8.546313720748705
Mo 9.240299680277214 11.819343866336128 8.346013367871228
Mo 13.10986544089195 11.519449877575864 13.172880899067948
Mo 8.797416428877144 13.496418526724481 9.73070546515685
Mo 6.673640290724184 9.809391024172045 11.709902114987365
Mo 9.342462899029853 7.08571916961245 10.994082633520089
Mo 9.002711082812299 8.506592364009855 12.382648602286938
Mo 11.866595559227212 7.625728978255122 11.93142412630475
Mo 11.40836302178542 10.066741924567227 12.102178508985283
Mo 10.786506911853854 12.749979171669096 11.644197991488987
Mo 7.544862330862723 9.378174435383931 7.8974218121715
Mo 11.077102485328783 13.619523060579724 9.578147921038575
Mo 6.991605089855499 10.954727965419952 9.126812974696003
Mo 11.820980626525028 8.032456383472264 9.892836710123035
Mo 8.847933899336306 11.137538878670581 11.090543776263543
Mo 11.399374810243676 10.916298677620944 9.695852618587454
Mo 13.49324967357087 9.798994696779696 10.78179302532391
Mo 6.797081148207796 8.315743891620794 10.398901507638312
Mo 9.335369706875225 9.272692431411269 9.59661157495803
