37
Energy = -338.09601531 eV
Mo 10.501084307747245 8.635075261259828 5.9435481352756785
Mo 7.917757736138183 7.221650938259071 5.080022800592916
Mo 8.52881773062029 10.58360986995605 4.919945563392457
Mo 6.06094807390406 6.64825256039063 4.98104144255463
Mo 11.182206579582 6.150211954373842 5.773876321653846
Mo 8.373824151967968 12.929845023192634 6.071926050054661
Mo 10.407959355118415 11.211475034667293 4.780525939446531
Mo 11.985048980736874 10.22072007159145 7.003445202262082
Mo 7.120173618763074 11.765752992816212 7.297471029653218
Mo 8.188853073906337 9.028130276110806 7.090815036760517
Mo 7.065412843929588 4.55209607197248 6.592998310727569
Mo 5.838247494597982 9.209634707770347 6.454676808677158
Mo 11.91403580078908 6.648609449128285 7.57635648830824
Mo 9.924055028565133 11.183963703294 7.428292681413067
Mo 5.602554036412357 4.493109262428066 8.136169353108084
Mo 4.194336224434606 7.570950623500391 8.88755102063204
Mo 6.405079314560291 6.820623953590584 7.598185555298508
Mo 9.208986152124558 6.284845758199784 7.387495976166107
Mo 9.152484109815232 3.9233025987707064 8.179624888513773
Mo 5.881423715189074 9.50690847639339 8.738837636705329
Mo 10.603758543122805 8.674108661674294 8.65650686623741
Mo 8.305087272724297 12.958497420406138 9.141003913602704
Mo 8.405178772521142 10.319654937023193 9.458298223089983
Mo 7.811242937064655 4.92546897843581 9.493211075186206
Mo 8.072390996567664 7.714654047469757 9.539668617100219
Mo 6.596676017262761 12.13278928211491 10.288005564254115
Mo 5.464970055678798 6.908542077036333 10.219521914157395
Mo 10.92658337896296 11.301950322686581 10.08904165404442
Mo 10.246687923823888 6.117890056681375 9.862516937589694
Mo 11.929228001476197 8.197063286481269 10.629756969568858
Mo 9.661001697543911 9.095791427182984 11.492284362794033
Mo 6.7395353032846925 9.331872604336393 11.50559462025865
Mo 8.265520622229719 11.436834647261188 11.752032032416297
Mo 8.283146247530354 6.84055910693275 11.755877008016512
Mo 11.565237483677443 10.794317491389933 11.80809537946109
Mo 10.78503803512413 6.763537254728666 12.118106593335375
Mo 7.9092596558266015 8.921531083817245 13.291503301015839
