30
Energy = -271.06553323 eV
Mo 11.64154906039098 14.120374380727908 6.99167939335586
Mo 10.06346330441592 13.269931093769648 6.352107167248746
Mo 12.285036943508553 11.502917486645655 6.989991414898577
Mo 7.82436139123875 9.378081749780824 9.190767124837151
Mo 10.511819795244849 12.736122717153984 8.94770285879954
Mo 12.325371985379567 9.258438392846248 8.207934643593811
Mo 8.140964309003248 8.405155725202356 10.852977508490213
Mo 10.264937089866484 10.614798083966553 7.145880610181567
Mo 14.343468523928228 9.782614867083769 9.590939765737241
Mo 12.36020288457183 14.078198576075613 10.954134687621337
Mo 13.549658191974933 7.762369204789271 10.27120665944199
Mo 11.254641106603154 7.795793066891687 10.138381948128218
Mo 8.126564269008238 12.221043582989669 9.469839555157778
Mo 12.693437608060357 11.531042652753856 9.558521991380228
Mo 10.271949069785224 10.02513656935389 9.702131124137019
Mo 13.330522221667142 12.758538526400256 11.918940861506377
Mo 9.470300202623669 14.291620183524538 10.880103438223971
Mo 10.492082787953903 11.923113690771336 11.595230645210515
Mo 8.21590069182972 10.89736800235063 11.637225396512735
Mo 12.438929829989782 9.920280074172165 11.64522090735791
Mo 12.391553757184017 7.286918807168265 12.872269718638158
Mo 10.213023547673561 9.105854269124398 12.478516928979353
Mo 10.76633395035349 13.609768293362247 13.270728817820899
Mo 14.001445676592061 8.32021043866117 13.010363106552125
Mo 7.373561580256086 13.648797336865286 11.067037710559967
Mo 8.522245279892944 12.885040863525344 13.354430317410497
Mo 9.991526062683128 7.942185181368972 14.740666886581826
Mo 11.653488587658462 8.861636500200225 15.08317256789942
Mo 11.863341444513082 11.229377008601084 13.843883347432154
Mo 9.59242230361211 10.811376131337235 14.212116353769055
