36
Energy = -330.35819963 eV
Mo 8.505886649582703 10.638178317821952 14.279449352192836
Mo 7.200115657767615 12.035702863337136 12.745210022221817
Mo 11.66686155321229 10.842392771546717 10.361474736062425
Mo 7.064585480516918 8.433861315008057 9.391461817492102
Mo 9.893548944102859 14.157068860729801 9.618771646608307
Mo 11.163726894681597 9.455046374284445 8.037806805929478
Mo 9.977439810968981 9.810778834029563 12.165791162486821
Mo 8.94928247191718 10.091529386055143 6.597445790701852
Mo 7.6960921923120695 12.382808381155371 8.446305708874737
Mo 13.352835413254306 7.23003545537464 10.902040823768491
Mo 13.915695760664311 11.597807388260266 10.4590269564507
Mo 13.306178395676577 11.179795254459407 7.479238570163364
Mo 12.925084114175482 9.046506062005639 12.040255893513194
Mo 6.594744616729939 11.536660368520556 9.716605783945367
Mo 13.553991503911222 9.065635293646533 9.330699096186875
Mo 9.108174496320396 12.062815951058788 10.92495845300078
Mo 13.419604792834102 9.484468282117133 6.616107523796649
Mo 12.797873193697164 13.203566135811512 9.28124662226412
Mo 8.509350289244736 7.5836896545291 11.004011573208242
Mo 7.337870132300881 14.25899094329574 10.891104056288704
Mo 11.030423786551541 8.048445023483703 10.217033588869342
Mo 10.545202233211272 10.954095512121786 5.909872069323447
Mo 7.393214793568187 9.838200542694562 11.953595128190752
Mo 10.574876096394188 12.117238287883714 8.371537566507877
Mo 9.243933448409116 7.394498103544317 8.185949943145618
Mo 10.169473012159829 5.912190629211301 9.6279693869928
Mo 11.229290378841903 9.8839964752359 14.389535567524154
Mo 11.044533222556987 7.673883116729977 6.177564440408091
Mo 12.07697357473555 6.931407568641279 7.766156233845749
Mo 10.762359140449126 7.2809552677125025 12.948451584383651
Mo 12.226448955592238 11.345178775407378 13.19845301272315
Mo 9.912127767507686 12.292557196926024 13.397945394611742
Mo 9.02996192288124 7.769218023786089 13.682946938335576
Mo 8.692453793273401 14.555509161790628 12.172078844785332
Mo 8.902722053206144 9.95116938838229 9.389805515380436
Mo 11.456589522960247 13.453911050856105 11.229632761652747
