38
Energy = -348.15810237 eV
Mo 12.804579439469157 14.623520689967336 10.659244158328468
Mo 9.669823736305885 14.235101221441475 7.355535745478415
Mo 11.45209252233912 13.963894924249864 7.649211802689363
Mo 13.771171047832079 12.834967860640823 9.214967318417747
Mo 10.369992366083707 14.795910205522208 10.187683195291392
Mo 12.476874095219955 12.98746934627959 12.634338780989584
Mo 9.802739775309577 11.589753023549545 8.196398245500262
Mo 8.53215915648488 13.169897861973713 9.934233066926229
Mo 7.299237824547394 12.429113809657547 7.49469378384682
Mo 14.708557430861893 13.291488483128434 11.466388796412579
Mo 12.265557081408895 11.037264665456147 7.750606558430005
Mo 9.749197640526084 12.999353244154722 12.158482456252779
Mo 11.474087308647686 12.2901776315275 10.172450487449764
Mo 14.646342406591552 10.2135716778698 8.995005565820309
Mo 10.592629871962535 13.348122328110929 14.782588569731825
Mo 13.737638235400459 11.052579837567391 11.232962397505498
Mo 6.855957275231169 11.2901063359365 9.007256409348527
Mo 10.983419561403151 15.145230789445932 12.475966514840309
Mo 10.85874816548414 9.211328006372018 7.226384694471038
Mo 8.515281213777389 9.626934249245336 7.756516600717757
Mo 12.020498624148539 9.444697441194132 9.760191276630659
Mo 13.708647050310471 6.030327809730033 11.856574470418645
Mo 7.267523671117607 11.696470970233856 11.918477663158257
Mo 10.397513227111991 7.7472480046254875 9.114058700313109
Mo 13.085103997151098 8.623283957600954 12.262986162264527
Mo 9.119996154283898 10.432394240298706 10.607984084712161
Mo 11.162179641803217 10.430750714700256 12.488854303788385
Mo 11.313827913241466 11.655544359271007 15.039259506652067
Mo 8.097245553374702 8.289135230765476 9.899686856252366
Mo 6.409402599665641 9.577077651106721 11.223540312071922
Mo 12.383827717517944 6.35449724913867 10.650194002539696
Mo 14.55432109700245 8.541471463478487 10.005829680799975
Mo 8.95455703760399 11.099579461876507 13.714155530676573
Mo 10.345112101516401 8.026735343948365 11.730071755067101
Mo 12.50917210632919 9.081964923459383 14.53976963183727
Mo 8.013319409543865 9.001651024871526 12.710852888165448
Mo 11.692044674380078 6.924509734140818 13.586292921834328
Mo 10.17904309550837 8.68629605395946 14.319726930865844
