35
Energy = -319.10493475 eV
Mo 19.203010913237932 12.380227116330461 15.139726443485202
Mo 11.042482274181204 15.238975400294505 11.546865403640352
Mo 9.134459677333458 14.39877815615132 12.606145593509483
Mo 15.48998118628526 12.096165246136236 15.821946337766924
Mo 13.45477205335474 15.618660197036926 14.69177119633827
Mo 11.260946360345667 16.208470884259224 13.728151182545588
Mo 17.225702124248407 11.013118300739025 14.484777505577265
Mo 13.342465739513981 14.912093287551665 9.488379436137704
Mo 13.363872327663213 13.46722587877287 16.302271037032963
Mo 16.94650939818336 13.017451494296951 13.317251258096098
Mo 10.56594583584961 12.544299066502653 16.27475720834378
Mo 13.600884651582843 15.734423391956572 12.332026474007169
Mo 10.820355155682478 13.597741816333858 9.710704338012391
Mo 12.881308996245403 13.166206480338637 11.334645188282408
Mo 11.140407172712159 15.140610130508945 16.403836418028323
Mo 15.504230818403803 14.15665444855077 11.182185449663429
Mo 10.658414162842982 10.80603776263834 9.513251232657677
Mo 10.291536204401515 12.35942948897176 11.843863224838609
Mo 14.9542704906197 12.475641122261516 9.537057174427968
Mo 17.945271281729294 12.73178133539866 16.66260647961439
Mo 14.302926037465486 13.263145399265904 13.703653345445625
Mo 15.371977881679971 11.415774214682557 11.992853452725647
Mo 11.492108690209168 13.572235008439879 14.01209501299938
Mo 12.712044041519045 10.96840841984396 12.763138174701885
Mo 15.91913382214666 15.558540076895396 13.086581529237822
Mo 18.041643875599778 14.81812778247609 14.83930704933996
Mo 14.627736806321689 10.397396797919642 14.028637530239573
Mo 9.493360645959543 15.13527667773174 15.307823367334374
Mo 12.78894183761308 13.116192191209286 8.391172369558742
Mo 10.823913285822785 9.74202118581907 11.012986325717394
Mo 13.407064023952008 10.851459838236226 10.263482029559219
Mo 16.107084550041368 14.69624196947097 15.57099578636098
Mo 8.957804680462676 12.371958004231224 14.464534145984562
Mo 10.342558464396692 10.846514283031839 13.944289541744945
Mo 12.559866501015184 11.44056983804346 15.562070630357892
