33
Energy = -301.56547716 eV
Mo 6.55411991518673 9.258305366299732 9.464419285084698
Mo 7.629881778563992 7.138739022942138 9.0972256528742
Mo 7.377194149900265 9.188321497934501 6.9995579554638665
Mo 6.95756340110344 7.645093224250102 11.707538190232263
Mo 6.166462011618804 11.691526587191138 7.562007274438968
Mo 7.273692339991669 9.581970628786165 12.274239390736712
Mo 7.508069878402696 12.278417988105225 6.429394094481378
Mo 7.053973098737182 11.814214999707797 10.215899346303015
Mo 9.359214582960815 8.0281089110704 12.827212536061802
Mo 9.666260932292417 10.184561663233469 5.7916750002572925
Mo 9.0640381272345 9.118305000050423 10.388670961868629
Mo 9.326552662155905 8.016502010967875 7.842974615379202
Mo 9.671273069085233 6.521918354680218 10.740952918524247
Mo 8.739962122470242 10.661792053911187 8.381313973481365
Mo 9.960844747783423 10.852608591032814 13.723439513799672
Mo 8.142212326531965 13.288770981474578 9.225962449567932
Mo 11.549108543821607 6.8560022775830785 11.994667367635286
Mo 11.603377813172298 8.370257543287988 14.481527189231777
Mo 9.432745819381292 11.712660057875066 11.290920615119681
Mo 11.460093263227222 8.192611638726698 9.528011509677857
Mo 10.204616203084033 12.631236890701627 7.5101866735508525
Mo 11.31214034464825 10.899183575272119 9.466457166970535
Mo 10.802177142006844 13.470762209029116 9.568545446149695
Mo 11.301823974847306 9.55231617429154 11.886571269115846
Mo 11.23573064064598 10.089540070352253 6.84557074334846
Mo 12.972597029972382 12.507006780741523 7.821175029474839
Mo 11.620984983789647 12.430657995590227 11.976564521438824
Mo 12.06943558990439 11.258848822178457 13.969098934375968
Mo 13.258625050736786 8.585990996713385 13.666839148034308
Mo 13.469995142935117 8.116438498443491 10.750507450232941
Mo 13.461230324354041 12.866605389294469 9.655843426297993
Mo 13.649720115869803 10.04924547098587 9.097328839313858
Mo 13.5751809566757 10.62581945038649 11.351544766807645
