30
Energy = -272.27306204 eV
Mo 12.952366727606801 12.311371115835298 8.277755637855382
Mo 14.525409912740818 9.826917891167076 8.255621535966958
Mo 10.690422066016415 14.512751941525817 8.863321278433618
Mo 14.673197526522213 12.483852377927173 9.29451192562619
Mo 10.163574864896617 11.804990149416037 9.407927431413908
Mo 7.973751770132668 13.720476822006738 8.542375311855787
Mo 11.800582926221152 9.859504391958957 9.212664824643435
Mo 15.689924897556295 9.784055937937856 9.758036849998355
Mo 7.4181934394965 11.438621382803419 9.911446099936462
Mo 10.619575153852608 15.559312383414886 10.603426307145579
Mo 9.304220398251855 9.669475338072427 10.430960613636804
Mo 13.37514443409994 10.706340523432083 10.764200211079356
Mo 13.303660723516135 7.878478519363856 10.095220601488299
Mo 12.33202736963541 13.400670656134993 10.497579960171194
Mo 9.248981903877624 13.347367288814707 11.164192642691152
Mo 7.930609247871964 15.187427044828723 9.707189060484978
Mo 11.315445500085984 8.619369048846453 11.579897977770559
Mo 9.016280337199039 8.118361675546861 12.799592697153132
Mo 6.897326609733921 12.70064100956193 11.49927957991773
Mo 11.513932950289153 13.933572883695833 12.870994174888066
Mo 10.847249190663684 11.388704795501438 12.037823532616743
Mo 12.657500402392849 6.195632474206026 12.3919383393341
Mo 13.245977067306075 12.702359983648256 12.834258889110698
Mo 8.354400718800319 10.755247781715196 12.412486895605305
Mo 14.20397858096705 8.500121767546064 11.976141498763033
Mo 11.922337438919554 7.143352034357397 13.757862563871575
Mo 12.55328869067064 10.066107976183567 13.333598475365676
Mo 10.026754968265825 9.451097365766202 14.068364218503564
Mo 9.571147003231065 12.470341909998785 14.246394507325894
Mo 11.335666026760254 11.926404376365566 14.86786520492689
