34
Energy = -309.3674363 eV
Mo 14.349856606682325 9.2482150996495 10.95933774095992
Mo 11.719361818654775 11.973730932774828 16.527844679579964
Mo 14.212056572008622 11.735230987663265 11.221885183189302
Mo 13.427993775324762 15.942071632282994 10.098006090678822
Mo 15.266932304444408 10.670402535107085 13.35132811622777
Mo 9.946557554829273 14.246877371710012 9.69510352623508
Mo 9.997162633698435 11.179905105125691 13.173805823591861
Mo 10.317000871441927 8.620241611937224 12.735160534718949
Mo 12.602292547282689 15.846314034677183 7.593373767451178
Mo 12.747174270594204 13.571969053847498 9.466793847557515
Mo 12.332306897920677 10.988497058918048 9.615529803101648
Mo 9.95959513867727 11.715876758335243 9.039987425900506
Mo 12.710636498940383 7.125938984262474 12.249296904826343
Mo 9.324936493687884 14.04428160582945 12.44325547485143
Mo 13.68696048808315 10.074201251184109 14.943691594750533
Mo 13.604753679381808 14.192584197592064 12.039059488024913
Mo 12.935726389025929 14.349880909580168 15.920385048771596
Mo 11.239698217983051 13.895814117635892 7.674937596578563
Mo 10.988746249732557 16.564230092759868 8.688177936994588
Mo 12.806630596459911 12.381540531993952 13.935589395528627
Mo 14.964284345338784 12.725622702267318 15.392224193069541
Mo 10.410298948198802 12.920938859843183 15.147968132878917
Mo 14.541844998994238 8.222721491875971 13.157187050914445
Mo 11.45426217731314 15.694722846359433 11.095176473023544
Mo 8.462107355274615 12.611593154571871 11.336498535129639
Mo 12.459437111924798 10.115414881525005 12.533173055919491
Mo 15.589476952686054 13.246800132786833 13.484344744190222
Mo 11.729519585211825 7.826343023514751 14.33835080581694
Mo 11.09177667912671 10.13290050406888 15.102584015485238
Mo 11.819121089793418 14.789069314025786 13.678448567422981
Mo 11.344352369618596 12.596381055153273 11.464722846802596
Mo 14.23664288413859 15.341527486567125 14.544204564419637
Mo 9.778018093442206 10.257789294000947 10.560501761369034
Mo 11.958389097393372 8.620962344210177 10.47055886728875
