38
Energy = -347.80951766 eV
Mo 5.13403607027642 8.825255380787796 11.647245051192264
Mo 10.844961226817384 12.218591989408145 5.825550728365055
Mo 9.554827567938368 5.157761695044647 8.609147563006324
Mo 5.099903182904739 10.898568660092858 8.68092460520418
Mo 8.968737772624527 6.517053416496388 12.54431537966614
Mo 10.744577171607968 8.761477488098722 5.274230768037537
Mo 11.877309329415905 7.9263873028079 11.570425599774396
Mo 8.110831037433423 5.137276438771105 11.07670747432168
Mo 8.139753862324048 8.4869401813966 6.545819660842949
Mo 9.453339240471879 12.897395795274887 7.0430689530670465
Mo 5.951025529542225 8.71940154980781 8.547262622128462
Mo 8.52969107191947 11.577551229935974 12.155566957229642
Mo 9.42019197706126 6.692069189009518 5.011370438650034
Mo 11.259535608612765 9.512619101567307 9.854050207192737
Mo 6.895639699398043 4.739610974398508 13.498686125204776
Mo 10.162417396577936 10.309668429359427 7.499423788262188
Mo 12.52451132414365 7.463276655415293 6.433802883478152
Mo 7.433777992914967 10.937331669113313 7.344753268080166
Mo 11.296075738554466 11.889625101057593 11.042436606191911
Mo 8.579459276012344 9.04616193095299 9.174668703039691
Mo 8.191696507917587 7.993079922108169 4.061955868647572
Mo 11.72547400448872 12.073062998018376 9.14666369159095
Mo 8.989183988551371 10.617894160419562 5.201077469989365
Mo 6.621796704509064 9.179038801651512 12.921831717711662
Mo 12.660036988682334 9.625034684544385 7.200211209665385
Mo 7.858192407384879 6.381504751394978 8.369326174418422
Mo 8.991492000507407 11.720601600511875 9.652721699330858
Mo 9.26980127878894 9.514646602826064 11.674317435855215
Mo 10.095383172371662 6.968684928159315 10.426075905434008
Mo 7.245293382931402 7.558220352801855 10.816698618999576
Mo 5.943296614678886 6.1267748433206 12.841800320564579
Mo 13.724477218357439 9.427937279390878 9.487837718739195
Mo 5.551477238318429 9.307474370739092 6.080577738667023
Mo 6.760939898192268 12.649266409273402 9.042139371978118
Mo 6.7848645864686565 10.588047239205018 10.580976289396519
Mo 10.48029385496251 7.563050869318528 7.772391802361391
Mo 12.927754441500266 7.442401972000298 9.188207477465012
Mo 5.987558522453834 7.338868923138376 5.945346993868885
