34
Energy = -310.04276429 eV
Mo 12.936771917364238 13.803727423023318 10.28216705642787
Mo 11.44433151128613 12.314403936811606 11.909494964760654
Mo 14.766226290244646 12.905412356452112 10.009113228297176
Mo 11.157764977969947 14.209570211572856 8.115519827216591
Mo 9.748501883980817 11.794866751591359 14.269241751870167
Mo 13.572850617990575 8.446436184688082 11.322029227207146
Mo 8.89791754752084 13.344956080807801 11.687271558739978
Mo 11.76213304331969 9.847033151144784 13.020339658810203
Mo 10.323069171427537 12.269283965454184 9.471405187304223
Mo 12.827009338863292 12.013511946019227 8.401522280144214
Mo 10.170698269631975 14.647519917057702 11.014000219543734
Mo 9.80060864368785 8.935656492360932 14.465261527642005
Mo 8.44740868674171 10.88494000700796 15.363725524698717
Mo 13.520232199260613 11.12900176795027 11.173990668619528
Mo 9.49832218572237 10.518561503841784 11.721957407206514
Mo 14.50858602018423 9.857737848737502 8.9200577999623
Mo 7.391416185921347 11.160231772887618 12.805593501957757
Mo 12.314927293098616 7.633677537410152 12.984203554091042
Mo 11.563013522765528 7.113304904840945 10.056341427080886
Mo 8.232609307027882 14.200362262808083 8.8968633819642
Mo 13.829615120225588 8.058042268635244 8.607096024359834
Mo 9.934421176166522 7.988302229776632 11.877118078143138
Mo 6.743688490830528 9.73730426982606 10.923855020140232
Mo 11.66035915903105 9.878353476477873 9.823855607536856
Mo 7.8680630406600525 8.77519591903475 13.322016127999003
Mo 7.78983123097597 11.322696171415776 9.778554334899804
Mo 10.877244543935232 12.587026250726224 6.755776430619128
Mo 8.857060651457797 6.0994022921162765 9.893765668355385
Mo 8.112190890799972 13.000830839924227 7.518664488234183
Mo 12.148114684142922 9.85296032121589 7.351069027799464
Mo 7.617427762866913 6.828543241993226 11.007281385082694
Mo 9.75700465622605 10.501837647664601 7.746254365461182
Mo 9.127941310237667 8.837036295472007 9.616323836204133
Mo 10.957881846047156 7.670087172719465 8.070830080471866
