33
Energy = -300.70930409 eV
Mo 12.173948825005334 11.546672014360178 14.574131452805126
Mo 9.681856869960763 11.022789172306839 14.924004198363102
Mo 11.32672403516114 9.096430817888304 14.247503525939313
Mo 8.584119189615741 13.239668426204238 14.050151510505772
Mo 10.00579956149306 13.588296657214837 15.501553722985724
Mo 13.690910835962462 12.247581880843937 12.360047211952743
Mo 14.870153647162125 13.821127066317738 10.40048854254849
Mo 9.416927659584035 10.089089506752567 12.74818306556243
Mo 14.241141537735594 11.250782336332277 9.900112352689952
Mo 9.098958067916557 11.875572367502162 10.76012953064177
Mo 12.229727885079814 14.307468984216598 11.252912807709707
Mo 10.34915732369868 7.484945141096766 12.261853515864201
Mo 11.666560760581884 11.818030608874645 10.233570835106763
Mo 14.07072956961938 8.502141249218852 10.827706641029973
Mo 13.97331209464306 9.682574944058418 14.333538144386853
Mo 13.146696341151303 7.242822067086891 13.182230879634698
Mo 15.064602253910065 10.34453183863437 12.27073423999006
Mo 11.486365504577043 7.36785551122447 10.69300968687486
Mo 10.679937418099378 12.43719225855313 12.718023482405632
Mo 10.14024355214872 9.627159794105978 10.388966631811414
Mo 13.25982183720492 13.437271866624034 8.849030132634347
Mo 11.907769910638475 15.72490772409078 8.821515261913266
Mo 10.784246189540287 16.455650269096417 10.651126747373826
Mo 12.205910913055979 9.933326146247474 12.099763483472236
Mo 10.660142501546407 15.194921135905117 13.486529977083855
Mo 14.55396286429981 15.07981780267246 12.75837904349533
Mo 15.026185253487974 7.6612144565703755 13.21291948593702
Mo 13.843756881824472 16.081185190084103 10.161015613109859
Mo 12.976255893705376 16.473602969245906 12.598350890641148
Mo 9.370480034373816 14.57174305401949 11.38705753195016
Mo 10.194076182442963 13.813680969126265 9.41124613534971
Mo 12.706958685439508 9.556438678491311 9.265526025668004
Mo 12.534908690100194 14.090530962738379 14.121189748801006
