32
Energy = -291.85305631 eV
Mo 10.682508452573895 11.077861191867234 5.72053395787511
Mo 9.588491029904366 13.505301601394255 7.405619756528023
Mo 7.937578617942356 11.298858774203115 6.501826650049441
Mo 11.983130357259846 12.173488922316322 8.0784494136523
Mo 8.686143198754298 9.133572651353495 6.813976940371514
Mo 11.531890425206498 9.65398525913178 6.608740928263675
Mo 10.731778335371944 12.998858004971666 9.98682917760223
Mo 8.282293651510452 13.417888692133927 8.805204755967477
Mo 9.727072771317895 10.932900347783171 8.377279417774286
Mo 13.377021347442547 8.248670488084999 8.853061743172752
Mo 6.9189979283379754 10.723846907904074 8.435513118723431
Mo 13.549231398406787 12.449523645810912 10.445542049620842
Mo 11.993865132359087 10.211917234694525 9.726966164603773
Mo 7.972062730245402 8.721656545776625 9.28554731058952
Mo 10.587223463988492 8.063567815238983 8.679346616103425
Mo 8.518847267737952 11.215507385745966 10.577802270743403
Mo 9.126045417062445 13.068939916041105 12.332982262165082
Mo 12.460522396347987 13.666308417613438 11.916728382254616
Mo 9.428559513417634 6.660672913538383 10.020511235184275
Mo 9.904960613709788 9.065401359849853 11.16176694718607
Mo 7.147393049338947 9.174434059658578 12.045890158518175
Mo 13.832827699583037 10.052964050371253 11.499594457872199
Mo 12.436458440881763 7.42542135545217 10.414401642378468
Mo 7.595763507903516 7.334252028448719 11.834722198451887
Mo 11.215321954516469 11.360278451428515 11.957640903888635
Mo 8.905984561802217 11.140410376033502 13.251062851098144
Mo 13.528513953794498 11.695571494701072 13.102983753165583
Mo 11.031121490642533 12.70979563914586 14.396159851492625
Mo 10.394729352244399 6.772809468465326 12.654392678490824
Mo 9.545707535907075 8.270950407213297 13.700418467172328
Mo 12.033873790162787 8.902914336441253 12.712660401065238
Mo 11.317896391017497 10.82634009078218 14.662746307228996
