37
Energy = -340.23675814 eV
Mo 9.658484889369989 8.932224699312325 14.55405434426453
Mo 10.180087098487588 6.629626271559005 12.661884867445544
Mo 11.590936324292574 8.992185332302688 12.878876774396648
Mo 7.43669298916003 7.54674518079968 13.477790761019415
Mo 12.261025890571222 6.713100069491059 11.974708073618487
Mo 10.784521008208415 11.351693661501935 14.063139433840329
Mo 9.974889816215464 6.695283813313703 10.258020253300169
Mo 8.08244441057938 10.332146247643683 14.008815220863038
Mo 7.744265099120014 6.957720698741887 10.744361997537007
Mo 9.10014958595451 8.943145842517362 11.774676568051085
Mo 12.723060460305701 6.673053479722264 9.107765328180143
Mo 13.449810780802304 10.5886275057344 12.077268394703427
Mo 11.548132234240871 8.955296129241413 10.252463209630356
Mo 14.008676251611904 8.769877508311984 11.231852245385042
Mo 10.769744037679184 11.243615680058923 11.299978723377006
Mo 6.3420616916282295 8.834812725689584 12.51949626612709
Mo 9.412227259054927 12.53962710155356 13.146050457077948
Mo 10.559727262861875 8.018509344892971 7.996044910924259
Mo 13.187060415333791 10.858433539041721 9.452516431327817
Mo 13.480138259855059 8.199040758893851 8.321371255777224
Mo 7.037339308562963 9.24512451098266 9.784534731493707
Mo 8.089659685588558 7.822034104169615 8.172326365283867
Mo 12.81124487159459 13.402312463343055 10.894106012945288
Mo 9.252160434862752 10.2507451597759 9.094375043455123
Mo 7.885553641236036 11.248841407839869 11.480048302207615
Mo 8.647201317636682 13.057342588941784 10.184600844362267
Mo 11.71585930717747 10.380238040003409 7.576511576110966
Mo 10.973233576335755 12.444605965304936 9.008856403836456
Mo 13.222226311947995 12.825366804108079 7.499618290412318
Mo 7.267738944483985 9.92281737366286 6.9577779560598625
Mo 11.17702707809746 14.170303456467346 11.27841091050653
Mo 7.109123269045878 11.949786830272132 8.698639263829389
Mo 9.311745580338975 9.88611427145456 6.387939837205823
Mo 11.831022168921503 15.092332825312344 8.520285951514971
Mo 8.957391040620353 12.301027790966748 7.366733483496917
Mo 10.030916456202958 14.896616745352896 8.227681346144557
Mo 11.620194164585357 12.591762400962082 6.341794105343084
