34
Energy = -308.90829123 eV
Mo 13.300319015839365 6.479628474480703 12.123725278821986
Mo 13.099560005794084 9.175192087258033 12.78668954497908
Mo 11.562460173031376 8.184073004590234 13.92775493868218
Mo 13.263579453717929 7.323034621991516 10.51075703270817
Mo 10.645561463459298 6.9609209515221755 11.76758195096826
Mo 12.798603159165214 10.150247718634645 10.163423129647214
Mo 12.626482328105466 11.676680926338745 12.445617359004645
Mo 11.170335188248435 10.787997303148506 14.156372261606542
Mo 13.116385845791541 9.164833575465899 7.8302747734489735
Mo 10.460499842324603 9.845496935099506 11.927993284783646
Mo 11.052788702242266 13.337096080354856 14.184147946649606
Mo 8.824587757525372 8.532678702029818 13.421075899656179
Mo 10.730599668469608 8.328716869954897 9.514049479298977
Mo 13.837138922740104 11.058481367336453 7.7471014927660855
Mo 13.52968051381289 12.60293957554175 9.93974666737124
Mo 8.584414955618987 7.717740139154961 11.202687807773115
Mo 10.881104483510985 12.035273168427974 10.23246147446722
Mo 8.326508136021948 7.961251284567888 8.350808665693751
Mo 8.884020512235008 10.305797250583234 9.622135955701308
Mo 9.789759994078874 12.587508768092947 12.70667454580338
Mo 11.886257237306065 14.027525316048262 11.66841131465399
Mo 12.653279170038651 15.001200463944368 9.374801565885155
Mo 7.795538602886219 10.64293500802562 12.052067958446814
Mo 6.576580518822784 9.035999647469492 12.807941376729055
Mo 11.903226966643638 12.980310987682214 8.062670215112531
Mo 6.19627520540702 9.277838240269325 7.425196453248827
Mo 11.041972701227216 10.545384408612154 7.819361305733986
Mo 10.346337043532921 8.190471625160283 7.062917007063196
Mo 8.297019245299532 12.863724570767133 10.00434782168142
Mo 10.497927272699503 14.615788166830198 9.752090069583177
Mo 6.605531816389054 9.09695854767216 10.044366527570036
Mo 8.545998133081666 10.127969976404767 7.054560998524852
Mo 9.058154782232293 12.755746119889142 8.033772010955799
Mo 6.52346186420349 11.068751515770987 8.577456655691678
