39
Energy = -357.42500392 eV
Mo 11.712339833981515 14.63748489316295 12.690203088141226
Mo 8.622633250284508 13.165817103108125 14.882530477930024
Mo 9.272107667086443 14.115347716458595 12.323707407561304
Mo 14.218705168166888 14.636698787651564 11.025811402387124
Mo 11.056423843378326 12.702526104487216 13.934286854010082
Mo 11.339868108548913 14.314877982170328 10.321965120278039
Mo 15.215473727836553 13.44638893507999 9.951096806123486
Mo 9.025265315758316 13.582324909905914 9.674788632015778
Mo 7.449718690210388 12.435220204953252 12.461727252696521
Mo 12.838016468354107 12.408933284494607 11.7516981132379
Mo 12.921201987009523 13.861406048990585 8.41236622800622
Mo 8.633167972179093 11.283175285204578 14.902115040994087
Mo 10.036689570458782 11.846269548423837 11.685857738984124
Mo 11.026446946918771 13.785698758750087 7.4875044685278125
Mo 15.187121598602172 11.630191276306034 11.949060427559113
Mo 10.815222304921772 10.085209854699324 13.654598351566507
Mo 9.176307926300481 11.776121489305005 7.684003776357414
Mo 11.237375933657509 11.764409634563561 9.344886301498203
Mo 7.610310204468235 11.77559951590719 10.075726499734042
Mo 13.54282424327428 10.496361803422552 13.296676047780128
Mo 13.824341623865461 11.138051846987056 9.392941727716913
Mo 7.676714305784578 9.99359773407694 7.866367979523652
Mo 11.93513252880921 9.755806002356081 11.306822550650017
Mo 8.277845041733977 10.051948225515549 12.27787039363402
Mo 9.52852495606977 9.662488515031011 9.666365350323744
Mo 12.496774643913128 7.801532615964704 13.685118518752333
Mo 12.27196803876554 11.472178042753168 7.042429979903863
Mo 9.16870689003275 8.48245775473926 14.055022899871972
Mo 14.581024111431663 9.453104105497443 11.046576924064132
Mo 6.7595911948039795 9.356141643242973 10.331655978332181
Mo 10.645021401781333 9.801277814762786 7.2599151908521105
Mo 12.552437811596203 9.1232172095571 8.718515552315115
Mo 10.243049501589196 7.891510552955045 11.96349647018777
Mo 8.03605584589519 7.551260087634372 10.692606991665404
Mo 14.33400133998411 7.843038930875679 13.22517104817253
Mo 8.772438852894094 7.4749874063311506 7.920090422231905
Mo 6.87908491802438 7.472086274744356 8.301181202358281
Mo 12.861776170634243 7.338609606709826 10.922964270152896
Mo 11.021103494969099 7.389115300539077 9.601248720350913
