31
Energy = -282.58933301 eV
Mo 12.382255542554875 8.71418266665382 11.947984541699716
Mo 12.332928215794649 6.334336672783264 10.450086773326236
Mo 10.844675233878457 6.078399204652619 11.65347473474109
Mo 10.586524316685772 8.646051418752094 13.011199838873154
Mo 13.027119203924778 11.344254052280863 11.890946453212258
Mo 11.575252210111842 11.19733614413639 13.380472498341561
Mo 12.703886059039124 10.102230033060808 9.482458374726923
Mo 10.307623687060186 5.83144751282164 8.554520938044732
Mo 10.57506822021868 8.245104071193365 10.03079091174331
Mo 12.028719450268039 8.41877836508036 7.784180261050028
Mo 8.426777167361992 7.964937742156891 11.575533519927538
Mo 10.47288484802275 10.8735152063593 10.98491257581499
Mo 11.304805558374815 13.422376953142134 11.505578006845953
Mo 8.477535912126408 10.366183656692076 12.485391231309842
Mo 8.60448077789548 6.3807032191795185 9.291984445331488
Mo 9.633144210168913 13.03031733544401 12.58134996606312
Mo 5.969450498605508 9.531645078785083 11.410040943801851
Mo 12.348981773456131 10.64038770746227 6.6552298677386945
Mo 10.240166739143863 10.457385827661255 8.230208282408649
Mo 8.121788270003467 9.554419804419714 9.658115980690573
Mo 6.078455322230199 7.757949117172518 10.42377640239338
Mo 12.082432687201582 12.160604419661526 8.580691568037688
Mo 9.57161756725388 8.15371758782757 7.420826633096092
Mo 7.687815025759322 11.870304666087566 10.87547111039886
Mo 6.530353490356635 8.307582892392887 7.804051991911911
Mo 9.587046994276708 12.859728266677852 9.646428995622637
Mo 10.135348503376475 10.223334733024528 5.5171777438264415
Mo 5.765554252356553 10.093902467989674 8.75334172428858
Mo 9.929854850101359 12.21429878202306 6.386813474984322
Mo 7.838509037811503 11.898164695971 8.040107136022105
Mo 7.789071891412148 10.14113104149781 6.661845146726068
