36
Energy = -330.28085647 eV
Mo 9.634401258386601 6.782172947538424 7.712279474724893
Mo 8.758934516424585 9.188833690342491 8.6821362352522
Mo 9.617089740400871 10.174571107472508 10.937939258444443
Mo 12.262365869882336 11.245888933304107 6.411293397597984
Mo 6.97876531619164 10.413326507921136 10.52101745449523
Mo 12.406802967224621 10.88740879732013 10.564594238969667
Mo 9.650250464682884 7.302024449622916 10.553423705544747
Mo 10.25156471332908 13.522998452674337 8.43734651189496
Mo 8.298753841461123 12.098548560566538 9.49106774147137
Mo 14.287100745194143 9.958596945138119 12.328784705779281
Mo 9.912438256047958 10.15806151258162 15.180279731631117
Mo 11.139949400961097 13.790947680565381 13.547219600371909
Mo 11.791576414396252 8.561013002608313 12.126712764906049
Mo 8.08483455088878 8.737493572709639 6.229536181857196
Mo 10.772814630040358 12.95702224605866 10.77905696590551
Mo 10.68692112754948 11.15122960250542 8.497854059524988
Mo 12.69343707314875 12.932367921356953 8.482674955315698
Mo 9.080528890713834 10.630772044666738 6.296230144721227
Mo 12.593750661449812 9.662666522441514 14.04617153034548
Mo 7.9154460795459665 6.5185511804826435 8.449600806445828
Mo 10.81081562168589 11.151767334130504 12.939278834055814
Mo 13.382549470585664 10.319786881657773 8.113038454127462
Mo 9.463587616447926 8.6971198604764 13.151730338257693
Mo 10.977367512698558 9.20047117000735 6.667598757667621
Mo 13.627812119882801 8.511938920833796 10.209145860145611
Mo 13.31740619199394 12.053089640138303 12.945548908144707
Mo 8.91804542975028 12.060079566208499 14.65723265025169
Mo 14.776767622340268 11.783332040899808 10.300448464790763
Mo 13.48151324038051 13.452621716959515 10.764333955642496
Mo 11.683481153782433 12.702506444565445 15.032720289803212
Mo 8.57614211739217 12.66465598029313 11.914895692135524
Mo 7.693906695237197 8.06249537053464 11.056342180262778
Mo 7.839981816439431 10.574255305057928 13.125466485946829
Mo 6.084285850538517 8.767182908734553 8.377414022921133
Mo 11.622728196375947 8.526059157508648 9.243609071363561
Mo 6.505470090353896 10.535852622515577 7.724154835266585
