34
Energy = -310.21018737 eV
Mo 7.266613660584773 13.182348345962403 11.079560054899973
Mo 9.353264043626615 11.932164626175528 12.724529989274878
Mo 7.353497164024401 10.036405302716489 12.095003932698528
Mo 10.07498752815247 13.362774266297524 10.633753341417599
Mo 6.094926246200463 11.116594646659877 10.520026905837149
Mo 11.342312171634315 12.865116474977382 13.42002886597045
Mo 7.5639089265372315 13.095391411000097 8.986678583053484
Mo 8.931121251997094 11.121246534494954 10.170973843377512
Mo 9.963089034501067 9.34930658034253 12.500238173412715
Mo 11.676591555211065 10.67379047051447 13.878560140163358
Mo 7.857450373990044 7.327216712804305 12.508952119478545
Mo 6.3413758024958335 8.396653917658009 10.344671679155615
Mo 10.041400359144797 12.953639351397742 8.177374111728046
Mo 12.385703936029406 13.821932738998674 11.051292557228791
Mo 11.763940505461456 11.063175541148613 11.230504571404342
Mo 13.948095092533254 12.08797966078926 12.738833481791296
Mo 7.145708288496672 10.093256334245 8.40608265050138
Mo 7.098873998106918 7.7498656902313865 8.032979062449828
Mo 7.617373547056058 6.233162973717122 10.891479868064986
Mo 8.886947063737253 8.54829238493829 10.133174047948764
Mo 12.486496308036681 12.71421861699835 9.017012716945816
Mo 11.428287901949652 10.194853065688894 6.003055444059124
Mo 11.002871656338941 10.164839812358863 8.793634013574462
Mo 10.461963843540557 6.799164452609202 11.454773159192937
Mo 9.12197325420496 11.11929317653406 7.151879910342282
Mo 12.136474712954985 8.38494428648077 11.974034417979466
Mo 14.104484566981352 10.132615033595581 12.654432498941183
Mo 9.411492344400893 8.580350860934086 7.387150810940265
Mo 9.350672871264928 6.360015579251267 8.597590044188484
Mo 14.162373227125228 11.463580958523771 10.123831413288686
Mo 11.32035372485656 7.402259062598793 9.3926450284468
Mo 11.882537908882316 8.345363021365356 6.7773861341612704
Mo 13.352491995495456 10.468794595526685 7.793162506628686
Mo 13.395682376381094 9.224033410845962 9.78903950504201
