33
Energy = -298.793707 eV
Mo 17.36524125965814 10.738285706459989 8.60966317569849
Mo 11.803853217574039 12.198138973831016 12.37757818144557
Mo 14.484230912185083 13.244416608535987 13.23985768374628
Mo 13.85998579353597 11.982532878332687 10.624683314026353
Mo 13.283208213199828 14.415129688138993 11.643154493840855
Mo 10.974125336950813 11.107762649812692 10.344949922403117
Mo 13.381652104323958 12.261861008760864 15.036772209918142
Mo 9.03754075300031 11.967185472086596 15.866082768972731
Mo 11.348701184419967 8.599033358936346 13.320205472245503
Mo 11.81289503417175 13.701605999790344 9.47361467388648
Mo 9.539631256519545 15.529937824567257 14.381474419244869
Mo 16.101732236457572 13.750637601423739 10.795384878203185
Mo 9.575597389232511 13.17553041091994 13.835693571797325
Mo 13.646654909150245 8.989745686812034 8.451643918026386
Mo 12.405786212211064 11.515295575991322 8.120065720778511
Mo 10.659781964632145 14.868739399629352 11.80524351927486
Mo 9.524084891485797 10.611284329388509 12.648526098204208
Mo 16.542545257293433 13.45217478489881 9.021231765967253
Mo 10.965286072247588 15.337251286250908 16.355716303344067
Mo 11.981700251271583 14.176513858864343 14.293745599559168
Mo 11.682435579357435 9.109445911895174 8.517647306232904
Mo 9.496738040146546 13.310890352313413 11.085985517903596
Mo 15.843105928626892 11.224033497717619 12.1454630306622
Mo 17.910290387597673 11.274132495714309 10.316694594105249
Mo 13.743420287238164 14.010552137389015 8.837248740607288
Mo 14.697672139294191 11.43188019835113 8.23633680400136
Mo 10.234566844474367 8.690731514262646 11.452508155355092
Mo 13.524502362060728 10.420463396222676 13.142341965362874
Mo 12.755333155943823 9.475223564397385 11.091513797630542
Mo 8.756778857978732 14.367570133470384 16.275720588722447
Mo 11.063621098900194 12.883854670455428 16.429583566141112
Mo 15.460739787448919 9.878904868702833 10.403650506046626
Mo 11.096132647716434 10.747853865825668 14.43875295152146
