33
Energy = -300.29435235 eV
Mo 10.662413820639552 9.27297254770504 16.19943114522695
Mo 14.354523114651375 14.015471844420846 14.425407348190662
Mo 13.56009772252038 11.89696294788144 9.580565009455626
Mo 12.298181569198674 13.187012395123567 15.721615354276302
Mo 11.717050783509478 14.570829147629652 13.91896405301081
Mo 10.39908222520674 13.575748479053935 11.711514629787686
Mo 12.357328736376385 9.885537571864576 15.734771627324331
Mo 10.6532701390341 9.264252719018659 13.44906826983503
Mo 11.076680632542821 13.27926955855596 9.380701144588102
Mo 11.940757058879452 15.463945279615945 11.129513957539254
Mo 8.851072369922557 10.45552299484658 14.446282887321757
Mo 15.527836139427897 15.782022487881127 12.398184164279543
Mo 11.89409402490438 8.339483945014612 10.864966210272708
Mo 10.376973463128158 9.516453816657313 8.776559500738035
Mo 13.790698262766782 16.24750878578038 13.052297725657194
Mo 13.499530602186 9.194664911325628 9.946466153811444
Mo 9.299164175054868 9.320780013922016 11.381200966376653
Mo 13.139043232068184 9.587398484073603 12.76408369462637
Mo 14.663431543394271 11.040511694412956 11.640889433337438
Mo 11.670069185680594 11.0331803953821 10.987977994376818
Mo 14.166198481040439 17.175194280886735 10.335068364286395
Mo 9.440177356931814 13.09379117728854 14.720699641168151
Mo 14.066293873421529 11.63900867834139 14.183457147499157
Mo 15.751705913370047 13.442220913806278 10.749773533083038
Mo 13.308018884725927 13.404517533870616 12.140367788214984
Mo 9.458832503272825 11.81447698904999 9.666882834900674
Mo 16.178644285264845 13.066643301732277 12.709003532104058
Mo 15.512039076289742 16.128480198863752 9.566782426791393
Mo 13.35112506302765 14.547611754403906 9.588720173189483
Mo 9.09411736045999 11.456835519504782 12.260951079340161
Mo 11.570387132544768 10.794437841606365 8.033722467370778
Mo 10.192499834286776 11.977378143341177 16.285455641794538
Mo 11.56601913936661 11.777468796958807 13.663838974492405
