32
Energy = -289.9341393 eV
Mo 14.098820126523565 11.761797186534494 8.307317415572049
Mo 12.090433051753815 10.439515920840932 7.114568715908086
Mo 14.79489456966836 12.696000216295149 10.41563567551289
Mo 11.990727645707175 12.43343075432272 6.698027629544314
Mo 12.302907151009359 13.33720793698977 9.442519364424973
Mo 12.654480375962759 10.829374350402997 9.890227332868477
Mo 14.700672049544492 13.680682118751129 12.767242378343038
Mo 13.467063479118568 15.165521279034682 11.070559216373155
Mo 15.020459403075645 10.342096595628359 11.283129895842603
Mo 15.890760645373541 13.011166671426993 15.428773850031567
Mo 14.803616570139056 15.47114741636924 14.504459618238787
Mo 10.383537762984147 11.33478447913579 8.722884306940326
Mo 16.35287185258766 11.469478784253509 12.461836446118186
Mo 10.235872620689925 13.557438612563006 8.31360378990504
Mo 12.434585531060188 12.572758028797974 12.30975701192133
Mo 11.250160533391854 15.065468084762497 11.21300743024927
Mo 14.489403874365564 11.195668117261668 13.912994297451514
Mo 15.164700011013736 13.933096131734759 16.936513812178774
Mo 12.732444004551256 15.759445844387226 13.533535667066262
Mo 13.023657151714456 15.990126251708169 16.376995709567314
Mo 12.533125110016998 10.06863179895755 12.446257287729395
Mo 13.082408365291641 13.447463066714334 15.015558655760769
Mo 10.178652246192426 10.710406966467355 11.41115511831116
Mo 13.885585400539517 11.41398945618815 16.733822918101378
Mo 9.909163021579824 12.89197848209699 11.005268890759304
Mo 10.707612103293423 13.953000664286835 13.566464294052228
Mo 12.076218672447341 10.843751795468334 14.852990293066652
Mo 9.977376014903882 11.561780323162717 13.610421425605102
Mo 12.455029154377044 13.413898784708035 17.477876497117236
Mo 11.20748611124725 15.438243668675653 15.879360265704575
Mo 10.658472543834026 12.699093604650844 16.11340503297398
Mo 11.72917693066062 10.797436583246887 17.266731569551308
