36
Energy = -327.89375887 eV
Mo 8.34048005056813 11.311494175801757 16.103643998242134
Mo 10.244371237660816 13.684849014392915 13.015430404263435
Mo 7.2974039732451015 10.112684503725328 10.731992277377147
Mo 8.330935656898394 8.117911694952094 10.191922104779696
Mo 8.809603348401755 11.536131176334836 12.244349034839612
Mo 7.7693894182548835 11.358077654890701 8.27064035141151
Mo 13.105673390655207 12.611522952236989 10.545939804959637
Mo 10.060800242551664 10.484850543064663 7.204523527035549
Mo 9.693592331914678 10.593248367539767 9.849593948863657
Mo 10.668739253786965 12.032390518140303 14.713939915051045
Mo 12.618702110424483 13.616446597736736 13.023596135536899
Mo 11.883772529228128 9.409471528832032 13.567075406784355
Mo 14.683829024414491 9.070941199933134 14.238836316531783
Mo 14.989528597509912 12.42356502328803 12.42602362006575
Mo 15.696318567100787 11.767579834439706 9.92187640949713
Mo 12.101659024671559 9.399917820185902 10.297163683939235
Mo 7.382458097786841 8.239331323838377 12.888872731862245
Mo 9.908468119855081 13.35084312545984 7.787286567596745
Mo 7.929837643430007 12.516591240466306 14.712954614828375
Mo 14.513198726614572 10.373720209767358 9.173843183366357
Mo 10.06818112842414 8.711690516448998 11.776910064432471
Mo 9.340545208653907 9.950290682309845 14.068849711715883
Mo 10.321599056217131 13.12780809491253 10.279546984457294
Mo 11.71182367454246 14.243390298794516 8.085056516225215
Mo 15.80464999783737 10.593794329255124 14.285236355981464
Mo 6.7432357878109555 9.824966223876407 13.618093048605203
Mo 10.594019796148292 8.312951322971204 8.69464184228609
Mo 11.910764205594493 14.753947039655067 10.831468004854413
Mo 11.884760869096244 11.552479025367903 8.438777405053504
Mo 12.312590098124149 9.174336163506972 7.598933887641241
Mo 13.21212008824989 11.489446274214535 14.289578396300863
Mo 11.456768149705118 11.291188364233632 12.180331040130255
Mo 14.217755919067512 10.345437363661457 11.927337903157452
Mo 7.819910678497202 9.310068576414777 7.905297901618459
Mo 14.685516596477584 14.289897951165177 9.221907721435919
Mo 14.16477349258954 13.035749307499062 7.855654225105615
