38
Energy = -347.98279293 eV
Mo 8.036769710677378 8.431581125354967 4.443675070196695
Mo 7.376234863300645 12.0092922299083 4.93806866922524
Mo 6.241966928119601 9.235359823730692 4.868727317215234
Mo 10.162727221079512 11.499381118779304 6.413953121841296
Mo 9.714359098726298 6.196225170841122 6.094684375200886
Mo 7.516671119882536 7.144888922627857 6.479604021328377
Mo 8.147347450577545 9.99826463873194 6.579198514269017
Mo 6.07743156734318 11.683150251092808 6.361819117634984
Mo 10.242384907975026 8.326827045544857 6.871305020208249
Mo 8.607715479474843 12.731731645891887 7.365067834754421
Mo 7.663052784087892 4.31215143626562 7.885184137654484
Mo 5.75372371682105 8.859290796031646 7.686159740697384
Mo 12.467007484804533 9.592087122481944 8.244922088256294
Mo 11.895539982868511 6.5921697122907545 7.964599554942677
Mo 11.789499310477499 12.203972077202982 9.353394497091298
Mo 9.20048527163384 6.250164054310116 8.48523543920557
Mo 10.588713195665518 3.970049442928964 8.847167304894137
Mo 9.985915148586004 10.675809859180035 8.729215965546878
Mo 8.049810706644715 8.592561101037356 8.79482742571537
Mo 11.686057335257495 10.37310906514005 10.966552057748183
Mo 4.732960207411491 10.422512406182168 9.182738694438758
Mo 6.372201211684479 6.492922073199347 9.202005154767402
Mo 7.6789847971420855 4.34120959092248 9.87016508497508
Mo 7.009481535299381 11.107773934684616 8.996769211238886
Mo 11.088041214675535 13.04090391748576 11.62109306335638
Mo 12.886905779317049 7.708354822053121 9.809009036662852
Mo 8.371738361247429 6.978024988855723 11.086136046726905
Mo 9.050227631069767 12.524724371428977 10.236036104178712
Mo 13.828591206061667 10.515883491598363 9.604596641508504
Mo 8.625525029928781 9.934331630406502 11.107490231142375
Mo 10.595501113106193 8.162922013122827 9.850608763146417
Mo 6.0714303520059625 8.83378802727667 10.584132424252841
Mo 11.040223362018313 5.1667040957142225 10.20991990248145
Mo 10.052334954331291 11.463688322114205 12.64284222024788
Mo 6.1404789085036295 6.5338379139335325 11.582775341318538
Mo 6.911219828940917 11.529291372315933 11.356416305147011
Mo 8.322060026625373 8.368643687100986 13.18416065959964
Mo 10.257865234576796 8.435600740180943 12.738927879133106
