35
Energy = -318.69107289 eV
Mo 10.068361338839782 7.666014877247961 10.922589632233338
Mo 8.461966251745297 9.936923383418314 9.729523869229201
Mo 9.786931864803005 10.800798471233646 14.418940588287445
Mo 7.90550569558114 7.275889144041591 10.405224534803759
Mo 6.33576248781014 10.678300315731097 9.216529061263063
Mo 6.562213520204227 10.954214618575786 13.152016335703523
Mo 6.453030036075134 9.12604532322638 11.32356211034122
Mo 11.023312390776352 9.22036234901721 8.813862779438516
Mo 5.911290589407147 11.945878929554723 11.623455710704501
Mo 7.91410779660855 12.011701505999538 7.681019118993893
Mo 13.544786412518208 7.984099072201275 13.342793216150334
Mo 8.995874273782219 9.80872981491988 6.983279617984365
Mo 7.8564079386980366 12.793405734520448 9.856184894845102
Mo 10.870169580921859 12.937293234006189 12.845739920810683
Mo 10.274241846163426 11.842001685811418 8.671433195045234
Mo 8.807009635905672 11.858455705556068 12.019421434799861
Mo 8.71705726487924 9.24842643045125 12.278683506177657
Mo 12.24544703759386 15.39393934622549 9.936332945833534
Mo 9.104619500839236 7.836213488786182 8.116809320725785
Mo 12.396111510526165 15.166605221534923 11.809967034383956
Mo 10.417534980871423 13.620186200097415 10.406086267824586
Mo 11.512561777676305 10.253856592291193 6.413808219012402
Mo 12.474700466594284 12.922776903406046 8.13273106638097
Mo 11.282373222291406 8.200870800780494 6.239083034894618
Mo 11.113992714268491 10.70672812523375 11.141795868192949
Mo 11.70669642793984 10.932060314593894 14.56523148796463
Mo 12.833862787230231 12.768129545869048 10.788507718098437
Mo 11.336018314846473 8.942577187045465 12.976047778263716
Mo 12.670513823723589 6.656643125598979 12.076801986699358
Mo 13.064114820652577 10.984927449662397 8.889052471521655
Mo 13.508973739915906 12.526059300674556 13.186319389132702
Mo 12.277632412391494 6.900985592739326 8.927415298602048
Mo 13.34792053392821 8.319044288350021 7.790572290508584
Mo 13.594852165082234 10.621686416387481 12.16482666836196
Mo 13.028030055364269 8.54048419845714 10.620841011356353
