36
Energy = -329.23626489 eV
Mo 14.8532551457372 13.897737397819183 12.172242565631796
Mo 15.724607639802013 12.734612510220929 10.918063536821384
Mo 13.251643587854463 13.73925088341758 9.954367438813252
Mo 13.89085993368005 12.003387526584557 8.970772301572154
Mo 12.18222929801258 13.402173678732792 12.478352945320818
Mo 14.008055229137614 11.388265267997259 12.848464532580547
Mo 10.351147032521597 13.61103279243633 10.669853658803481
Mo 11.276402798491734 12.518753002047399 8.460085490495885
Mo 14.461592360547487 10.292565062663684 11.066065184643286
Mo 9.62798466327639 13.449605944234253 13.005852308520371
Mo 11.901675402014986 11.397295705992624 10.900435339005393
Mo 7.386619583029445 13.334722835168765 11.432313482958268
Mo 8.51598492870702 12.863351868849346 9.14376698220152
Mo 12.455614799855853 9.673124893380534 8.756123039771335
Mo 12.39417781940272 9.307062746986492 12.716013242267257
Mo 11.047979075666264 11.433710472154816 13.507361532913087
Mo 7.952339724931241 11.537257137999852 13.998492213087898
Mo 9.158366337984425 11.26308736863642 11.512817113331776
Mo 9.71433792885538 9.437250180611867 13.708128247851327
Mo 13.102748208133205 8.03458124941301 10.555683802589865
Mo 6.437051078953792 11.759254526530857 10.63566929907069
Mo 9.53635113543964 12.060920622665403 6.5951321138347465
Mo 9.795006469361702 10.435487695969744 8.96995821821313
Mo 7.018349133354409 10.154734146356558 13.04661540664459
Mo 10.611423316341943 8.872191578881278 10.960151045619398
Mo 10.871475267943614 10.52568271193262 6.546722027544017
Mo 10.941534041357022 6.950533476934442 12.689870653466441
Mo 11.17549315590525 7.858155728983911 8.342234904240042
Mo 7.364248497508708 10.909657084566502 8.246142879377624
Mo 11.459080876165748 6.281806394569254 10.444639346417006
Mo 7.717189870391619 9.253717306055943 10.080570748438486
Mo 8.485678662261908 8.005078058266509 12.147547194987089
Mo 8.196471425704141 9.78868797843591 5.765952509039934
Mo 8.513970684787104 8.582216719396346 7.1349383298616695
Mo 8.977558844135205 7.104874083354461 9.553377144765411
Mo 9.154276206442747 5.729903681147596 11.553647220909424
