34
Energy = -308.79756693 eV
Mo 15.315766005823757 12.545581675388679 19.036729480290358
Mo 12.629369879496545 12.927223911128587 16.10301353547315
Mo 10.456886425854666 14.402689783796264 9.55076235264255
Mo 15.996864537599091 14.266600016642387 17.446251802772554
Mo 12.979358212902783 15.796752029632067 9.774370922951745
Mo 9.902931565326394 15.399901470280023 13.079664170448744
Mo 8.586302499412142 15.06438191025665 10.90713421894983
Mo 11.749918977797373 13.967714862100994 11.836829654027033
Mo 12.422971690798738 10.580942969793286 14.989477377628841
Mo 15.35326194390583 12.232535706346493 9.769395582709063
Mo 13.4285479298641 11.688764004310881 11.221282675693512
Mo 15.32456534189817 13.036949644590344 15.405923778063563
Mo 12.94878413390986 16.271252887750098 12.478837686736432
Mo 10.736789884210735 16.476757032912886 11.274685257562004
Mo 9.3061678772401 13.048987223847114 11.66797593799027
Mo 16.047860458385813 12.348319244786536 12.625692419797193
Mo 13.344424594364936 12.595021447395041 13.642652993217279
Mo 10.476362746356443 12.742907439301225 14.219630533946095
Mo 15.942481859294114 10.573833945205841 11.628011830464395
Mo 13.41751898708114 9.621466474023183 12.78282861586274
Mo 14.065920385630282 15.101630781582625 16.539983425018054
Mo 14.956705937551375 10.5124330045183 14.411796415031043
Mo 13.957822938666343 11.060459788172881 17.16510707105913
Mo 14.724276940617441 14.994916142150366 13.823088461309915
Mo 16.085629040789904 11.187964457164533 16.68715746572367
Mo 11.040850460778461 11.898687329218339 10.01406361460584
Mo 11.84125295843838 9.376459030396015 10.740545197873931
Mo 11.042718477108869 11.208125632930196 12.826347728628615
Mo 14.485353756072758 14.208554897453372 11.433852805783284
Mo 13.878218902911161 9.165918258666064 10.021609778205384
Mo 13.04949022941519 13.786343025288911 9.215251371256807
Mo 12.22674324003831 14.948356926936336 14.37893253151783
Mo 13.625314845441503 13.604709917042912 18.572628834201904
Mo 13.188744271275205 11.017399306847407 8.812685438491728
