31
Energy = -281.44096028 eV
Mo 8.527923995620842 7.561116420183222 12.36043166729923
Mo 11.188486450393356 7.156286107080545 11.850209319418973
Mo 13.64029743093768 7.3016943067786055 12.021604657725344
Mo 12.343056576336439 9.255427869682695 13.205190078093064
Mo 9.5052545288897 8.317357549980818 13.802138490748938
Mo 8.11713004084879 8.18513866604444 9.56141819163087
Mo 11.055545946857933 10.367442525636273 15.278643023378164
Mo 10.018374253862847 7.861835580383859 9.175958365729942
Mo 12.892506165544852 8.458046846466807 10.364777082410887
Mo 8.05056418941543 10.267852019593162 11.930827758147585
Mo 14.149567415965953 10.044260266414994 11.93515562917148
Mo 9.377865065613406 9.511666806089265 6.900457720057874
Mo 10.279104187626771 11.206604482059138 13.773104667523322
Mo 10.277515011381853 9.440933134244984 11.276698068458556
Mo 13.16823755642817 11.977465676361689 13.75044677960515
Mo 9.322574058295958 12.404612403823291 11.544541270383744
Mo 11.782786591897146 10.262855960192638 8.672486934853724
Mo 11.376192691814573 13.804374405123768 12.400115761284729
Mo 14.044384672521952 11.296854747797372 9.503226722599969
Mo 14.233158404602657 12.755120963093782 12.35477982387645
Mo 11.980638301002898 11.39159292310768 11.246995894365881
Mo 9.058033903021112 10.692353746708896 9.256272504749429
Mo 6.729240217999416 10.22747306159685 7.801068487375885
Mo 6.880054333541584 11.670271923043556 10.071552790077485
Mo 10.408406384900486 11.198542031273595 6.70303086416839
Mo 8.19295963002676 13.418877083899208 9.630656162249908
Mo 10.529510111479592 14.819752498026132 10.753503894330215
Mo 13.138202652164505 12.320148288892856 7.897922054157681
Mo 12.754347904877683 13.680966273423794 10.100630834371714
Mo 10.71876314010066 12.671647941389494 9.080405454803406
Mo 7.67832987926785 11.856894166881828 7.2578996778720155
