37
Energy = -336.825016 eV
Mo 12.54753032098802 12.645536852463103 16.832460805397513
Mo 14.122852835546436 13.073925856096198 15.729120476266683
Mo 10.877994067698557 14.248455299719994 12.585880519674033
Mo 12.877895313114516 10.507390708258638 15.632218608256705
Mo 9.194133421521963 12.295910394346334 14.262625070375124
Mo 10.093557318509362 11.092351552158323 16.21265758574182
Mo 8.22787239292818 13.901677717709903 12.375935150657075
Mo 12.768248085954843 15.289669130549969 11.565268175879273
Mo 13.686321611281688 13.540718904061366 12.876820403749315
Mo 11.875225839731193 12.439260382843468 14.172125966851784
Mo 9.871060423197838 15.729189759861887 10.83151350069685
Mo 14.537928525722062 11.148959098107719 13.991929277836709
Mo 8.240935554716021 10.598827932524575 12.967233806154637
Mo 13.21932871622763 8.811341859523381 13.823784521220233
Mo 12.444637278818941 13.148769895753706 10.324791650745336
Mo 8.889025689116636 9.733760149293557 15.324648836233257
Mo 7.865397374189075 14.988789562401173 10.388650440812489
Mo 10.220388574724737 11.964475520744278 11.544285664772296
Mo 11.658981482445517 14.777452366764532 8.837813122093275
Mo 10.935562296047983 9.906529834091032 13.69582022462
Mo 9.80283773515986 13.506510695575072 9.304193037345401
Mo 7.95198368194907 12.136694107516076 10.758609482049392
Mo 12.80205817867503 10.991176537827293 11.98258042029871
Mo 15.47691743004774 11.849206428119334 11.564749662518693
Mo 15.086324311513632 9.826937252746145 11.540462777318112
Mo 9.94058962807061 9.29854434757727 11.349062349121256
Mo 12.368695775357272 8.453626759112177 11.609925368081928
Mo 14.159761033360228 11.228618227272403 9.28115366561977
Mo 11.832040781600227 12.162686646160834 7.856544751426275
Mo 9.268866569871017 10.9140663299918 8.745762760249676
Mo 11.600183884974097 10.23366187143262 9.606019876725881
Mo 13.704362031570168 8.783907919061225 9.193220877945889
Mo 11.088761812485334 7.348932151624506 9.542405430325044
Mo 9.564870140268035 8.32067718740701 8.743657297767665
Mo 13.530994068608342 10.538029131214905 7.036744285635037
Mo 10.596724519607353 10.31335540377945 6.924156785906136
Mo 12.275697806569065 8.48133894639283 7.399611055300926
