37
Energy = -340.54609738 eV
Mo 9.949964354238547 10.042560445468586 15.118636620263885
Mo 8.791148780924896 9.32915326686108 12.735903989173183
Mo 7.522398791210642 8.163356692584923 10.22097058953403
Mo 8.848954573335538 6.685945476462393 9.278403961058729
Mo 10.168140093468578 7.444498220910664 11.156364022443213
Mo 11.333612690084227 8.464681633683309 13.177123287196649
Mo 12.004056489953975 6.6559246132778185 9.770365818106384
Mo 11.900850249895601 9.982327925701222 15.143270812076294
Mo 8.589835085408195 11.812522703681056 13.391713150895741
Mo 7.09978761703417 10.84563031014838 11.152225314795588
Mo 10.801672143265847 12.82988006394212 14.714554758257252
Mo 5.864057989682055 10.260264990174127 8.643887673730097
Mo 13.045321897230801 7.1805160203447915 11.663083719236353
Mo 10.914689983789705 10.967133813718869 12.514679117334603
Mo 9.468076672610435 9.968806470812497 10.366499235236072
Mo 8.338881209716572 9.003977157652665 8.063135686898148
Mo 7.19688883425175 13.017261828038786 11.942380693515842
Mo 6.0036210394092855 12.121441203060767 9.19046566820758
Mo 8.36031595004668 14.156343744519393 9.21854513044326
Mo 13.36662746718484 12.06640117164089 13.737936721604834
Mo 12.348102640846234 9.38999409218524 10.644548694432588
Mo 10.88090126652789 8.711245712656003 8.562124989773306
Mo 8.365485659983204 11.487395058766152 8.449425523814666
Mo 9.38837904618182 12.699876121100804 10.813106008616888
Mo 13.66711910703703 10.35548332472636 12.829220267007495
Mo 14.42163241661198 8.122893116893625 9.18188428689369
Mo 10.860095008398838 13.733712372859875 13.04039637420437
Mo 11.310089056671794 11.487053740500073 9.170198847793207
Mo 10.2691716155902 10.68626032994571 6.729413396869044
Mo 15.195739840117593 8.730051243387729 10.844854778561999
Mo 12.694579922410947 12.47597846291723 11.205119472324704
Mo 12.898238416601593 10.086984621986417 7.710728338589896
Mo 10.058788046189866 13.519605242010588 8.003626243568064
Mo 14.140226702514942 10.948954689212792 9.768806779303583
Mo 11.682338963095528 14.298348085308271 9.771617698476975
Mo 11.967166112917463 11.936144160259326 6.420995299832006
Mo 13.123039849104412 13.209687971157974 8.501674129896278
