34
Energy = -310.53962945 eV
Mo 9.95559785954823 11.132586859090843 12.926344259776767
Mo 11.916883002815023 11.610554319395941 7.933617094845727
Mo 10.360414509171596 13.464188280592147 9.64439081194584
Mo 9.102434418269437 9.118837351170056 11.135472074549709
Mo 9.35214032032293 10.597204150931418 15.524062634821922
Mo 13.448351042253286 10.704610784530484 8.68051597844563
Mo 11.365384234069987 9.024693041700049 12.428241124541017
Mo 13.668856079302419 8.976501518872611 14.076666756834669
Mo 10.89568981731993 13.48542585994187 12.113451945202781
Mo 15.231191957768697 9.872655781576432 12.91909687866304
Mo 13.375801978019155 14.227478169615905 12.493007629829942
Mo 14.5758822002995 11.888631291584378 11.025138658431397
Mo 13.461600510105301 9.415424976393137 11.20685642847384
Mo 13.850562183390457 11.157381173414489 15.235317535023743
Mo 13.277360360860893 15.955718560377834 14.568305183447553
Mo 15.719934559461665 14.014042288748316 11.092207280037389
Mo 12.823134914621217 11.478182260703006 13.030383965263644
Mo 11.155162402279307 8.75989971509181 9.695002420241499
Mo 13.62150766947756 13.762624967930288 15.227721539054658
Mo 11.610055837902248 11.227673187751332 10.641266368132522
Mo 11.18397435311185 15.077481947148351 14.111239462146745
Mo 11.14451020655796 9.925106311428449 15.2276986406127
Mo 13.003103858042687 13.412817161997426 9.896280821032633
Mo 15.880544579701004 15.155569681095386 13.766013437238733
Mo 12.392892068485517 16.93881709271192 12.159407769490217
Mo 7.720755897926658 9.790573811193866 13.231666085119102
Mo 8.95533070045341 11.948271386914284 10.69479517875403
Mo 15.297431835275033 16.52035168829173 12.591751086647612
Mo 14.209866513548922 15.53703060084378 10.313277208746657
Mo 11.368505506372701 12.611284919755887 14.776756263608664
Mo 15.2615193234607 12.531170865520878 13.597301248361426
Mo 9.051013843261975 8.37838759875447 13.754682819259228
Mo 11.47647250457731 15.882754905775382 10.926228710350061
Mo 9.718556545450008 10.318562479291247 8.950729077878114
