35
Energy = -320.55143136 eV
Mo 13.293179898473843 9.368251189203905 9.542223220445916
Mo 13.552272458946343 10.833361170949695 7.7725024206049715
Mo 12.292088975890865 12.990731511766013 7.275269894261248
Mo 12.577886424166564 7.831937840668334 7.58477419643461
Mo 13.650383803486498 10.517262136674479 11.747729585188345
Mo 11.102285007472537 10.232304376478451 7.504979309202897
Mo 14.198101263611884 12.398240883849489 9.90670566699112
Mo 11.115977493768153 14.1608312792887 8.311818469964479
Mo 13.067649411304455 14.100325515125533 10.25758117501826
Mo 12.378572042249095 6.701264415203457 9.11659600314329
Mo 9.754742683806741 7.282335099675126 8.059900489631525
Mo 9.593511283499163 12.110398436852952 7.8933822995837515
Mo 10.631812360427014 9.054419972548073 9.920902238609065
Mo 11.65936704289135 11.680358473717465 9.695055980544845
Mo 12.279996181460302 8.106810842915747 11.752260945696179
Mo 8.60970548407358 9.839081889992771 8.422824175448426
Mo 8.276424921437082 7.432842839543981 9.363820584389725
Mo 12.919501318867784 9.443613835716567 14.160583690744403
Mo 10.37905414101242 6.802559225690944 11.028218678082386
Mo 12.520756115048671 12.669631106170488 12.302184024527543
Mo 10.85778892181974 10.472454105548746 12.29937282037557
Mo 10.405692081970317 13.687746053481966 11.09374843365813
Mo 9.017345709231757 11.528780584053406 10.501479032608406
Mo 6.7003819312991 11.827765345566695 9.200087242089682
Mo 10.270099079992523 7.986573359903732 13.299290216852317
Mo 8.466340586520321 14.176644726957413 9.523033974532455
Mo 6.516244845710324 10.007156915077047 9.948831163158705
Mo 8.643120463164943 9.046426137331672 11.707630682223828
Mo 13.99101669929738 11.275661334753778 14.11652980897719
Mo 11.429713816863691 11.77108516595521 14.532618044823295
Mo 10.471027228559924 9.652917763719412 15.099017774749845
Mo 9.384548600968655 12.625174248321384 13.054471951202126
Mo 7.522715479918526 13.87667746989608 11.268942026556045
Mo 8.569657471892958 10.374759378516138 13.885654921312772
Mo 7.144863031670913 11.460323362423196 12.154593583225658
