35
Energy = -317.97011296 eV
Mo 15.58897972116842 6.86331133422232 15.522029389548917
Mo 12.894001996933747 15.225933505502999 9.13992737307293
Mo 14.850220671364513 16.6338937067491 12.78776124168141
Mo 12.53428879576994 15.051071784478989 11.96125159209503
Mo 13.235151197742002 10.372403243737434 11.01297003082634
Mo 10.29231155939721 15.958950328875375 10.636973487526069
Mo 17.111234729117992 7.586883461347837 14.856778256579904
Mo 14.552924897178087 15.558412580658734 10.162114576967484
Mo 13.768789113221159 12.661636066161835 10.299549523577829
Mo 15.390840054484643 9.671911196657211 15.05824520487514
Mo 15.215054014577452 12.274714852201598 16.632611825908793
Mo 12.513815276439912 17.22984358610684 11.005947894484223
Mo 14.910338987442826 11.052587879958557 12.558967018382667
Mo 15.040557148979024 13.745786985133629 12.312672763255195
Mo 11.322465318391368 14.584055267002894 14.389980543781347
Mo 13.006696405018594 8.355813959872913 15.351741627076803
Mo 16.26622748607635 12.586407257411123 14.752262592877656
Mo 14.02865468384668 14.556848570005563 14.511477134832152
Mo 10.079561142708632 11.5294318324764 12.36015788374942
Mo 16.75294988774458 15.23762844994058 13.68474826547958
Mo 12.326187653201309 10.066978925355025 13.329794599259827
Mo 9.81504795177609 13.721580986963323 12.49077797574376
Mo 14.855348531369735 8.64991022679511 13.221892594275333
Mo 16.353176921166583 14.880789720631135 15.841185325783897
Mo 12.63765622148988 16.313946023129002 15.916067019805022
Mo 14.912999475454292 16.940460189282494 15.142390670558447
Mo 10.817236703979361 12.005136886834237 14.548162876369314
Mo 12.473604112897432 9.937843486058961 16.195370232845786
Mo 12.533742847916399 13.385661527014998 16.591576410810152
Mo 13.671865332914395 11.84267253212161 14.76160753383296
Mo 12.498131135683971 12.577373832929457 12.53930073504218
Mo 13.973473514136819 14.6570980945804 17.374577546372446
Mo 10.176382615961307 16.52988612047374 12.579799365910118
Mo 11.417843099738374 13.244834637229536 10.313404085169434
Mo 12.544732244615533 17.138149357670702 13.626176997124826
