35
Energy = -318.78579065 eV
Mo 11.953601456401644 12.505543304757206 15.902081689319509
Mo 13.45793312416219 11.166613950176528 14.035383717483697
Mo 11.289587275546177 9.64271832900026 14.699605733670893
Mo 12.941851557784174 13.817433919739194 15.037491106339864
Mo 9.421979537172206 11.426697506177035 14.877959212276755
Mo 14.967727850416846 9.425453276580624 12.898468449736558
Mo 12.774732189032699 8.576101993444794 12.879641651765336
Mo 8.628459123477358 10.028172870019608 13.646846913393672
Mo 10.20886541887852 8.212792433034661 12.52054727851495
Mo 10.801597798004419 13.543737076013784 13.378908367797338
Mo 13.278536990642024 12.766704233298922 12.33324608762241
Mo 11.126193969908968 10.953870313293661 12.721940625056344
Mo 12.437377498947079 15.341674927757284 12.237322055550106
Mo 13.718810170545776 8.039410130818412 10.67031831487102
Mo 11.65371706597372 6.788538031610668 11.005981536598632
Mo 8.44448939396929 12.53618316256877 12.438155314530754
Mo 13.788666993450436 10.591233903219369 11.185820232806627
Mo 11.45442496392266 16.431724599035622 10.77286468805089
Mo 12.845048888666298 14.041399568994121 9.862216188587281
Mo 12.81023641450542 11.625309088402823 9.029992219575336
Mo 10.887842876729671 12.60317354544307 10.75134920081341
Mo 9.672363586227107 14.96139328628306 11.621125379367832
Mo 11.36801611796497 9.47939892955174 10.32416881174759
Mo 11.701019698388873 7.191064341828541 8.62388577880182
Mo 7.8078914387863385 7.993034831621735 11.632972655900089
Mo 8.10508056628923 12.898551179819025 10.44992847787854
Mo 8.942933681137509 10.358655972276146 10.828769674943736
Mo 8.943726036491972 7.592389994843106 10.123449157693592
Mo 11.8575594292819 15.492109439551532 8.328723754400507
Mo 12.973060976524335 9.09538740367072 8.385687202891566
Mo 10.110245596716917 14.341251634836873 9.142970272966226
Mo 11.658197503817696 12.715043467978534 7.216305418437041
Mo 9.914346917033992 11.443603524768688 8.643567952736493
Mo 10.177575747675794 9.13479534592755 8.124204008488089
Mo 11.729775898320783 10.698504977134945 6.579783474968786
