30
Energy = -271.5276289 eV
Mo 9.855392899297048 8.909946947492514 5.840690600131377
Mo 10.946511653889985 7.368878267290652 5.809359578638476
Mo 9.730727254908368 5.099675415239039 6.903292430996265
Mo 10.37714725960042 11.83819904005895 6.209016739910335
Mo 8.25518316612599 6.348610782313619 6.775850898992733
Mo 8.521153677590727 11.473558835659272 6.48993033582958
Mo 7.845770821757441 9.070967278634988 7.791590629752048
Mo 9.821803460577215 12.863104379835002 8.765279395483239
Mo 10.185524367884172 10.396403238037987 8.465440784501169
Mo 12.45279861560553 9.541066088751275 7.244805062287484
Mo 9.204300564043555 5.593441343984875 9.435757468288736
Mo 5.241480513001604 8.70497871181459 8.812095221441144
Mo 12.783023167256914 10.879321867383688 8.64313288131748
Mo 10.194217743849018 7.539836773053076 8.345961775813759
Mo 5.883819040531731 10.571570794552098 7.969254319936396
Mo 7.405102511447187 7.163621054038557 9.372448369832327
Mo 11.92603354907099 8.891911162099701 10.00047510515679
Mo 7.810223831213807 11.497465972710518 9.48559648544932
Mo 9.081102640894178 8.957365672522249 10.407594190322545
Mo 10.683611037652177 6.590718089453557 11.19559280834288
Mo 10.68397124591356 11.339238674329005 10.963611246321456
Mo 10.589060029004962 13.782259157738364 10.787541747592835
Mo 12.674334265386133 10.258956859384101 11.788356320977451
Mo 6.470980460207763 9.567915973837025 10.538972517990645
Mo 8.533299563212516 13.125240566342475 11.322571988979616
Mo 10.776294163809057 8.905443290320196 12.494315130043852
Mo 8.752645907074566 7.092842074732295 11.9878721925715
Mo 8.497966775542238 10.678960650006795 12.15207504512669
Mo 10.332403430763815 10.957084784396509 14.056723242691879
Mo 9.07591030591771 9.58321017701794 14.536589408310721
