32
Energy = -289.83939904 eV
Mo 13.70254323612141 12.02835982284727 14.69997147766632
Mo 12.397010052196835 7.293959474625353 13.423997455297124
Mo 13.78854949901311 9.746191273219912 13.089133437021273
Mo 11.600532099865328 9.923081822866099 14.1388568984905
Mo 11.956290262979241 12.460144006342865 15.156519042824199
Mo 14.351112178475423 11.591913172505075 11.648706913049558
Mo 11.541455381911462 7.812986071284001 10.796374561114765
Mo 13.055031998679624 8.184419857077598 8.522853930722263
Mo 13.78721845492235 9.264394525268745 10.267483169956558
Mo 12.58199737450478 13.003962811472707 12.347433622368783
Mo 13.202138957831432 10.480158482108948 7.514350168928104
Mo 13.863841241583513 7.279949476295414 12.136394188858002
Mo 10.12484315007924 8.515209871440947 12.617038754959019
Mo 10.138913263314892 12.200650892850936 13.154392821485073
Mo 13.091082641215541 14.376608555238565 10.492723177425159
Mo 11.7209981900935 10.494340902701465 11.579448132487645
Mo 9.10646137021603 14.101181974403243 6.95562781118655
Mo 9.014149497543718 10.314270227261241 14.262783928940113
Mo 12.796837890400464 12.063913490954171 9.476353447348316
Mo 10.338613820616448 14.366437051923137 11.456524991112154
Mo 8.874364738643527 8.444831102023437 9.789252227755547
Mo 11.105377929483339 10.362623613094774 6.474129076505999
Mo 11.080410709892236 14.445741997485744 9.242310865464749
Mo 8.674466401286331 10.401805545514886 11.609772752004146
Mo 6.84497001621036 11.140645002094425 13.196333406476992
Mo 8.656507993069535 10.135940300827915 8.73670377980952
Mo 7.780047395817126 12.812526633763207 14.109064303346766
Mo 10.909454550305865 12.21125165213282 7.592722337963331
Mo 11.107694042523695 9.719858255213364 9.028458331112148
Mo 10.137901336821225 12.075342642122875 10.196461472538035
Mo 8.173508717425612 13.08172097558997 11.675864724017012
Mo 8.507108405298242 13.677011315789533 8.623391590106296
