30
Energy = -271.73633233 eV
Mo 10.269951500570285 11.82594633452801 7.6678208177578195
Mo 11.011175651555162 9.641681743892644 9.22751913135236
Mo 9.798036746852155 13.48747699787501 8.257892108232511
Mo 14.341291848468519 13.23298615244542 9.502777822486005
Mo 12.590053256502024 15.317700177195302 9.544498874795908
Mo 13.73375313817629 10.08323120032198 9.42890838695205
Mo 12.156087154386304 7.59719115860712 10.030357899961848
Mo 12.112037193844404 12.397358897201741 9.623961287945892
Mo 9.670440691258563 11.453063504250808 10.63477740816832
Mo 11.630845778475159 16.50118638063179 11.730012133073657
Mo 9.69044621344254 8.457043025159203 10.949489588041198
Mo 14.597149331791424 8.992380218390238 10.826196360813837
Mo 11.93174811271793 9.98067577329708 11.62781931725041
Mo 7.986233610202866 13.607648617119466 10.68343471822808
Mo 10.712642694910052 14.30358288459072 10.698187410794544
Mo 10.818839595324544 6.46742822895493 11.44046549832269
Mo 13.592295040356936 14.441750148890694 11.426803853956653
Mo 11.970047480967196 15.149216750588346 13.275016259484067
Mo 12.906167623880552 7.6071018362573035 12.62172043587945
Mo 7.527130376817749 12.59798882404875 12.182088359824494
Mo 9.2967200706379 10.702557043430442 12.799646286461762
Mo 9.381615459508087 14.514882341338916 13.137943882908404
Mo 14.096653766056074 11.68231692940248 11.564514696471289
Mo 11.507590002007342 12.583079915885298 12.469158914004641
Mo 11.723363593437238 10.64325702743003 14.290188021668504
Mo 10.689975615805327 8.367151282521712 13.388795600436513
Mo 13.915651776374286 9.941110778101574 13.472897443085921
Mo 9.625542972782878 12.920047438588389 14.29414220703848
Mo 13.56691376577011 12.609701673470793 13.769667904135792
Mo 12.64533263607563 8.388989414539846 14.929030069423916
