32
Energy = -290.17528838 eV
Mo 7.942444526286319 13.099516470589792 11.66316284019496
Mo 10.049388634032987 10.298271803180752 14.8498185484093
Mo 13.317043393325665 8.112236139317309 13.892136584421364
Mo 8.79468712529955 8.177291941417254 12.83379749382508
Mo 12.133619140195117 14.067960280654523 9.392617544513529
Mo 13.254261243518542 10.066598815589405 14.290480135703898
Mo 12.691637483336859 7.747853006465053 9.11127539324105
Mo 11.302891547069859 9.708830925147543 10.301932844134809
Mo 8.126058921996473 9.187601684418455 7.578693350382849
Mo 12.837739208935526 10.122596120078942 8.403685595161527
Mo 10.516486642847305 7.054592357370871 10.895771379058715
Mo 10.21611631740828 10.648203741464583 7.935353321498019
Mo 9.264935156499224 12.952252188830315 13.248398709454152
Mo 11.574751993961536 11.316198884015211 12.65515662313299
Mo 10.225034870298948 12.14489357227939 10.236828255197564
Mo 12.064974317416036 12.725454900134476 7.8982792505356505
Mo 8.718663108354686 9.093908348177338 10.018019355696632
Mo 7.874986203498479 11.455224913797974 9.288370860708705
Mo 14.427916564081299 12.47959007459686 12.600925290391984
Mo 13.539930308496698 9.63814312619396 11.63987733111047
Mo 11.684010745795357 13.72325316679926 12.0951762316972
Mo 10.865291887922927 7.947863320548019 8.246742851672279
Mo 14.381526453268046 13.993363463711582 11.583281377378611
Mo 10.555716050669764 8.618734462425003 15.375600038772674
Mo 9.849145044043206 14.535823044389659 10.92606765720955
Mo 9.017318063759658 10.59357306794807 12.112664420560119
Mo 9.351033969698179 13.458126106651601 8.043566682995278
Mo 9.864280808891728 12.605941277572358 6.236782492092945
Mo 8.323876919658323 6.833379149616511 10.89423517439062
Mo 13.102342232808207 11.776279092468718 10.374854936280014
Mo 11.151235585981215 8.711994492145239 12.765614790429229
Mo 7.637240578801466 11.262611980627439 7.000890446069523
