36
Energy = -328.10957743 eV
Mo 9.670518155515142 10.163377710167303 8.40960119681933
Mo 14.681669369679184 10.758803677765785 9.684183109279784
Mo 10.075831060801653 16.377089886720498 13.886933045245632
Mo 16.443751440527215 12.598333247532443 10.666255660660447
Mo 6.74273591395826 11.116163917787071 10.880066693907388
Mo 10.455000776873263 12.650776219266056 14.8247082074606
Mo 14.017361634588578 7.97842403786141 9.111258955420253
Mo 13.81250684571707 13.944709838001675 10.825816963250155
Mo 9.357046401653037 10.494412024684253 13.705695210971179
Mo 14.67642599554183 11.488036755730345 12.56158577489717
Mo 15.679262687590828 9.752460079647953 11.754693052649579
Mo 8.939534797398034 14.603036914410234 11.780508527447816
Mo 10.296279408886578 12.763310811133895 12.29239429746055
Mo 8.154441494421924 9.541894921849083 11.677116914016713
Mo 12.49117849402458 15.396994996242812 9.534177651348386
Mo 11.421229581792316 7.8325622921028915 10.486715656950466
Mo 11.484487414873247 15.239920292362436 12.033596744796144
Mo 12.141388125122514 10.053821984420294 8.80577214278008
Mo 13.059350507494814 12.515739863586479 8.631857124684123
Mo 11.195646588414892 10.21516972321324 15.862843684389963
Mo 10.333521823228697 8.46427190681765 15.262960902803524
Mo 10.989483181210153 8.23141477979874 12.919163327679188
Mo 11.313612810409742 15.15959891611762 14.89343482980177
Mo 12.449345887120263 7.5509547082604636 8.116877637975497
Mo 7.671564015511639 12.126466542556058 12.763790893340149
Mo 12.589806580427938 11.817146013387955 10.971550079881439
Mo 8.720506200118438 14.263178639151969 14.109700030465909
Mo 13.227817357024273 9.128279625417278 11.509349906353213
Mo 13.079675783151798 8.839929157632772 14.002832244836263
Mo 15.743364762519805 13.171402956035951 8.99569486233872
Mo 12.751923456891772 13.598783357466251 13.305889547504812
Mo 11.003959178023987 13.731879333409264 9.751828805388962
Mo 12.095318987965692 10.884700624456677 13.496012156081713
Mo 10.499268283166382 10.177443190794353 11.093116130183402
Mo 8.840706498057681 11.952910777673878 10.16192802972895
Mo 10.393760863538859 11.915882639778532 7.729372364442465
