39
Energy = -359.34318663 eV
Mo 14.063682255220755 9.271585098249052 10.81819033223055
Mo 13.780808510771406 11.819525420043759 8.952592396661391
Mo 13.548379210522816 7.539465059797897 11.826134791684787
Mo 12.736538644988205 11.318015941599988 11.654229002847735
Mo 12.655360823456913 9.338882526595338 8.399038361562244
Mo 12.62983099981344 7.142130423323036 9.456257873788337
Mo 12.180518987083948 9.755631676700736 13.212564395004906
Mo 12.760646175950363 12.025120257278527 7.303247432938928
Mo 11.985048048576404 13.914691924134566 10.834170161582824
Mo 11.823312044113358 14.18223009406286 8.995332428464764
Mo 11.150886789943256 11.423760316687389 9.399330792889106
Mo 10.503764534173076 6.201562993439131 10.572753717962101
Mo 11.34468877911815 8.929836678448709 10.916830287652301
Mo 10.878384643597554 6.978447715518088 12.666204031144197
Mo 11.41857912039081 7.508171725358284 6.703940244770786
Mo 10.02149903479826 11.226199857889297 11.762051397048895
Mo 10.591567976993227 10.19331428450178 6.973924889308654
Mo 9.711619268293733 12.942671432580592 7.363953137291963
Mo 10.937414164245432 5.943677983885737 7.8450182426310064
Mo 11.23370655401219 12.77234331966217 13.570447845167262
Mo 8.36033510085023 9.288864049616489 10.97169247618378
Mo 9.351361637363611 13.379670444573659 10.06600298065617
Mo 9.857339135671783 8.32681859287036 8.819752586696934
Mo 8.566652062027085 11.262801861408374 6.051768986210696
Mo 8.455528559670016 8.574978754161732 6.411860741211291
Mo 9.734987746689697 9.129226632203112 13.257023032591366
Mo 8.038940347419047 6.600276891781968 10.122481823930471
Mo 8.619188589552039 10.810430070544788 8.789148296865292
Mo 8.390908408572717 6.728153626315366 7.189142930415532
Mo 8.219864967997403 6.895213109006556 12.193244262800263
Mo 9.774466829294914 13.739031049167474 12.87777961333083
Mo 8.186774923357644 11.41071896534285 13.932607164003091
Mo 7.621884205958674 12.106407996434994 11.440497725625509
Mo 6.888084701992327 8.50866208710766 8.571185536460128
Mo 7.673650802435388 13.200183322140612 8.390650638259967
Mo 7.0008931153594895 10.059309589135944 13.200942119241972
Mo 6.580495494504375 10.687134468444096 7.4999014732838
Mo 5.98707176112856 8.49415611985589 10.960516317566903
Mo 6.06014997097962 10.659830861816289 10.1889921028548
