31
Energy = -282.10134347 eV
Mo 6.783321560247979 9.995732346024942 12.344732304421479
Mo 8.045831918850897 10.37633804665341 13.903661123627147
Mo 8.053397449681205 8.8162698676997 10.244241255613025
Mo 7.525015182969925 10.256711902440681 8.051614771651819
Mo 8.997751155807727 8.226251023357122 12.558607158726586
Mo 8.049836938695991 13.212050740345266 8.060928894890674
Mo 9.105577311473036 7.6700925669560025 7.978586100593237
Mo 8.392414614447727 12.484276867270612 12.38314270741843
Mo 7.512463033142714 11.526582437082176 10.133933910730683
Mo 9.64567649787541 10.652090860588537 11.567030859734544
Mo 8.617358771574969 12.012254375760364 6.522382943264003
Mo 10.387525820157984 12.099667801333538 14.107209754697806
Mo 10.478583848245675 9.006019290208947 14.833737011643699
Mo 9.421977980884396 6.777735416973411 10.73134109291992
Mo 10.972720363125045 8.57041262977311 10.513080405976757
Mo 9.860469398721763 10.575543137698029 8.63170973115746
Mo 9.755925307867239 13.142527641434416 10.20970887469412
Mo 9.048359289463457 8.885060752646638 6.382789380187668
Mo 11.305966435268038 7.7413409062867675 13.676056325641966
Mo 11.295865497399156 12.878872312508525 12.496886232046691
Mo 11.945712519568785 10.242628967903684 12.802679759208148
Mo 11.166606101525776 10.847641243637366 5.872936389004788
Mo 12.0610740944384 11.26387283175786 10.162703300646738
Mo 10.906106614173936 12.832982098837272 7.9016201606479015
Mo 12.295770885194917 7.03426923687364 9.113354480593504
Mo 13.466491784436757 8.364140704920297 11.61607719112734
Mo 12.086107734738393 13.655511659904052 9.769336406622234
Mo 11.424850856032121 8.797104950752024 7.726043133192205
Mo 13.937899364959225 10.702758132455303 11.666847951734994
Mo 13.616695795223313 8.906735759097485 9.431885056495243
Mo 12.61871506010993 11.136110904316384 7.261746037306573
