35
Energy = -311.22895674 eV
Mo 8.208360472422722 13.183663944563854 15.35046985504655
Mo 19.07166369200322 10.623021962037589 15.926225872594195
Mo 8.540481739475382 10.593273576073793 14.501574761939043
Mo 10.805320926485882 9.914329512571657 14.747716655683453
Mo 16.26745412837609 13.751266664008762 10.571692999011608
Mo 12.4443247207073 13.609116971976588 16.152665345977123
Mo 14.789913592546204 10.664843101888783 14.228968737478134
Mo 13.114965222013911 13.269172230988033 13.353139850854792
Mo 13.343687711416768 16.358833290097163 12.387579665734405
Mo 15.102439932749858 12.863142564201276 15.23499927284572
Mo 7.7243807568548855 12.27678820384128 12.742501310424734
Mo 12.955759801341214 11.222370988349434 15.480967206876395
Mo 15.44135740547929 14.490173447527667 12.991598119912837
Mo 9.771373746759204 14.562592901894043 15.992483014404792
Mo 10.544091208068108 12.661937718175324 13.864835411072566
Mo 9.828936689669288 10.756379902911556 12.327466303549942
Mo 11.979979022935316 16.046998308683133 16.35289388588857
Mo 18.7037984050569 13.059580533526407 12.256224463462186
Mo 13.702150090717314 14.408453044996925 10.57845919672526
Mo 16.520063081816197 12.113444579266345 12.692237748731568
Mo 15.706917001194716 16.964260549555664 13.713915673292655
Mo 9.421679761244615 13.134857064365912 11.327788121147119
Mo 9.041871364109037 14.63968674860926 13.242656909941477
Mo 17.78255859202484 11.565210384746607 14.96096756998064
Mo 11.971408510461847 12.277067815316704 11.018564028914675
Mo 11.38833483148589 15.606838958448796 13.995751974773517
Mo 14.285932694542645 11.873002040003112 11.392135446540781
Mo 17.69166807090698 16.840492943161735 12.51554127027773
Mo 17.804716684236162 14.5423681988019 13.827245810573375
Mo 14.018496142754097 15.631548457184849 15.237946249076241
Mo 12.524854968211413 10.6289734802851 12.790268326035447
Mo 11.424266204863606 14.926477931736908 11.477568661602762
Mo 18.29441395914584 15.033991315785023 11.058498321339535
Mo 15.733230223301504 16.26569226968118 11.065792862632406
Mo 10.377364483240457 11.880761018234768 16.22279974237834
