36
Energy = -328.27541824 eV
Mo 12.088137530058283 13.032604937419826 9.77198318103607
Mo 9.492884973780948 10.085254270021105 10.702133176018622
Mo 7.431166531588569 11.275967338633158 9.40233780893631
Mo 13.267037790091075 15.015816362567332 11.309878268092271
Mo 11.35451344541328 9.043255773568589 13.512757916962261
Mo 11.009441965481516 13.564097093072732 12.380139279149859
Mo 12.892198674178431 14.35174190379984 13.908499124747028
Mo 10.873347772532647 10.646604657180847 8.824164409595948
Mo 9.317973035508507 11.444935316668051 13.193114981105179
Mo 14.295737106802664 15.811048536240161 15.997595106170163
Mo 15.949014608863473 12.23961872772385 10.078009626156275
Mo 6.997519356440211 11.662727946531355 11.164772088245476
Mo 16.328424381077927 10.824278610606385 12.509668415256286
Mo 13.235881346754931 12.918860398831743 15.967569679031621
Mo 12.066495596244279 16.894664818548094 13.106238520082934
Mo 8.629586853754471 13.473384030575632 13.141673700127608
Mo 9.397091961681552 12.631828308822154 10.598045461539028
Mo 12.13213247958329 9.10445647621087 9.835914743962963
Mo 10.544323861796459 16.00120610056028 13.586435870756942
Mo 15.052979425056463 15.953942782496302 13.030502810997469
Mo 13.964384143683667 12.48317469221201 12.212981648026654
Mo 11.571029794060628 11.140274283263455 11.500679587109957
Mo 15.915281202172585 8.945747860323795 13.372569949508266
Mo 15.282042316402883 13.672034796338178 14.454612791430646
Mo 15.852416655002974 14.453806156336489 11.907524245523126
Mo 12.944234393497366 9.037296686757458 14.606598604131726
Mo 13.745333848645744 9.69976565373404 12.176166529454475
Mo 13.720494549530455 10.929080971488187 9.67824025413606
Mo 12.10805504678267 11.529957944382403 14.185325833475044
Mo 11.527124831967958 14.854082459255336 16.195567137932134
Mo 15.413405408477582 9.307284030733406 10.645907128825359
Mo 10.483745748913671 13.313186908214185 15.288217520026011
Mo 14.657119249154485 14.699553303367217 17.398741774899225
Mo 14.695540611193724 13.599840554447155 9.395227059904268
Mo 10.961677472418476 15.047375244744662 10.461329295720864
Mo 14.767711904913517 11.276729937830899 14.464362345432514
