38
Energy = -349.85575107 eV
Mo 9.965383503946446 9.468229759769605 7.17156442116318
Mo 7.277124333548884 10.35528993743559 6.708010188254511
Mo 7.630012767018623 8.486478042913678 7.366496920021342
Mo 11.732277559733145 13.541614766967145 6.624466963489159
Mo 12.148385475714555 10.559143121190827 7.0974700600090905
Mo 9.595257331766161 11.795375713637217 6.583933771243707
Mo 13.27192276855353 11.946743431841153 8.576588870612722
Mo 5.836688019253409 9.293729866437882 9.387094253241644
Mo 12.685240767918872 8.038463350430018 7.859771816533368
Mo 9.648925405235065 7.310419186670387 9.116702747220558
Mo 8.472611415402643 10.342872783754808 9.22331472996602
Mo 10.206997271602441 14.45750131602135 7.235853769568026
Mo 7.938780771355599 12.670115533102763 8.323538447051918
Mo 10.6289248263007 12.298047402827702 8.944543272542957
Mo 14.062865861224031 9.180293502476209 8.78802265470488
Mo 12.18689343012332 14.407679544765939 9.592708644444542
Mo 11.448572502263836 9.839174179053435 9.621257017176728
Mo 5.716857757120027 11.193548379530112 9.254919367574484
Mo 8.011414531809049 7.306122931092667 10.119724288855188
Mo 12.2270019259832 7.705072570836121 10.502111299640454
Mo 9.17498907305928 14.041537563108175 9.88059193949847
Mo 12.594333092378372 11.771238189260266 10.937929835767081
Mo 9.79465462859807 11.663194749263397 11.399106700355683
Mo 13.757930005039551 9.402231883992066 11.517566286767138
Mo 11.4423457278013 14.072777018425775 11.381057855942586
Mo 7.512929215068176 12.320746614047158 11.11628269698468
Mo 9.577508220391211 8.926769205039909 11.400641400619014
Mo 11.483746599807667 12.204613293356697 13.66000940930333
Mo 7.166480052120591 10.119257750975661 11.5884110762692
Mo 13.331177925104587 7.343560740753118 13.21458715849542
Mo 11.624520307836093 9.52224330222063 12.682633643786696
Mo 13.225364473793594 11.53386836639594 13.79475263208137
Mo 10.570914529140941 6.870022779699577 12.27596267033655
Mo 8.967012816902054 10.478877663664942 13.629397052731301
Mo 13.47102980047304 8.667912593409454 14.561911481870519
Mo 8.699177349647199 8.22350650154775 13.834924547295168
Mo 10.811665739691648 7.546553990906116 14.711387412921846
Mo 10.889819723279501 9.792647943389738 15.122101213042534
