39
Energy = -358.38919864 eV
Mo 11.971461991490159 9.883140503400622 6.752333958004742
Mo 9.052643758298782 8.529240291654412 6.478522271212261
Mo 13.94365113392161 10.668971433925913 7.913454630741334
Mo 11.474130960378753 7.217281392563919 7.269727365457554
Mo 9.811984913336424 10.845886125478758 6.947071286068383
Mo 12.041160796990551 12.695083683193307 6.761067241873043
Mo 13.07427947981504 8.371951359378379 8.737467995061905
Mo 13.568853252973756 13.252981673180871 7.942594813490932
Mo 9.676101706563125 13.32527167864519 8.297101569409284
Mo 7.5752848041925835 9.241119327763617 8.00457464242358
Mo 7.29120610885465 11.8569390542833 7.150726784397242
Mo 8.834529686303776 6.877261312190632 8.741458497012863
Mo 10.276191486905368 9.098933113918024 8.849717596322892
Mo 7.070437200136437 12.996627015202169 9.815301162676464
Mo 11.121086230870068 6.459062917352174 9.37273230176531
Mo 11.796977460709359 11.419055988197682 9.241587126788598
Mo 8.605892058365656 11.132654664679269 9.502229978804762
Mo 6.446723817873562 7.409302571671582 10.214224094348697
Mo 6.328495734568785 10.07129446379892 10.613546778587887
Mo 5.761757030188475 11.408998532717687 8.346119892222838
Mo 13.901569202716017 12.293708652524023 10.634253046681751
Mo 8.808070567704016 5.820864975036715 10.952050306421883
Mo 8.711249666814512 8.476800085951606 11.132486508060808
Mo 11.535415668253624 14.100319328440154 9.290486610298487
Mo 9.371948467791258 13.453317528036512 10.87715361183127
Mo 10.373423587024499 10.78833458301762 11.570428730416658
Mo 11.831126845650132 8.723175753311157 10.994652485855584
Mo 14.18186181968131 10.114786244764462 10.388400509510344
Mo 6.798799474373164 6.587292182941745 12.159879265913748
Mo 7.639283131260599 11.75194307720183 12.099697468616041
Mo 6.597687156339912 9.107399775285565 12.581905773386564
Mo 12.783740701797534 10.905787215237785 12.839414457542091
Mo 10.768593478580382 6.666421385376741 12.127254742963409
Mo 11.156858457404322 9.069216165652817 13.637229784024534
Mo 11.638020241729127 13.089907288784465 11.604095705514222
Mo 9.40731303463531 12.715036911471106 13.331522191831708
Mo 13.65435669291028 8.961718831408875 12.7591371775844
Mo 8.970369953985251 10.157860301157033 13.549526094173004
Mo 9.132097355103795 7.4396877276945075 13.503500659194065
