35
Energy = -318.45371282 eV
Mo 10.16413720955044 10.795912388151482 6.586478382509073
Mo 11.590875636944608 9.552240836676019 6.315752436355675
Mo 12.285048742240553 11.83133143072163 8.086980902688437
Mo 12.905286320351166 13.49559251778264 9.32067217446509
Mo 10.172247171080489 13.421981086298853 8.114816220856527
Mo 11.779085333721598 7.539376329765452 8.129150788287795
Mo 10.407933720240425 14.888119457842423 9.44757663219814
Mo 13.812804367084595 9.372417726748669 8.157785136257349
Mo 8.869786736878668 11.195636155032773 9.06297077293991
Mo 13.519645575787433 10.803552449582384 10.2026211919595
Mo 11.207375979661988 9.640002655422997 9.250387101942573
Mo 9.166837555145 8.59718002025534 7.756586622519097
Mo 8.572976524126714 13.556464247496443 10.50845798927229
Mo 14.321293672506936 7.242349667445902 9.024398169685476
Mo 10.955448497975494 12.266212488100471 10.68932148120009
Mo 13.413129362575203 12.802251321907052 12.024406708567357
Mo 11.96864877938703 14.947000826533968 11.748096883932009
Mo 11.693721260448187 9.474611264702872 11.9304704929451
Mo 9.824006832297483 13.95330056444642 12.592153960357757
Mo 12.294930668616853 14.352936966264103 13.71927260885213
Mo 7.201088661631823 9.13300404482138 9.33354420110125
Mo 11.8072013315737 7.111313917919895 10.444714135386723
Mo 14.160923095792763 8.319576828046042 10.776184531964589
Mo 9.356592579479633 7.510183960417957 9.766569012636396
Mo 9.141649178900611 9.823534932074134 11.190101799661461
Mo 13.816503329844995 10.589176446409525 12.663274911985395
Mo 11.412154655523459 11.854811090954108 13.2843225205792
Mo 6.940559258334567 11.55239057942565 10.765634063196353
Mo 8.661987762450538 11.780537268960733 12.714469245299814
Mo 5.611619431599917 9.660731184966343 10.939693782344964
Mo 10.076752669601513 7.519565168493813 12.387180401295588
Mo 7.3587030927521715 7.858557087285534 11.811565637767139
Mo 9.879704451758412 9.853661897574169 13.926737191880711
Mo 7.026664771682252 9.708348078766265 13.127818564702121
Mo 8.55322703172497 7.9590182385457275 14.14590924088395
