36
Energy = -329.60213857 eV
Mo 7.463797570859054 11.628483040307382 9.219127942949815
Mo 7.768246893841891 9.052596657376277 10.16250471452781
Mo 7.339467051850801 13.972305798980248 8.452126605991188
Mo 8.889360843311943 7.1693039029176715 11.046077971959415
Mo 9.004064923171462 13.321428711172304 7.553819609259395
Mo 9.251333268473504 10.564163792358912 8.063102107442203
Mo 8.999838190994044 7.720014636094893 7.872182721828368
Mo 8.268357049960642 11.125953019560416 11.656481754031566
Mo 8.723738173123447 6.03837861235252 8.497060662785456
Mo 8.919447188996262 8.942641097375645 13.073478139638981
Mo 7.958678054783895 13.75080023549918 11.212574049977226
Mo 10.049066705116317 12.215487693203725 9.96938428302471
Mo 10.21545656836864 9.451880654777737 10.317894215198667
Mo 9.895427972199077 9.94845633926927 15.341518433651736
Mo 9.382520668777309 14.82737599527983 10.084635368820807
Mo 10.943861630853766 7.790701418792964 12.197696968435755
Mo 11.633487733016851 11.659945807673896 7.802729552832284
Mo 8.717638251708664 12.270710167605463 14.02716503078012
Mo 10.683625393646949 10.71603614897148 12.698345040204774
Mo 11.543031752151713 14.265137097413058 8.521681336962082
Mo 12.65983761767156 10.947655011908031 14.662675376770988
Mo 12.521443765267565 11.044449965162672 10.36326774227094
Mo 11.192292524855077 6.910535734286808 9.498489132837628
Mo 10.226604908052186 13.486412926690345 12.31471114796077
Mo 12.903293446151693 12.484641608429632 12.792028011149364
Mo 11.28439463533335 8.662117000806733 14.723653602238185
Mo 11.671947762405974 9.245753507739238 8.216271974676772
Mo 10.658096570412859 12.602608415993856 14.787238748246702
Mo 13.85701656366932 12.527594204478511 8.36498830369316
Mo 12.865856592438936 8.105692821082163 10.176852364594899
Mo 14.956980355126202 12.135291114557903 10.812749332768698
Mo 13.00281406749866 9.612707586314196 12.495654936797946
Mo 14.261911556330325 10.41307735504436 8.480071283680596
Mo 12.26111806629926 13.834519783934516 10.388849353479225
Mo 15.0309835665665 9.885729698497009 10.896620781509297
Mo 14.951524168522074 11.555281375585281 13.108234442877533
