30
Energy = -272.0921475 eV
Mo 10.021270565076398 11.51876878355339 6.664512951807162
Mo 11.699925786155173 9.853352346023728 6.817293224943065
Mo 9.1090018702365 10.831953436362465 9.035295083556392
Mo 6.545318462728953 10.51927626745169 9.986985801791384
Mo 11.601140558603213 12.196472000602387 8.058304115541723
Mo 9.85763511455464 8.849885325686108 7.766895502393993
Mo 14.22453585329316 9.720000159321819 8.487363796969879
Mo 7.719222327477771 12.909886944710674 8.383809970013635
Mo 8.097647970404875 8.676999192249703 10.127683279495075
Mo 11.74539684113426 9.8332404800278 9.51910419115854
Mo 9.251844781127767 6.478643576393962 8.95506777104465
Mo 13.41919254210166 11.796374241045962 10.446018085595066
Mo 11.080323048012808 6.928032864139749 9.254165982225134
Mo 13.99983214379956 8.109406615511784 9.394310760819227
Mo 9.45228930238119 13.70961669372255 8.854941634358582
Mo 10.875033216261194 12.1792047713741 10.69736135717796
Mo 8.15143463304564 12.3232709191918 11.1246349151788
Mo 11.90279787075435 8.319026864484774 11.53827373787894
Mo 13.888124277593977 9.896042745760681 11.467755823987655
Mo 12.2318533489162 14.438430181600712 10.691603469797087
Mo 9.48681240787922 6.978784113297302 11.79665814021069
Mo 9.83172738456066 9.77894436944408 11.665149189924515
Mo 9.845667573328598 14.360137331908073 11.967246963967458
Mo 7.235746669809784 10.440241719524195 12.160571598974677
Mo 11.925757497812688 10.933810951114918 12.762333620614664
Mo 12.6377436776749 13.627181397030704 12.422668382245908
Mo 8.220464319769553 7.884159400188603 12.974884733483623
Mo 9.713129149111104 12.704094655190051 13.112796196274735
Mo 10.930295153730249 8.544793541434984 13.978470029549683
Mo 9.698302470857437 10.059434929843684 14.287306507213415
