30
Energy = -269.98250449 eV
Mo 6.614981730636561 12.591545011698729 13.697346711612845
Mo 11.632200204592658 8.99894683655514 13.343093660080429
Mo 13.070990884275233 13.2055665222578 7.723044373990489
Mo 12.093661078197272 7.002857383684218 11.484099750941846
Mo 9.801263885890522 8.883609208689771 6.253017484989556
Mo 8.380785377186319 9.270050572511156 8.689839047327562
Mo 8.515133268801701 6.659023413548306 7.7435231604715975
Mo 12.752406190650836 8.889443151419743 10.01821888330819
Mo 8.950765853407397 11.956418246696497 14.46172431060339
Mo 12.091892306507138 10.782415753497757 6.571260928631325
Mo 8.330930221902042 6.752101871347034 9.602827208166723
Mo 12.544160981197562 8.484783656510938 7.231238668534009
Mo 13.754541658131965 8.464351653144822 12.417049392653297
Mo 10.70826201216758 10.643515908570226 11.240616394219366
Mo 7.033097963997558 11.378703502438563 8.573755449316689
Mo 10.13421744415197 8.22206110076021 11.227228901337691
Mo 8.000719367726512 10.04000260212562 11.10180302706042
Mo 9.104158612011265 12.527059579391066 12.10834152190896
Mo 6.592590665625506 10.55747948018779 13.542411284698305
Mo 13.20066483328843 10.759165968655982 11.720308774535727
Mo 11.898251902292339 12.476774032521048 10.03902550208465
Mo 9.292001247012674 10.727823188095895 6.375789128902414
Mo 10.846438671149404 10.229962175661804 8.60619777368269
Mo 11.05446377350525 12.977236334103587 7.529625845297632
Mo 8.933496134327969 12.051699686219308 9.309478787001627
Mo 6.855534588523921 12.067534969558533 11.180753568805134
Mo 9.088630876815927 9.889669466436532 13.553149799990104
Mo 10.90491317646177 7.5924076949352335 8.590760546130504
Mo 13.42485795935684 11.007522961224351 8.777824034768956
Mo 11.355856043262863 11.458873994519276 13.537970094766166
