32
Energy = -290.997661 eV
Mo 12.897265631860042 13.81987125217955 10.84076874761996
Mo 13.311446414880583 11.346085603292863 11.566320155907768
Mo 9.150784007222981 13.002246689783947 7.816633091562305
Mo 13.25649282207286 10.767150723793408 14.168956817670086
Mo 13.016296814388511 13.653969139374487 8.459035726468349
Mo 12.73203858199374 13.512770424108755 13.564233416859116
Mo 13.46699859508162 11.392847588728515 9.045185227184293
Mo 11.424620640791117 13.305948236695826 6.216054481323276
Mo 11.052530929592997 11.894362510018945 9.722889667973684
Mo 13.030417091014508 6.983409846578205 11.127205631494096
Mo 10.89943068666444 11.778086358875916 12.481849371766135
Mo 11.584617344209336 11.578211974308845 6.682767646755158
Mo 10.805548467734868 14.415255593066018 9.071433694976806
Mo 11.682469779449706 9.479466294114065 8.63468549604115
Mo 8.452761131667756 13.13965882310922 9.791634755911067
Mo 13.671395870339154 8.994215967561866 10.210324872102865
Mo 11.649002574212414 7.101486461936069 9.486243854603405
Mo 13.398012872479335 9.075577628252175 13.211225996498406
Mo 10.47852773798305 14.128160781648083 11.63179686297364
Mo 9.929653857909889 6.587821503343265 11.75992815756002
Mo 11.286963197752454 9.155931526225109 11.367840661071247
Mo 12.244261783373705 15.386422779699538 13.040520018426774
Mo 9.216437345862847 10.515615102314914 8.477849550861482
Mo 10.113326659107521 13.66702748778486 14.583717366298865
Mo 11.181927527114693 7.0637121499568964 13.267120051750156
Mo 9.341216527464432 8.563501846850869 9.805240550980026
Mo 8.751842484724632 10.734313573413312 11.047439996942634
Mo 8.90136422777043 8.620986719728378 12.68074396731753
Mo 8.25815687618474 12.744290298008925 12.536367706030715
Mo 10.861092585115413 12.130627924928518 15.34600071036065
Mo 8.566603263882358 11.126080347873105 13.862363814618519
Mo 10.734123014561137 9.549750729239246 13.97851317280162
