38
Energy = -348.67000592 eV
Mo 13.864648642728989 12.712989706844368 12.114943227884718
Mo 12.313598525706857 11.790478578503432 13.701471983306206
Mo 13.9439679348998 10.166450748127863 13.325019937502143
Mo 11.823391968828666 14.501135294455327 12.64937364876627
Mo 9.968862214835706 13.072115769623393 13.337937757482402
Mo 12.68672128032358 14.349304790617918 10.637869647839555
Mo 7.573770004508308 13.951498425717155 12.860849405430502
Mo 11.874318902822372 9.539475077691446 12.318740958210334
Mo 9.564854462599213 10.610386792813141 12.983052379301121
Mo 9.61424109968074 14.400310480019856 10.920995486495736
Mo 14.125888069708598 10.619136837260541 10.691471318691502
Mo 11.448519226934868 11.973627772009488 11.120939837673859
Mo 12.965062268364512 7.212293043117898 12.942566152791487
Mo 10.642949337627378 13.757261042592928 9.019027512867321
Mo 7.205813222860039 12.120088974468922 13.17000142525401
Mo 9.68401773755551 7.808329915856949 12.828121547704763
Mo 13.10130586829405 12.15128307210921 9.057820779456137
Mo 8.772817430374465 11.919767994607367 10.810592224681175
Mo 6.866647274588826 13.885636065412076 10.079359458493887
Mo 13.835244403847073 7.728252550824857 11.308376507978332
Mo 12.130360220643546 9.51775058417763 9.611883975080556
Mo 7.455992339323227 9.544834393374526 11.95201739820818
Mo 14.848989189186508 10.613972118480232 7.855108294179121
Mo 7.978787222886134 13.316192170030702 8.525671848082746
Mo 6.482889423045915 11.359559432260964 10.174119825240771
Mo 14.725198641926417 8.719194084903563 8.73060109767337
Mo 11.238697347041834 7.089759261776657 10.740564708419573
Mo 9.56750220899859 9.381767028457384 10.386955537687319
Mo 10.615261469183803 11.415493277900858 8.457144619518264
Mo 12.650633879766607 9.895361503637863 7.194176590996302
Mo 8.458070445609383 6.986420930424051 11.506429617887942
Mo 12.310381779991841 7.434926479047792 8.491932374020019
Mo 6.921605372507134 8.79122146222715 9.67446368148979
Mo 8.113588494678277 10.47527613668099 8.395651983199365
Mo 10.177649225651066 8.794948939276068 7.611174834014477
Mo 9.370132474465189 7.106394837286861 8.972543430319865
Mo 6.965209532176955 6.66066447407993 8.285304330512814
Mo 7.578712827530286 8.092741925004754 7.022026627360181
