33
Energy = -300.56487434 eV
Mo 15.556711918981232 11.62994726600803 11.319373565983685
Mo 14.806177641969079 11.217963142758087 13.53201484712376
Mo 14.445736384767503 13.944009283174157 11.415481897359609
Mo 14.207520163984174 10.31265689851972 9.801566287066873
Mo 13.096861779604374 13.553084507097214 13.692612072369634
Mo 14.172816265618973 9.435854513514942 12.41365363534248
Mo 13.079165114658146 7.791074438084081 10.324515335525197
Mo 13.897514008199789 12.921405780372512 9.43336035614382
Mo 12.620766421231554 9.075220112778176 7.646128726859351
Mo 12.801138640022641 11.748044588421859 11.634758609216632
Mo 12.327707828559003 10.85449609409819 14.06127514299482
Mo 11.993427619173218 14.271602015156406 11.069970149482655
Mo 11.521069840657338 10.182275561834274 9.70434600577713
Mo 11.019468687586517 13.188625034033791 13.29097669761211
Mo 11.215425498707578 7.502979719132028 10.086583356142642
Mo 13.079231649751328 11.022300231207089 7.435408949735914
Mo 9.829894409675981 10.726283801684062 14.257305427176828
Mo 11.480458436083412 9.137905254932146 12.351154620202784
Mo 9.025638164565937 7.621955771595483 12.341600925769784
Mo 10.186420431451435 10.750996951276942 7.372749484201015
Mo 10.159551653723716 8.356471187784916 14.238629269841786
Mo 11.45182431061253 12.734026275853163 9.201576596407126
Mo 9.78178778494368 8.878717086516861 7.801857795139613
Mo 9.490365049925185 14.099054081814765 11.008771983970346
Mo 9.951625355008234 11.354858224735148 11.708791877675187
Mo 9.07329942343431 9.258781393356154 10.464730419423255
Mo 7.954092825456542 12.724870245439732 13.009877901413844
Mo 7.994032308113633 9.6781543118148 13.031746741559832
Mo 8.962551921448108 12.222570416819954 9.552949909947513
Mo 7.24160813019732 10.382668708605093 8.26527819219312
Mo 7.110649684527728 13.544076309159031 11.267350095863119
Mo 7.192347913039542 10.97719685324899 11.099141252902651
Mo 6.29123224872703 11.878608280441371 8.717900832592333
