33
Energy = -300.54155181 eV
Mo 8.514698477283897 9.101948524736983 6.604228988602431
Mo 6.790533097036121 9.807670695204608 6.4389826109751995
Mo 8.260507541748058 12.000538723667038 6.765393722479646
Mo 11.179602441245093 8.780436523362928 7.562428626901095
Mo 10.69273281934763 11.080555620687724 7.0297757759762876
Mo 13.84091449346961 8.781191811422737 7.760168947040353
Mo 13.438805195585266 10.427438204740126 6.96630936673446
Mo 9.156175308999705 8.187701353745085 9.325182988663927
Mo 6.9893787577183355 9.302849017978692 9.066793376362423
Mo 11.888551964078571 7.792346405974877 9.841165420854066
Mo 7.123707710287782 11.78691304671545 8.708252466375118
Mo 9.401809092639471 10.740548513335382 9.021932405622803
Mo 9.587147771079458 13.655080959833121 8.65985124762527
Mo 12.28276246121624 10.320262953555938 9.543399719562233
Mo 12.309304388461706 12.80186906298921 8.712611054578021
Mo 7.889930643489362 7.983652037056064 11.53227530313255
Mo 14.081396221569507 8.80030251907008 10.714555221065913
Mo 12.657206303927275 8.094417092825834 12.319693909792845
Mo 10.571736093481418 12.04691215324434 10.956724584464753
Mo 10.38633560949443 14.643013938230936 10.063411227106256
Mo 10.194771705398162 6.347791432891785 11.538649162195288
Mo 10.41994124430954 9.281164141987704 11.54956937120229
Mo 8.567358785760659 8.883131182685602 13.701922277213589
Mo 8.192954453481214 12.843206543813624 10.97323211325088
Mo 7.866412315407162 10.527286405313559 11.31907053991631
Mo 8.90780086456903 6.059109026697828 12.878029659398878
Mo 11.585364589259717 12.916653800045852 13.417097661006416
Mo 13.016550062671696 12.950109661372483 10.526589397861052
Mo 12.850657797314891 10.59235154880593 12.054559087951356
Mo 11.187433314815127 10.056454901682182 14.085754549923232
Mo 10.585343705120625 7.851309411939845 14.050413918974112
Mo 10.143325618276316 14.007276411565181 12.906985512222816
Mo 9.279879394434522 11.371847657375229 13.176547318179814
