38
Energy = -347.31485215 eV
Mo 15.315049788895017 10.519766130987005 9.68999528476452
Mo 10.645881762674898 7.308547631591578 13.321372066250996
Mo 12.176541675296107 8.325397743177165 10.833708617585122
Mo 15.844667926503195 13.216678184625481 9.427451377044799
Mo 13.165276809000941 8.397924551552006 13.432317602257648
Mo 13.4095389481198 9.114327477108553 8.707115632434512
Mo 14.671097243903256 9.098767105722644 11.416198989013564
Mo 13.847207001229254 12.134103567667992 8.21641325308292
Mo 15.234395733952265 12.125060915220264 11.518966650982437
Mo 9.899428857875366 7.2089506700326025 10.880230201589715
Mo 11.125996644737862 8.197601745821267 8.365919059192791
Mo 8.932589951799955 8.24245311389418 13.362446187042135
Mo 11.546604155018768 9.598747400675506 15.380320147143076
Mo 11.68370875607016 10.782911917667183 8.0876051290251
Mo 11.084435710601772 10.037984059072723 12.68488085717018
Mo 14.16258050896446 14.35546583559099 10.040378749329388
Mo 12.789996754541338 10.964902699919405 10.597361927488498
Mo 13.759741480521162 10.561652992753926 13.23212183131447
Mo 8.812868984402574 7.932625939890397 8.560565399356468
Mo 10.059400268561054 9.993614251498538 10.070577474387894
Mo 12.989275238124167 13.2386780111653 12.098653865809803
Mo 11.984935611778036 13.294206437939156 9.248708920134119
Mo 6.706971491917904 9.578787220111222 8.302633602891312
Mo 9.766247181203525 10.302286292949754 15.248594268867507
Mo 7.9522770918344605 8.815020699699373 10.77474235373405
Mo 8.804808675692788 10.14491971076039 7.531803840370394
Mo 10.513212171194757 12.517712224443127 11.544161554679832
Mo 11.702303984563793 12.039134406261574 14.178264637601497
Mo 11.504803163059853 15.069731842114333 11.299991920467495
Mo 8.505828046126371 10.753392978197466 12.395284804500475
Mo 9.480594004987243 12.3757428541315 8.966389144690817
Mo 11.429522619185299 14.840708606255827 14.167369238235626
Mo 9.339777131297295 12.631681301919576 13.841058877385333
Mo 7.416272459672709 11.171658216344971 9.701393473816504
Mo 9.734387432606132 14.651073713215677 9.626142972848571
Mo 7.96027346751992 13.287701588118209 11.252037690943329
Mo 11.068229420922055 16.495284265945095 13.523856008981156
Mo 9.097237728959655 14.741722002711596 12.433391096592231
