38
Energy = -349.72416584 eV
Mo 9.604413666222767 6.830530252063282 7.418752004436767
Mo 11.258118617692434 7.960187015634761 7.224844656378072
Mo 9.064191900061669 9.595563331364186 6.256558089118506
Mo 11.052190827395455 10.837462444360654 7.573562920946094
Mo 13.477677155828061 9.987775632378176 7.686996017456913
Mo 7.532143936748595 8.59200650864644 7.590306644846191
Mo 10.516647293126724 6.741292249706815 9.794153028739983
Mo 8.136248430825514 11.431980989366819 7.616254319320085
Mo 14.945822980844493 12.110280128128846 8.086576403630456
Mo 13.087862291303813 12.828061755733735 7.991450145181765
Mo 12.354580842852853 8.312615520754642 9.831182863071298
Mo 9.497901672498402 9.109694470147723 9.023269939867927
Mo 6.865440296924584 10.243547542551203 9.306310456723125
Mo 10.417862962275999 13.161710417952557 8.455620607118435
Mo 7.954583581123448 13.993221108850753 8.754683133781045
Mo 14.172910187118454 12.34259962004858 10.52159697911502
Mo 14.267709571499712 9.870601810190786 9.853262328358982
Mo 8.227584412414336 7.366588956597025 10.472330087290391
Mo 10.115852079698097 6.268693768019138 12.493492770957783
Mo 9.210707084454176 11.642398791289462 10.013343924790403
Mo 12.880601959884068 7.559482417184433 12.01802039317671
Mo 11.864289746440292 10.980665940948654 9.869279696668897
Mo 9.02969980485116 13.766510499628197 11.32404290138037
Mo 7.9137339780284295 9.426284650038124 11.524226186647812
Mo 11.85245447598321 13.49338654881515 10.547374141225063
Mo 10.457398559063332 9.00664157020684 11.606996943375817
Mo 6.708438270922512 12.836702699071235 9.82536165804493
Mo 12.946938697040295 10.091224654793994 12.316087084170093
Mo 7.677878331597943 12.015389097543114 12.376785384586313
Mo 8.76874249960888 7.355767057771062 13.300686208768122
Mo 13.1036797388053 12.685164221175901 12.723841915438499
Mo 10.65948336652536 11.73714453357122 12.347427848762019
Mo 11.37882166421659 8.331278482616083 13.87673230294346
Mo 9.308927873960286 10.142950020761337 13.899632295854596
Mo 11.769922387182513 10.615859780565355 14.517036127617654
Mo 10.988986057685489 14.533257096497355 12.938546831900586
Mo 8.987956136443561 12.594889117280168 14.096011803927812
Mo 11.58952080651867 13.341532957334358 14.531651371788952
