35
Energy = -318.46799135 eV
Mo 13.581914152091343 9.01775260189699 11.87269502552033
Mo 10.488662956420008 14.942968771415638 13.80242799174437
Mo 12.156381491063453 12.693135833520756 9.567468806488318
Mo 13.144948445731226 10.36975333481369 9.836383256881257
Mo 12.145969399944345 14.562001954889357 16.053144724002884
Mo 13.194271156089846 17.51358424603956 11.914168484931905
Mo 14.788769415203504 10.917752101767201 14.19200121426604
Mo 12.89503790793772 15.628175639944967 13.866512690358165
Mo 10.657242456074485 13.619286862044246 11.609740379347372
Mo 13.8319073224404 11.674302982651641 11.922713828572041
Mo 14.839803867533705 13.590240006361098 13.891614095966837
Mo 11.258231086199583 10.816381944407318 11.603630697646512
Mo 10.46373171719638 13.167592332119789 15.763586274096827
Mo 11.25721341717644 16.036665994058158 11.645378693055608
Mo 14.177857654987772 8.184475251297686 14.629168804106067
Mo 11.593405709498946 8.327753323571226 11.07845896923424
Mo 9.921591389417936 11.767223960130679 13.585603083764369
Mo 14.75286993832823 12.74735083912781 9.756546124371303
Mo 14.009986444383836 9.37042646980237 16.24556941310914
Mo 9.97265614366685 8.896221177795693 13.112251786592656
Mo 16.232096137640486 14.396371070645296 10.583768966072187
Mo 12.20466145052371 13.017164353785013 13.545225104476415
Mo 11.605220538531844 14.999016304036484 9.20876195372719
Mo 15.331352184775326 15.593841784557668 12.565015812173947
Mo 11.73533630977555 7.557995978299946 13.518647975156878
Mo 13.8406784386195 14.963245993560108 8.70550934585079
Mo 13.20749139950331 12.217270245019433 15.888235671260594
Mo 11.58643202256893 8.470577603414672 15.818041615514375
Mo 12.806169008936948 17.460598305598687 9.758510912613811
Mo 16.198370437633777 12.641758178058943 12.313770239269566
Mo 14.964774265727035 16.61562070337961 10.013167895716059
Mo 11.680289879154317 10.9553404731301 16.8722977097324
Mo 9.82858868184962 10.136079088779923 15.337240581172225
Mo 12.272197424942085 10.244724835324394 14.090563050368091
Mo 13.4113948945824 14.524199299682271 11.371760805386756
