33
Energy = -301.23165829 eV
Mo 6.136777153960722 11.857375357496215 12.29109861852013
Mo 7.128289807030235 9.55864442678878 11.450568433304953
Mo 6.540460536679169 8.683839760715301 8.921846357560995
Mo 6.7205130940054785 11.29417279591197 9.433977037893134
Mo 7.089477633417196 11.218302206477919 13.789086528324185
Mo 8.911713027437003 7.515628195230351 8.30915497699311
Mo 10.094688738837442 8.396254939280277 6.235299822581692
Mo 7.462795443517394 9.415074147520812 7.218244290351841
Mo 8.336644862625622 13.823755573839794 13.190401683399275
Mo 8.818073722454635 7.9136936814740215 10.92833144685855
Mo 7.805471663774805 13.563826532652525 10.211270868885343
Mo 9.21575853616285 9.299124964775391 13.096704671160865
Mo 8.829323706954039 11.531195274178497 11.579421287380663
Mo 8.347502367387039 12.676821132815313 8.264209437072104
Mo 9.033750292769358 10.116764874773837 9.198172366206991
Mo 11.358584790861908 6.117975300738437 7.470326537865857
Mo 9.947117317772078 14.140554765232867 12.244296350711634
Mo 10.87772300718641 6.880794801138115 10.17435807272408
Mo 9.92771144457407 10.69123161898728 6.832597802857589
Mo 10.365476399728113 12.589657559751311 9.835841544313775
Mo 11.332532807465457 8.772087063155702 8.40350089187985
Mo 10.03782378310058 11.660418262662049 13.780739534177123
Mo 11.284048628522706 7.602770422183343 12.85254646305695
Mo 10.934256066315799 9.747151330638463 10.952145834708748
Mo 12.979335210309657 8.172180041861084 6.077153995496664
Mo 12.959639639504054 6.473089473456057 8.456059425288425
Mo 12.493886207552904 9.981023884062013 6.026487985377127
Mo 11.898356826910748 11.293794529467707 8.5277179117342
Mo 11.628630508861116 11.983451514880278 12.062741671469356
Mo 12.962153652845261 8.250456108554845 10.755254757643002
Mo 11.883285779804902 9.406369233378543 13.432444186744252
Mo 13.918181325440317 9.47915239876481 8.60968949057464
Mo 13.58018878592166 10.665406866455003 10.349846815931755
