33
Energy = -298.4384143 eV
Mo 12.013322000326193 16.61699759641198 12.520583574991662
Mo 12.742950467807063 11.231203061933991 8.997710204038166
Mo 13.051511940760278 17.088586212278226 14.078710692598495
Mo 15.398265399257095 12.823542333154293 13.221924478067141
Mo 16.61564510466123 11.778380011024142 9.52503122287867
Mo 11.72340744528553 11.315093653078526 13.330885956561652
Mo 14.77090000562923 10.88452004719062 7.598060644041474
Mo 9.774180428979804 14.95962819961449 13.415860472639965
Mo 15.925041330216354 10.950914069138394 11.375801995146153
Mo 15.02898512017309 9.538407581645643 9.00449170708141
Mo 16.000691352753492 13.778496272163723 10.821381379909106
Mo 13.117703984901427 15.087626598625203 10.116128757540775
Mo 9.256294365083956 12.365319924978174 12.693650283949165
Mo 11.012431114813216 11.222077915016579 10.880450571999846
Mo 12.95565804107068 15.867451834424191 16.97529160503612
Mo 14.519503328024326 14.890950390285152 15.12241890900486
Mo 12.631585759879968 11.527108517790753 15.656873482689264
Mo 11.55499744151072 13.785718976108093 12.106905479617108
Mo 13.225458698600185 13.829376033887398 17.490801661997157
Mo 10.825611690613828 16.237056228828067 15.111208208207797
Mo 10.74547170652965 12.397269033631563 17.107701516768675
Mo 9.102508948874545 13.812540593596252 15.313889195265295
Mo 14.449886101062921 13.357611894449363 9.075060948226492
Mo 13.588661310346698 12.447809309377282 11.328112109438049
Mo 14.07627537002136 14.837248253423326 12.635680838489572
Mo 12.23083498156048 13.888258127415286 14.790551788174737
Mo 14.7349510792124 12.620168881687372 15.770564026921791
Mo 11.588628210399632 13.615415110724136 9.468105025246588
Mo 13.368554610538215 9.99261030640336 11.115486765216938
Mo 10.643401341483305 14.932897597045898 17.069004904991914
Mo 14.073572808280268 10.660726308001793 13.49920261477475
Mo 9.802581484001532 11.520647785112674 15.364972163529956
Mo 9.182259338599323 12.958729710798325 10.768718757998931
