35
Energy = -319.20998888 eV
Mo 15.678614995457663 12.001137941532175 8.936524120248222
Mo 15.751671888108042 13.084679435483862 11.421109518900362
Mo 8.725417066675977 13.290373245332031 11.788292962749537
Mo 13.072258415575549 12.001734798645407 15.416669030475767
Mo 15.205379593683546 13.024933787130747 14.85511556348276
Mo 17.402343359644483 12.145854974251938 13.222875243993373
Mo 14.903241404921989 14.758760404510078 9.285744813450052
Mo 8.120698368899367 10.647315462724038 15.275150226182529
Mo 16.622973967777344 10.35520070722991 11.004880817987873
Mo 11.318580438702869 14.35000467196555 11.258638417399222
Mo 10.837236307353606 12.917053066806343 13.787443096938768
Mo 14.756474355910807 15.200375083659713 13.144132554977407
Mo 13.383983873844757 13.154704515083353 12.677265012487318
Mo 9.22536556921982 15.071416293640581 12.696018004855596
Mo 9.528322259355672 10.867687768124307 12.987939962614112
Mo 11.587841087501982 9.550490183547861 11.16029674475162
Mo 8.087433595533579 13.111126444526338 14.254038560075315
Mo 10.88786151637945 13.010547621532872 16.600899898130145
Mo 18.089825384710373 11.550125036404275 10.68595849013115
Mo 12.360981328904252 10.600924422682903 13.395083422191496
Mo 11.154483162681256 11.676568628369527 11.131971435108763
Mo 13.294236645219897 15.60530880757158 11.11540474325439
Mo 15.041130883468606 11.165242789771867 13.414093133439092
Mo 18.06559761040957 14.362156780402623 11.363803645364737
Mo 11.970633975930106 15.676978127217943 13.669621643031542
Mo 10.688475582049346 8.95428603485418 13.84844583783612
Mo 16.193579363330034 15.751779835189991 11.164529036681529
Mo 13.883089319178675 10.800339715517286 11.03961417565875
Mo 17.018271221968234 13.594844960122623 8.927374669603699
Mo 12.789387462159123 14.723898160928213 15.145232414855345
Mo 10.55127049570941 10.75086476466061 15.57450437580291
Mo 17.233297756743134 14.36306007021506 13.5892921816559
Mo 13.328857603292377 12.98067216477911 9.968271541341702
Mo 9.831809734180192 14.598609561366462 15.371417692243911
Mo 8.380910982381364 12.238730330365987 16.613489936933973
