38
Energy = -348.96663695 eV
Mo 8.789197219578407 13.191799932234836 11.871956923965637
Mo 11.502619999679593 11.209162685576986 6.805091817943903
Mo 7.587698879568028 10.670057001040808 12.518751728256806
Mo 7.096833933369188 7.612789318243365 13.085506944218098
Mo 10.822365295804047 6.282295091125361 11.697580955602312
Mo 9.571456390757053 13.344522200532154 6.503154630586451
Mo 6.1923291551220245 6.337514006869549 11.908433006972288
Mo 10.310362351857185 11.939028036753337 11.82438753511797
Mo 6.296115946596947 7.317558655202459 9.009275606518154
Mo 6.665603756983056 11.631861903102935 6.4710159986963465
Mo 8.53240521167781 6.7183258538876895 10.913099594162789
Mo 11.932535354388262 12.477154943251016 9.38325473417869
Mo 6.116823693004511 10.17150898695792 8.502754888268843
Mo 10.105827799969873 8.416881394756388 6.9709418210090766
Mo 5.785447915511613 11.632435164618279 10.279339866450604
Mo 7.304133823396428 8.518795172342953 6.631656458757745
Mo 9.62809349505571 13.131517574394596 9.294234626311317
Mo 6.9109972514130575 12.854320992145233 8.208959597075724
Mo 8.197782870287417 11.139435259502676 10.153460132282483
Mo 8.893617643830801 6.220734914596666 8.166530552014718
Mo 6.528864744873669 9.065112304877948 11.076171270633152
Mo 9.466567680303472 9.15404307909897 11.731193272864818
Mo 8.702816484027876 6.934076088012545 5.652673723483944
Mo 12.681838633282538 5.700726766982943 9.313649229269245
Mo 10.132741928036792 4.83375825644757 9.874456102319114
Mo 7.216287589751114 4.625183429858826 9.550893088394636
Mo 11.307399075164252 13.854389605858925 7.189132216347459
Mo 12.424912710639877 8.96813651387441 5.865456164186081
Mo 10.815933539663549 10.475370991804864 9.31420688490298
Mo 8.117641088110707 3.977477210977135 11.192754521255196
Mo 9.731113017057792 10.263370398291132 5.374747143949624
Mo 8.81272465103134 10.92207329394997 7.452874975750073
Mo 12.738055008099813 8.808248542987815 7.844916419128299
Mo 8.467694123803655 8.710935134035363 9.144591656214308
Mo 11.836871683686775 6.141943260135617 7.635434129871049
Mo 6.478703799402223 6.255611368570523 6.9923254647337085
Mo 11.811606212067037 9.299395687164187 11.335685734519418
Mo 10.992748074228063 7.699217011016521 9.7662186148676
