34
Energy = -309.05144465 eV
Mo 14.321337921194845 11.073196734058106 10.360748493088064
Mo 12.760312019981415 10.360942762255565 12.570427167858185
Mo 13.267543894146021 13.84815049383413 10.248022280398942
Mo 12.723409712607063 12.22802738363374 8.581129757648805
Mo 12.433842355140188 14.805678598119913 8.03386308637385
Mo 14.169131138100726 9.82844042605075 8.838081944589275
Mo 11.43348802222518 12.580938060001866 11.120673035286789
Mo 11.765307231635436 10.022345298090746 10.00622272446539
Mo 11.15867582941979 11.905569862322988 13.66403463975662
Mo 13.05868845552592 8.040222232272571 6.773021919046576
Mo 11.574688774001258 10.308488942694868 7.247990733061861
Mo 9.97042124154356 14.198722873016798 12.490990194925962
Mo 10.471809703588775 12.468720207473154 6.965963000349917
Mo 10.797630954314398 14.362392536664094 9.072784413141184
Mo 12.029562970905966 9.689319072739304 15.176400473824213
Mo 13.207311846899392 8.320110813509663 11.130988944241299
Mo 12.235674588357593 7.534847119989889 8.319879309143024
Mo 8.728981882222635 13.641789861866265 10.811151736219546
Mo 10.148311041481733 8.648415233710628 6.332983136212406
Mo 9.710398237630134 11.646104050890353 9.205066583964918
Mo 11.52155274770085 8.145232906236096 13.158853536539723
Mo 8.866932632229927 10.553734513981695 6.589589036260887
Mo 8.76721978574794 12.284912306613204 13.332270698038576
Mo 10.077481186430342 9.798073977122904 14.86805861081394
Mo 10.755189735722665 7.660171817339227 10.921509537560825
Mo 10.052345520618276 10.103866912551341 12.005876921974608
Mo 9.670863745674303 8.847024572431023 8.77017501801535
Mo 7.86350822081093 11.265379461646111 11.174065983222567
Mo 7.647762168708346 10.10946124716991 8.845722168898554
Mo 8.803147282252528 7.87108337012917 13.170897876027189
Mo 7.637041608007725 9.878172469756189 13.517023179874172
Mo 8.021210620626674 8.559003579325502 10.99204289893666
Mo 5.580743962771772 9.436485543539584 11.579683722668085
Mo 5.827098809908762 8.077448399054573 12.825973586910399
