34
Energy = -309.86000404 eV
Mo 11.57522594277313 9.100459580122362 11.802390177824613
Mo 15.211290940883845 15.191603329072926 13.522681153523502
Mo 15.757872561919237 10.95576477934952 12.22375463115236
Mo 14.409573708544261 14.8125097339806 9.557489886018221
Mo 10.818334014311858 15.974093828662362 12.734839618289762
Mo 9.291996327130848 11.390332814087206 13.825833704492968
Mo 10.032060070277508 13.834172633482751 9.463799973227005
Mo 14.144331555362527 14.729432982071557 16.428714593555615
Mo 13.200653069293933 12.867295239683934 16.561052616161767
Mo 11.352992852641078 9.882820193232973 14.029926626933173
Mo 15.829785207762425 12.309807288576868 16.359137351468686
Mo 16.226906304849994 10.673044608493672 14.41678256330888
Mo 12.479804748768728 14.819515440298026 14.592830447818315
Mo 13.980494093611252 9.195108505370992 13.125588175604614
Mo 14.56631070046634 12.844727781679321 14.212640054766949
Mo 10.95420367983227 10.92750575962784 10.283553354990575
Mo 8.841276094304979 11.78333283733678 11.064413829251635
Mo 11.475032432684655 15.23212922579573 10.034100378758385
Mo 16.67116591734959 14.35108419029678 15.506089793822063
Mo 14.672957686319561 16.124335253970617 10.878864627312977
Mo 13.010427291395288 14.340006146132055 12.15574562914758
Mo 9.151531607802898 15.371293264903748 11.54336389178163
Mo 11.74452903326094 12.45900179284028 14.289861939991647
Mo 9.179925876305425 9.713564066475262 12.21622735016763
Mo 9.538648514828957 14.314745798529607 14.271121352436623
Mo 10.629928548140828 13.244963315595017 12.092745889280096
Mo 12.523459507604134 12.81284801516066 9.899361601450446
Mo 13.669101567047317 10.300771575319075 15.0078613202557
Mo 13.719244763582896 10.101738057037489 10.078317311191432
Mo 15.592615450707843 13.589592242617478 11.770626035590052
Mo 17.22492362401577 12.941102951072438 13.859734101136405
Mo 14.851773984266018 11.749618167443574 9.795687119375849
Mo 8.00509710627282 13.474536358877048 12.979514737755261
Mo 13.104259835458214 11.418469222467257 12.279648408798854
