30
Energy = -271.28925549 eV
Mo 10.685852109563786 12.730904040015474 6.661450592001111
Mo 10.01481761446127 11.084355275635863 7.12638712756241
Mo 8.929728701016888 8.37004310426721 8.463097278035237
Mo 12.094829067548698 8.767351884219195 8.90264333568171
Mo 12.244283004563933 11.557023609390695 8.808484510030208
Mo 7.8046264425541345 13.385682951617945 7.762530033245272
Mo 14.412979438733894 10.532649228854776 9.662242129900127
Mo 8.981185725478005 14.759008561507315 8.02872722202079
Mo 14.084664228113422 13.6242225201861 9.203747335632858
Mo 11.689413012505524 7.8429081135649374 10.476286031113931
Mo 12.415522187189062 14.336578500274642 8.767075775345331
Mo 7.944176082219658 10.90406111893376 9.127771867350464
Mo 8.283646501610642 8.210159205895515 10.219507590015013
Mo 10.006863669040088 12.848952179099397 9.49021330114617
Mo 10.14952904016102 10.285995338449354 9.964774646159713
Mo 12.382469363149722 10.455524697870823 11.385210390642198
Mo 7.81786482421913 10.666762807968432 11.538707178470768
Mo 14.50768483950603 11.9839840614715 11.398871963314738
Mo 8.06716833747577 13.123365474025594 10.850617036020838
Mo 9.87870650808318 12.075295090305497 12.06157343461005
Mo 12.196438519778878 13.071441729842626 11.117957180552146
Mo 9.948727942182575 9.156623564991902 12.455699267247724
Mo 14.658667368034699 9.125712039571239 11.941430596670882
Mo 12.296762436517175 8.392763387182416 13.246530913518448
Mo 7.597042552371772 9.02068577155998 13.920790941562856
Mo 11.530335459645475 10.458539013344003 13.844215851679307
Mo 8.410007022534383 10.699068800574942 14.20719378636814
Mo 14.296979683380926 10.368420669357398 13.49706401281273
Mo 9.726148411388209 7.032776066772394 13.909296434878573
Mo 10.19408177660366 8.380343062880858 15.211104106042184
