38
Energy = -348.45488992 eV
Mo 14.008634115901904 13.362838205495718 13.517460657413315
Mo 6.926208611739493 12.273385656035922 10.610265950240828
Mo 11.619582751870565 10.157181684717475 9.92502205219892
Mo 13.549024395904729 8.48652373839073 8.877530800087895
Mo 10.625798789480985 10.129591291649271 15.774012762159296
Mo 8.838891448857417 13.10391235016073 8.833537361440396
Mo 11.736553613946727 6.572966811589259 10.114154336615929
Mo 9.496149308965887 11.592286210996633 14.681140457856094
Mo 15.714528202739034 12.230219557870239 12.195808961601072
Mo 8.429828318570996 13.089697040046094 12.70778037979175
Mo 9.916042855643003 8.504490813119634 11.30307820837228
Mo 11.287660779580015 7.431408886606247 12.942326892843736
Mo 8.50705212258903 10.33604369583259 12.510755979855505
Mo 12.999130136418472 8.800398269053991 11.62220612695116
Mo 12.857732758720912 11.98023776787295 11.66334723253375
Mo 13.292114488687803 11.325127331897747 8.285549868765477
Mo 14.116428086492208 10.18412636686523 13.455306847086819
Mo 11.18244614304733 10.307523872210234 12.960386252159312
Mo 15.502719445831936 14.32459087159804 11.357834445581462
Mo 10.998431987345834 13.597771479206461 13.23018056745331
Mo 9.986071483069166 12.050147813049808 10.99876598623997
Mo 12.659608581468275 8.77669112477561 14.537981192051573
Mo 14.539256266032613 10.618589502614556 10.433402166731067
Mo 8.771802384357088 10.246168951593647 9.498043700502423
Mo 12.167746177235717 9.34313158448063 7.373261849863423
Mo 9.439230807048219 8.781803296617 14.218175351361765
Mo 14.636989739156489 13.134499382490027 9.710023571597224
Mo 12.496952352796693 11.805745522406122 14.558728664852634
Mo 9.940136170499171 8.399609312081648 8.726390590272066
Mo 10.280721259138785 11.457674673285005 7.964996461309179
Mo 11.719480607930945 13.051679031575514 9.156933841288147
Mo 7.0006141957669445 14.185897774948236 10.485687426186475
Mo 10.014682081865923 14.576130816568735 10.750879593758555
Mo 12.794741828051048 14.399763861953675 11.205048949492218
Mo 11.92925365722159 6.488895793759975 8.292864610938093
Mo 8.701773391116918 15.32425275581216 12.470849435370829
Mo 11.359948356958725 16.342479685555976 12.671065376146808
Mo 12.888622944293292 15.825382378132574 13.55658126298606
