32
Energy = -289.80875225 eV
Mo 15.183451807273796 11.973563807294765 17.149645161182665
Mo 11.120679478544616 11.544558765601787 15.060163559926876
Mo 13.064208688996924 14.017025381924364 12.464865914535153
Mo 12.931443035253709 13.59535555833143 16.610325063568048
Mo 13.351320662053695 10.828255575321881 10.349215332376122
Mo 13.837119056121082 12.181330801911729 14.540905412325053
Mo 12.536644702838903 9.329276964952689 14.590682729104975
Mo 15.283069801754465 9.818588638620028 15.383620665389733
Mo 8.705172461156334 10.998842522616526 9.021628127632153
Mo 9.590784045368412 13.129459493360915 12.780120574150873
Mo 10.782709294087116 15.008971496239749 9.096560805758548
Mo 11.631626902264607 13.964116770970664 14.40266791181005
Mo 12.975405172821613 13.054421708813859 8.284578955027714
Mo 14.20142076469545 13.230990659972464 9.787666556381462
Mo 14.982256747924067 11.87738340228786 12.18218950151076
Mo 11.352164446301856 10.407776297166869 9.214937074643505
Mo 10.153997554313785 12.363511162909711 8.068077598381851
Mo 14.345812363046424 9.663835638855135 13.007923261648726
Mo 10.219444767790149 14.871807170045795 12.07137734602142
Mo 15.418426963193456 14.075629469605214 13.058737590181241
Mo 15.484909110859078 16.314994301857748 14.749537926469328
Mo 11.461336251997361 12.759056523128285 10.499225301553489
Mo 12.362315767958133 15.409169256241086 10.093397416383775
Mo 13.735544612879632 15.844901332561227 14.772378179798993
Mo 10.480618119562134 9.203102468321381 13.598610668565481
Mo 8.916874763644545 13.116462830308377 10.17039754526423
Mo 9.83405909793243 10.76939644335608 11.267274189248493
Mo 12.862988962980365 11.194626043577305 16.73708281711909
Mo 15.405034021077308 13.729686047112603 15.814719595886928
Mo 11.83507696055594 9.13409841360198 11.749567112493052
Mo 16.354274687400945 11.340778228369071 14.587301254618085
Mo 12.118855293533592 11.439694599053352 12.726341773009779
