39
Energy = -358.43152789 eV
Mo 8.701153739459418 16.11594331270318 12.376806105257115
Mo 13.663932876471145 15.545374030004352 11.672061925149993
Mo 12.46748160169852 14.752799154448303 9.210502614386154
Mo 11.136036172207023 15.086553606567435 12.206617734385997
Mo 9.919359904577012 14.349792565969311 10.259183995734416
Mo 14.787548217224595 13.568932695445003 10.76307181175497
Mo 8.696352886318707 14.601514822652046 13.57162423742938
Mo 13.645943585328329 14.1811168948373 13.391755853395924
Mo 13.373771122553626 13.077713221019637 8.451595611006924
Mo 7.551160916961477 14.027901073876466 11.172166630950231
Mo 12.39979973975127 12.971227084667852 11.217311815878784
Mo 11.283647868001353 13.10443775409713 14.026772977806347
Mo 11.049058039890502 12.257372396170336 8.946292415677672
Mo 9.774780887336078 12.362920116091328 11.879199481664944
Mo 16.375776123731868 11.017541156260421 10.558580164277275
Mo 14.77316250053244 11.96700005952006 12.7707601831341
Mo 6.244874405520804 11.567236049747157 10.400230900397814
Mo 13.272408837912286 11.791372332260513 14.873566479303433
Mo 15.900007662607843 11.67758443663975 8.926518245162226
Mo 15.690712085831377 10.38924405509179 14.94888834914688
Mo 8.391014843675599 12.04109041403983 9.635677498099248
Mo 12.247665839029064 10.7359360548628 12.786076243548532
Mo 9.162909797315388 11.923712813450464 14.584527616068048
Mo 16.78313427061645 10.298479606057192 13.390820626367592
Mo 7.302412145600691 11.931217215504933 12.372786384187773
Mo 13.673670727824952 10.742351684927074 10.302950070306595
Mo 10.865547722771518 10.433715893423662 15.140670117539619
Mo 12.455496231340815 10.070357025830795 8.25420917223783
Mo 10.830862977507612 10.286344418105184 10.550200461601058
Mo 13.208956962883146 9.1062817840579 14.691955619530177
Mo 9.452193781152339 9.931143199706064 8.326162085440012
Mo 14.45554868893903 9.143731241434153 12.741550813331505
Mo 9.626436006207168 9.816761740314002 13.201371185050686
Mo 8.152299760973618 9.66834872297015 10.75981473822734
Mo 11.588000188484305 8.136786969309039 12.91224784721511
Mo 12.856773466169766 8.485313867408818 10.777588459873417
Mo 11.119986359861628 8.239417339306655 8.70090221802235
Mo 10.002560303981857 7.811916166831968 11.136642496846354
Mo 8.30431630341644 7.979038501727147 9.256489574079444
