31
Energy = -282.33958136 eV
Mo 12.221919436468788 11.141171168174797 14.815631510025865
Mo 9.489288575748251 11.815829996127277 15.156219247065266
Mo 9.54894183847443 8.741618319252527 14.422656519088108
Mo 11.782285536667382 8.948927726973212 13.287140256557048
Mo 11.972551075488347 12.837137132521612 13.72295252614174
Mo 13.086477420858278 11.031063533708345 12.168854202312735
Mo 8.034645348718374 10.389330691956815 13.105055354877704
Mo 10.39969436902481 10.884186077563605 12.70097050509854
Mo 8.965700704490263 13.079421810656825 13.856031177816709
Mo 11.087410363196048 8.655527656595497 10.85973159048534
Mo 9.182474191419447 7.764412593388126 12.658190989101218
Mo 13.116609577359016 13.211947284896933 10.888760658233705
Mo 13.512584754408174 9.357870280349177 10.489515527758295
Mo 11.240234398512602 11.21428076241752 10.15977149496747
Mo 13.893920319334542 11.808706831706171 9.532203972633154
Mo 12.555135195105034 9.553111425363545 8.346731524463966
Mo 10.417945429005112 13.468017618731608 11.452021729628221
Mo 11.4402953125241 7.254013861548851 8.307188444860513
Mo 8.897481823466988 7.149855602133016 9.771325270621656
Mo 8.511488032815377 9.599667711533062 10.855804491802498
Mo 11.69465627388082 13.518743138696877 8.579656994077903
Mo 8.514647292926785 12.30362688130343 11.03931893232789
Mo 11.743913895300079 11.948131692297855 7.4261982705751635
Mo 9.789232638098827 9.542811261769144 8.428356581071615
Mo 9.221752936242808 12.371146010204315 8.808233453892974
Mo 9.904480829164687 7.234461148544686 6.967364691423909
Mo 11.05039979613152 9.347347334306564 6.285402798223925
Mo 7.5765976416773615 7.976413689305839 8.594298010479905
Mo 7.501670959682895 10.757655183504438 8.655986959235706
Mo 9.007244654127216 11.246928161078207 6.259472542441776
Mo 8.2478390091168 9.50688542950125 6.069486424682321
