31
Energy = -281.64542341 eV
Mo 13.945150593484238 10.042743415611088 15.842123811536487
Mo 16.129947792548432 12.69114555308722 10.64683586451927
Mo 12.923966978645304 10.021414221008051 12.080140619282352
Mo 11.658629579600738 12.706703932953436 11.618058208958399
Mo 13.498604579824924 13.031334571647749 16.84624985281585
Mo 11.556375166104578 10.93050274906254 17.02398996629322
Mo 11.916965093997554 13.98400297342801 16.25232877306196
Mo 9.066152654160579 12.48688884150035 12.346801082465255
Mo 14.210933024510371 12.41879098926993 12.416949813774243
Mo 15.131632957749478 9.850494827820144 13.328842137215455
Mo 12.402340205611019 14.707093716033155 13.310033440043933
Mo 15.489723929949516 12.070553691524058 14.840299086606521
Mo 14.357771487093771 14.176786920408768 14.619710794700937
Mo 15.585331730644539 10.287856181623269 11.275825584126329
Mo 13.425886699572388 11.29633285018687 9.880401572874362
Mo 10.256721892881258 13.382722163895275 14.159259422401979
Mo 12.53796119041297 9.293690607458064 14.701840124543628
Mo 11.10708730951153 10.250651029325123 10.419443148675391
Mo 12.506348879794668 12.017196822041791 14.387292768914863
Mo 8.15685847992764 14.225364934195024 10.330865335275456
Mo 16.5128918080331 13.784551363237776 12.862829097592192
Mo 11.816324269682559 15.06657491704788 10.477875613253817
Mo 9.585283198409472 14.776211340521698 9.061130820114517
Mo 10.024563022510963 14.966364552684087 11.869239850191514
Mo 14.027520166048916 13.778555117477966 9.989708341975295
Mo 17.20321007682672 11.707657315205825 13.083668970497264
Mo 11.459003146784845 12.824437443658123 8.970836216281251
Mo 10.213156046757527 11.11413180931489 15.796718248339454
Mo 10.526877989547934 10.681311982386585 12.99063192793465
Mo 9.563295240042667 11.959313694474087 9.789274790957121
Mo 14.38678517604597 15.114129328956306 11.833509060907003
