37
Energy = -338.38698374 eV
Mo 6.381150674919769 11.977313997682295 10.628404372840908
Mo 7.699495853315178 14.594300467116819 9.904994300185605
Mo 8.251706857982118 12.039274401836286 8.952205868528257
Mo 7.42514853662889 13.203231977209269 12.573038993751908
Mo 8.05632444267216 14.619442154727691 8.062530015187864
Mo 7.162761505944747 9.878808485022532 10.650105403821284
Mo 10.158223934584294 13.753801273305069 9.742525312928086
Mo 7.3935239282727645 10.685984089307212 13.01605777788388
Mo 10.006820084882222 13.89250278099026 12.16587519273906
Mo 9.271287067315479 11.541503449677252 11.344541829155453
Mo 10.404430614522134 13.211784667148212 7.2391260970368
Mo 8.749615367723015 9.384664943222761 8.3398108972917
Mo 10.935974941472207 11.148780843174928 8.745464049698159
Mo 9.02553853895604 11.668619656975899 6.5765729723787825
Mo 9.201302724838138 8.17863393656195 10.708804840608916
Mo 9.149642063011479 12.758819979567246 14.066393581760527
Mo 7.861436760642686 8.255206221553314 12.882143472556246
Mo 13.235912256237 12.117078874163132 8.784084194858819
Mo 10.807951484728761 9.427119587360549 6.41065082125829
Mo 11.762133304383772 11.174781040448348 6.013606734866296
Mo 11.76484441665953 11.965523207246187 13.523395523635525
Mo 12.064922689493686 12.477885650714912 10.900893688461752
Mo 9.242355097249709 7.397496960911541 8.066309149739878
Mo 11.279287513800234 9.873648262847757 11.680820163643775
Mo 9.616568322046126 10.25117820549606 13.890911266209343
Mo 10.120717867108745 7.893384720335963 13.287281209943766
Mo 13.099410490165127 9.544535453393967 7.721308205351165
Mo 11.332078902960989 8.600038840991472 9.244397870242562
Mo 12.45009797173829 6.93441564072432 7.550682249354324
Mo 13.563846263736245 11.43547089193791 12.753866933023547
Mo 10.055792684291589 5.8132953698534555 11.66676200389264
Mo 12.378144383847754 9.110687667364216 13.98006962971657
Mo 13.554795225359232 10.209933808564754 10.09048608514008
Mo 10.79547502181324 5.92271204938498 9.861748025187927
Mo 13.944201000587984 8.763888875446918 12.533665956830983
Mo 12.355772708405212 7.406474129724414 11.53477635630011
Mo 13.645067461593662 7.091536401899454 9.109447917878654
