38
Energy = -349.30528234 eV
Mo 9.896926239621635 12.238573123346832 13.824539588699054
Mo 12.71466223163535 11.33270218621687 14.321273363349084
Mo 9.525973163565313 14.239556221025305 11.539709910234684
Mo 10.423268521178606 9.835252628896612 15.267922096821097
Mo 11.435682803779228 12.684690992476362 12.074760035644651
Mo 7.5669580003777694 14.301782185609904 10.22813841747338
Mo 10.239644364323702 15.19443320115015 8.945653376093754
Mo 7.31906012058142 12.836379134475868 12.397100442200875
Mo 8.511373816179276 10.125594801220211 13.95187212302189
Mo 13.984794153671938 12.664535675100709 10.963825420650293
Mo 13.741177006585811 10.370292433009139 11.89607023363829
Mo 11.798362226575316 14.340872749587247 9.730793293089679
Mo 13.115204085483786 9.444985985214162 14.464724820634922
Mo 9.18621639240373 11.265948651303587 11.48952237506839
Mo 11.195223595379375 9.949775428102004 12.523681997733293
Mo 10.500807360492848 7.9514319570498095 13.955043519036998
Mo 9.624648457432858 12.58780317685029 9.47771292046426
Mo 8.176159886825863 13.66089807937296 7.4039511749360924
Mo 11.969944993704582 11.140311645333593 9.907571528431996
Mo 13.524996008148424 12.599137503758898 8.12058141172619
Mo 12.520870201060372 7.795472849457288 12.061706930992518
Mo 6.903705875002304 12.147475554523183 9.669214549878939
Mo 8.842244399890545 8.543597950157693 12.041328988586802
Mo 14.914998177979376 11.224678303267586 9.544282545698524
Mo 6.716748905500604 10.731227429637807 11.724098245213275
Mo 11.088766778590104 12.68312939893892 7.472575338503764
Mo 8.176298986940221 11.787711223976343 7.18043466848583
Mo 12.954204154858086 10.294959388475363 7.62161881131896
Mo 10.796221824888999 8.595705352340238 10.103856852031914
Mo 13.438207028637859 8.90739446318204 9.726171462383492
Mo 8.361730552939756 9.832918366018502 9.47644436280111
Mo 10.440158108400833 6.542629039098356 11.635983054049827
Mo 10.459219255869934 10.28619717993863 7.833750278850898
Mo 8.331881264834001 7.084861541415596 9.656909372339381
Mo 12.640067147195346 6.247169019920101 9.876366851053128
Mo 11.881750890317484 8.031430526967103 7.819187003902288
Mo 8.963193136673205 7.753256674413655 7.9563197182402075
Mo 10.904730397709937 5.827626192547289 9.057329897282326
