30
Energy = -270.86144308 eV
Mo 7.133904791413098 9.250781856534402 7.10359850827383
Mo 9.268411115770684 11.195684474645988 7.626765990359831
Mo 11.677467119286476 11.99908435248481 7.408400283266837
Mo 11.905719239173127 9.87791924157151 7.605395565499124
Mo 6.320019901850958 10.733008355364484 7.706153789934534
Mo 9.684864033356561 8.966826441894638 8.624511835671475
Mo 13.555877198415558 11.034657644928641 9.373315516235214
Mo 14.736019764130889 9.31186643786517 9.113962145579507
Mo 9.857080224038109 13.78433797118248 9.082024147529946
Mo 10.54093734698761 11.17009526298328 9.838001322063153
Mo 7.995250481568982 12.261728178491298 9.56068696179767
Mo 7.92514217514583 9.785121255864052 9.893215521079085
Mo 12.211989617928632 13.600607948643772 9.541802748030445
Mo 12.156842368613537 8.951498329747501 10.201080959047006
Mo 9.66557593771242 8.49259009293527 11.556598576847946
Mo 11.93890848050493 6.59198375156333 10.893965044825201
Mo 14.404556276474938 7.824684854437978 11.18964901433946
Mo 7.8862322479996525 14.852092154140669 10.862799853671532
Mo 10.20026958800995 13.216654307785927 11.499237446279293
Mo 7.03657200433905 13.465405533339647 11.752920479727065
Mo 12.631284105602052 12.627099255948147 11.509344165748761
Mo 14.155457747218891 9.868385720448167 11.82122486651859
Mo 8.75479367157372 11.175675498986937 12.03210436265976
Mo 11.516559536559207 10.37650677597241 12.284627744539037
Mo 9.616784791193563 9.278328845465346 13.578909442882791
Mo 11.950120101121891 7.642108456976448 12.678074373648785
Mo 8.949897887120953 13.464636479094708 13.999283753936908
Mo 10.22806771602618 12.156697986846988 14.129510158493606
Mo 13.004958199305404 9.725963807429437 14.552102657626335
Mo 14.31594465417572 8.543477049044826 14.206241086505694
