37
Energy = -339.52834287 eV
Mo 8.157221884268774 12.559187252132606 6.897787717900259
Mo 9.902163501693291 13.756921954354176 7.454809240677995
Mo 12.35726079905567 12.699221164394089 7.1696723483490175
Mo 8.0740860403752 12.655664429626281 9.32443537680657
Mo 10.40726876678516 11.101469361811839 6.447662230590734
Mo 8.911645723644531 10.200757623183593 7.928427474554867
Mo 9.99502001749148 13.99979047575571 10.112922145970831
Mo 12.47965633827096 13.546294404163687 9.276536090917634
Mo 10.647207023877387 11.642077771731486 9.11025256418741
Mo 6.9533528820451975 12.355169516302894 11.976443846422814
Mo 14.796845767850632 12.265040824182682 9.209189796078766
Mo 8.082175956523319 10.191500066676223 10.499009437777257
Mo 12.960647808360113 10.42666004788273 8.273224766096295
Mo 11.167033503424438 8.973454056469295 7.988086248486577
Mo 9.157735012294516 14.254485018697213 12.607028164975265
Mo 7.412356291256197 10.786807035191773 12.953404174862909
Mo 8.810275404805335 7.630328835672063 9.337357959469292
Mo 11.906995791930083 13.703677790378807 11.97153136392328
Mo 12.625537951845974 11.247001543976252 10.80696138548924
Mo 10.512303427059338 9.255890779625574 10.528385466662385
Mo 14.620603269467017 12.889869114426334 11.524065950056164
Mo 15.264447558140487 10.37408949505589 10.12125255933542
Mo 8.224820325996935 7.732346105351137 11.269666340593783
Mo 10.538730806381619 13.68052651224432 14.022299767999817
Mo 13.069504952194245 8.704307414684836 10.387659747669389
Mo 11.582791319534918 6.706054588065797 9.625360420782261
Mo 9.697328965165314 11.841194029544612 11.758975543305963
Mo 13.538362585159355 12.83334386884944 13.903171240793753
Mo 11.674876519315498 11.265904098820513 13.32998228321423
Mo 14.444781222640952 10.799216367275127 12.621270572895106
Mo 9.743335358007116 9.162193148056446 12.992978451789265
Mo 12.318218135584452 8.913809332532496 12.814038688694376
Mo 11.10636266231279 6.788808282439103 11.506803028458028
Mo 12.325424563033101 11.83053593382464 15.890585964835704
Mo 9.60078940163875 10.97632748590069 15.062438132722406
Mo 13.468610986964933 10.300799496859971 15.23985800856413
Mo 10.780947905443401 9.404886137782455 15.368361036510166
