39
Energy = -359.11411362 eV
Mo 11.682733253982697 7.508727480671947 13.831009390048834
Mo 10.602153939537772 7.390746078470191 11.19123175138437
Mo 12.836257754362572 7.036849254633507 12.076180127591371
Mo 8.290221224940684 8.500426969262403 10.718121432003612
Mo 10.152280689451834 9.52729712419359 9.287540474591989
Mo 12.537734561476853 8.69264912440177 9.505447591265224
Mo 14.327600074334034 9.260601951028981 11.004312953051032
Mo 13.413264507230586 9.278169602372694 13.676822827992789
Mo 8.191664721745209 10.936304776224285 9.013857090119725
Mo 13.171859051539812 11.437868561514602 10.273130788961975
Mo 9.237651372779757 8.509179072118176 13.028508855153074
Mo 6.426806374091373 10.142426286766126 10.94387781494789
Mo 9.080809614460513 10.815692133883639 11.88484370315981
Mo 12.12651439029959 10.87312781854715 8.088319323964376
Mo 11.594630245795793 9.613980481398848 11.829196297146245
Mo 14.94435333484902 10.153873725247575 8.33736021470139
Mo 6.7345695449236 9.584361043141811 12.90750560500891
Mo 16.07178004519258 11.124813709501261 10.868059278760553
Mo 9.734336439916412 11.776829601219951 7.30654327983499
Mo 6.715894787723952 12.411789456359632 12.62253975266614
Mo 10.508241722326765 12.150687452192939 10.062299600918728
Mo 10.860753503581465 10.337367371484852 14.267824067406028
Mo 16.2063522194878 11.602537289712396 8.380397459156745
Mo 8.39874418520059 11.309574708300465 14.282371998355169
Mo 14.272605469871678 11.513726773790232 12.826598023788845
Mo 13.848067553523844 12.981187459404685 8.124550663685707
Mo 11.725436400643591 12.371731844701355 12.613188682828712
Mo 8.997331584820198 13.603356131175255 8.17492905527238
Mo 11.858595739825711 13.57859238322154 8.083216596270226
Mo 7.564549803805608 12.813175620521232 10.66186034419366
Mo 10.160386211771213 12.851470528666361 14.749086725181995
Mo 15.1566822711246 13.168440119441904 10.663830081199455
Mo 10.08978608872461 14.520116340373983 10.307794285844016
Mo 9.175432469249612 13.474902880985756 12.600999529063936
Mo 12.961718679210291 11.50765976841672 14.856792717314129
Mo 12.609382353168874 14.098425010009903 10.54009180020991
Mo 11.266029676556336 15.061279861606518 12.771062912730073
Mo 13.927707548425708 13.976614614433805 12.84616214720466
Mo 12.329461252900517 14.251916614127087 14.556909025642792
