37
Energy = -339.41226297 eV
Mo 7.656991479817969 10.2978101390345 10.215901524597381
Mo 7.926912401199033 9.908981421025253 12.321431965372327
Mo 8.628186963297145 8.379242241218032 7.9256458081467684
Mo 9.49620491297952 8.510838464544726 10.53025304897497
Mo 7.499633530541373 11.833277297240038 14.565185277638433
Mo 8.465133687601275 10.960459543460297 6.785350562848744
Mo 9.383209472566685 9.471188036900745 15.163791837965471
Mo 8.081837919044622 12.651805034451641 12.25894305097363
Mo 8.572262148315293 12.72681471634293 9.23208415843954
Mo 11.718541831985258 7.053916147650289 10.661867505610077
Mo 10.518632603929941 7.846036358157282 8.079630423699083
Mo 10.559403081733176 8.833243809780786 12.870139139970714
Mo 10.008038775794487 11.38020405247675 11.291733926286588
Mo 10.464761685890934 11.886071045860573 16.51915366993182
Mo 10.148421597909751 10.432860748856042 8.873040451035703
Mo 10.164144374698674 10.325851602893454 6.11364615738832
Mo 10.078945086228687 11.365044002066062 13.872101953299305
Mo 8.81701602412812 13.412744067907294 14.947838412524973
Mo 12.234827654006518 12.656692888092172 12.238032701905725
Mo 11.590751296125365 9.424667886949923 15.328146203523108
Mo 10.648274551633072 12.594090838495527 7.673368129852727
Mo 10.146178207559261 13.936832209527694 10.171348244069666
Mo 10.089310838445327 13.948394012070988 12.749766701013163
Mo 12.770100054924976 7.9105627521713835 12.837114720989929
Mo 12.295374243010883 12.198959097680778 9.62581057925838
Mo 12.151952819968752 9.814170684431872 10.86193979864226
Mo 11.906686035730589 12.517681128694335 15.443859032930176
Mo 12.472804757773993 9.931490942325144 7.934789924408422
Mo 13.333173052966991 7.8628470560328285 9.650450189635064
Mo 12.774204595282512 10.563017456758022 13.464213235433753
Mo 12.236219305258198 14.784150041731506 8.53990033842813
Mo 12.973745467797249 14.678383801857002 10.344881450974288
Mo 13.367481746585579 12.311477082762327 7.083619546363837
Mo 14.578158339440124 9.506183834843169 11.903611345573935
Mo 14.39508822936446 10.608755251717948 9.217801714755169
Mo 14.510559291711422 11.696167453613581 11.445687025756635
Mo 14.606797623085892 13.047733807079814 8.573997104313175
