37
Energy = -338.55286319 eV
Mo 11.227639262731076 8.25647991203365 14.432085674827533
Mo 13.117083189159983 10.005723809880976 14.921915315999945
Mo 10.183646848094808 10.625061481004586 14.832041520516414
Mo 11.659789039125442 7.4397941936261605 12.300764904113294
Mo 13.86932787665678 9.01939288726816 13.282568765390323
Mo 9.221224349596335 8.615625516889837 13.073034364476124
Mo 11.456843470876844 12.292631798405623 15.103190780892914
Mo 9.378948525449681 7.02332484658144 11.416304876620835
Mo 13.62517112687601 11.925060009214663 13.279787006399292
Mo 8.6599838017019 11.113628481497669 12.6670045554875
Mo 10.898618150962802 7.540794166985826 9.501715808377094
Mo 11.652378626080726 10.571651085023545 12.49616905769192
Mo 12.737965218272162 8.83101700128016 10.592550100071465
Mo 7.165979723747338 9.206535985936153 11.259858189217805
Mo 9.658095925170876 13.219971818188307 13.681792379718166
Mo 9.851549828188737 9.61945803129467 10.43490565101887
Mo 14.447255398196543 10.740603468577952 11.233105756611318
Mo 8.421849208299852 7.887018217161689 8.613389972149422
Mo 6.359840087534057 11.134127311805374 11.374853411792728
Mo 12.166444322517435 11.032872270149971 9.496427198698445
Mo 12.548046894124246 8.712674243458045 7.576823347773564
Mo 15.6945368190145 12.569616787727938 9.784234259319593
Mo 11.74544215766932 13.616922677307713 12.62848938309239
Mo 10.192802780278416 12.510912758706818 10.920829071840162
Mo 9.875432501555382 9.104783347747997 7.5115444946722425
Mo 13.424757884718606 13.10391714236016 10.644079259242726
Mo 7.757843745165445 13.35699830103078 11.604391850831087
Mo 7.683316711172152 10.071062885050932 9.027996241792607
Mo 14.432188358974381 10.254851271330955 8.701494616322679
Mo 7.632441626223725 12.732005445282825 9.337508165436502
Mo 9.671452285333972 11.606283660464577 8.349687110123504
Mo 12.267938178413232 10.593981975459432 6.93520161258387
Mo 14.330670793961513 12.580182777923275 8.142654710312502
Mo 9.528557776325675 15.157066106051785 11.491159296391919
Mo 11.802105771655704 14.955819058148704 10.423894125068848
Mo 11.480576871008287 13.384851265555 8.607456049462186
Mo 9.131072130319366 14.546115268740277 9.277908380816337
