30
Energy = -271.7872339 eV
Mo 13.39331229727789 7.69309460017189 9.06698441074745
Mo 10.627545941967766 10.964932679511245 9.63840595753352
Mo 9.773367826596843 10.923107189808137 6.772647780150097
Mo 9.422222524828047 8.0100995245703 5.866524574679528
Mo 11.279364111594107 13.559863742634342 10.40873339880842
Mo 11.587979572177423 9.84629175636776 12.01812917228535
Mo 10.623366471335697 11.590392615077585 12.439592400422711
Mo 10.096757641284675 6.022854725079003 8.877271665559972
Mo 9.049241170375296 5.870712363732879 6.3651975727425825
Mo 9.373096508431338 8.678974351337144 8.492347304562625
Mo 8.908125599240234 13.798562680168661 12.094810888285895
Mo 7.378992818273787 9.46989438583027 6.831200778627471
Mo 11.32138315540554 7.133037266376073 7.327785371427343
Mo 7.8594690941773875 10.85074526528704 8.61620257324241
Mo 11.841729402631925 9.649796021998297 7.660174095320681
Mo 9.902371604784754 12.917242056420237 7.888479922358499
Mo 7.628000845542493 7.00365242977367 7.7912416780962905
Mo 8.863169937648935 9.721877388394514 11.086262662407655
Mo 12.092158993583203 12.147646887277377 7.937790110523597
Mo 13.297458174856384 9.657687694949722 9.703175077458178
Mo 8.302229035057572 7.168909138035959 10.679914407812916
Mo 11.134127009072827 7.909456361836333 10.178954132678937
Mo 6.653894477854351 8.701957763294246 9.584897492115932
Mo 6.0947886402137845 10.259073540099843 11.177712221107626
Mo 12.819601853690589 12.342401101499 10.571043676926307
Mo 8.335451404272298 12.75328838931169 10.627423294604307
Mo 9.050006805348966 9.308055994550777 13.873882156828838
Mo 9.8383171772556 7.730607544617452 12.681442334906418
Mo 6.973058123202131 8.495991532862712 12.455535994054678
Mo 7.934625069920045 11.275006297028389 12.741450181625657
