31
Energy = -277.37911297 eV
Mo 8.397217314519104 11.866699121324967 12.02732974217856
Mo 12.925273678544318 11.353176155530688 15.375325502684634
Mo 9.534688144639453 16.508127679652844 11.21697441500359
Mo 12.629896086803479 14.235763152543928 10.552330125656171
Mo 8.911998381063436 14.536304771722222 13.387980133432054
Mo 14.98106592843896 9.603919870384031 12.646082856706558
Mo 14.354940460347379 13.689436898381697 15.364133450441281
Mo 11.473305787949743 10.839740554050143 13.47321172943266
Mo 17.279008863238047 12.996687059929545 12.903585327075799
Mo 8.702703188419893 11.72108053956549 9.92098155410294
Mo 8.805287856885089 14.410924308527179 10.535356151812277
Mo 18.19531995467492 13.171123660566886 15.491608164624704
Mo 10.717136243503381 16.08552881203389 9.337233948408803
Mo 11.303080632578528 15.405223864787395 12.907799692205831
Mo 14.344006409769856 14.564973250442117 12.328208492064354
Mo 15.02962400726262 12.021582177562369 13.551828748762336
Mo 9.947093279828614 13.22197620843808 14.338337259878024
Mo 13.40392855145228 11.76525270370555 11.513259046076248
Mo 12.655228963683996 8.815168370698467 13.92223773130939
Mo 15.884048748377698 11.57074173016039 16.093354498718153
Mo 17.265473228134745 10.989008697305731 14.339372494609698
Mo 14.574183281903254 9.663144604703783 15.0946130695305
Mo 12.583280982206608 13.444588041533908 13.566762982573975
Mo 10.668219637838758 12.922013692792616 11.697647826355622
Mo 10.233859902345793 10.180802401322863 11.245461916999176
Mo 11.715542705698526 11.268629829397396 9.817642874968392
Mo 12.457679912338547 16.477977738287994 11.005267750811125
Mo 10.599290000312592 13.588774021781667 9.096320893986917
Mo 12.89806172098369 9.346473427512684 11.592707720178637
Mo 16.787866844502958 13.9673847280765 16.60840807362107
Mo 16.21575673400947 14.638681033908021 14.016848103638292
