36
Energy = -327.93906113 eV
Mo 14.880131949499459 13.1497535428267 11.341906429884254
Mo 11.830883867906905 11.426074317964819 13.950096928725754
Mo 11.878262670303544 9.954561718145532 16.07278167854995
Mo 9.461342293139362 13.650230076888601 8.661901400253836
Mo 14.033408589528012 10.80087768958892 12.32615232331913
Mo 13.612672853795527 13.461701359608275 13.568986094543625
Mo 8.130041736885094 11.6726466714551 10.60170438560131
Mo 12.038680072697723 12.570101585622098 11.603453159252766
Mo 9.371205821319148 9.082779602880235 10.695127959836759
Mo 11.915286418772366 9.455465613229196 8.772097229871395
Mo 6.700805892367192 13.243113442022615 8.87945299274655
Mo 9.920614869971333 14.016660178793328 11.206424016108157
Mo 12.680208225099136 8.86280581865228 14.689753311789804
Mo 14.13554848989482 11.120428772322269 14.851596384966479
Mo 16.3859008857964 11.883965054594016 13.458125227154222
Mo 12.76277641056213 14.833839253908339 11.02222605437911
Mo 12.497166771351182 16.096557603058958 13.471845006477237
Mo 14.47291253605827 13.768505022690183 9.106272277921516
Mo 10.825356380929838 15.481040926797183 9.342449361679886
Mo 10.399293883743528 11.466357643448982 9.8216344917626
Mo 12.207217926691095 13.48415675254534 8.824284190915565
Mo 16.618773160783498 11.221015195952559 11.672993401820982
Mo 9.937178573273863 9.646063866996933 13.515186904717847
Mo 10.80251710537392 14.08041357380209 13.712880834803032
Mo 11.973258486484376 13.29618955333322 15.907112482623296
Mo 7.844892013124191 9.491776667897703 12.007662172918376
Mo 15.442524100294804 8.927653657755883 13.29850138458232
Mo 11.680226341433016 9.607983886889109 11.69372068481988
Mo 7.384274696471633 14.396593116232847 10.18607289053996
Mo 13.947962947350634 7.889066395680333 12.45246297635621
Mo 12.304748781527243 7.765911754559029 9.99510386325868
Mo 10.966086585486794 16.43525744891607 12.360066884875499
Mo 10.16752489016625 12.4357551199376 15.669672822854588
Mo 13.445408945796103 11.326624833646996 9.624240119557088
Mo 9.550659780752019 11.848786710445145 12.628987173079452
Mo 14.3158030993396 9.121309583006802 10.308082232811998
