31
Energy = -279.20794587 eV
Mo 11.239269923874755 18.304536857028733 11.745556424926072
Mo 10.455573323631654 15.44055824575733 11.886014339446051
Mo 12.00111859028861 10.03922378336456 16.23589078859671
Mo 13.813161666003968 10.73763134874764 14.748469669544921
Mo 11.078725075503382 18.470221950081058 13.568524840949243
Mo 15.48099390205686 12.284016425742118 13.274810836220208
Mo 10.105877424191865 9.573746953418736 14.402334907058277
Mo 14.144396051003348 14.694362692572865 12.582620853762581
Mo 14.158324762092178 10.02467608183441 11.999785924687124
Mo 14.336764379170111 15.91022291170946 15.173096275630298
Mo 13.624722659951097 13.461761989750887 15.020952713781426
Mo 13.914682170726989 17.56688308983032 12.590951841292151
Mo 13.40194253329918 11.981502450586287 17.058391391309083
Mo 11.236022186610585 10.067380480928938 11.82575952195779
Mo 15.906923554315059 12.125273847632155 16.2585753593232
Mo 14.640510954305165 12.235747952322338 11.046216157495344
Mo 10.36365521670109 12.735452186693275 10.909183219352263
Mo 15.343525595065099 13.912294927028228 17.070167720156
Mo 12.575536949676998 11.774868812055585 12.733830250788245
Mo 15.641018075352067 16.43949800488059 10.680815441162423
Mo 11.265969988567765 12.003807743947364 15.439149719794688
Mo 12.460717316972952 8.979531692906011 13.452940903961114
Mo 15.18232405564482 14.697695197216811 9.949199401036827
Mo 12.220657598189874 13.552454039308047 10.686844111030975
Mo 12.92938153346656 16.196011967949275 10.897328212713441
Mo 16.498683644672766 14.308465068527232 14.748669375457602
Mo 12.293972574378213 16.129569446035184 13.656044721220455
Mo 16.621541570701446 14.12908637862302 12.238081713373226
Mo 11.06711735765748 13.908465267409252 13.293157699711639
Mo 9.755580996852524 11.467229418388788 13.473373930542557
Mo 16.028354295898087 16.374983618250834 13.593023454155015
