34
Energy = -310.77939487 eV
Mo 7.813418775522325 5.725196590659479 10.180544913775213
Mo 9.646267214286246 5.527468557381449 9.869306185377921
Mo 9.137310679310772 7.188216447437895 12.283122562975437
Mo 8.341585260690037 6.976539647145894 7.526963134377856
Mo 7.472734641703648 8.19070334383195 11.637153910243192
Mo 6.582788399439192 7.737667830354991 8.58049571757331
Mo 7.069821079876564 10.31542538005177 10.072743929139937
Mo 9.416106319389163 9.59455998620526 14.200313078549215
Mo 9.127022133639764 8.303697970729878 9.538432031343591
Mo 11.564566593173875 7.518073750170496 10.725351229138257
Mo 11.151605621482357 8.623023420241035 13.251674494119984
Mo 10.076819247341428 9.28898328576784 6.833617320332043
Mo 7.9432041390686035 10.726844011450781 12.66899267300192
Mo 9.901660591636347 9.989013186533924 11.489594366863471
Mo 11.294403937500725 7.35329305996928 8.371150235547283
Mo 7.515813250388238 9.664452846806823 7.690520267973002
Mo 9.473884080489158 11.136511556402418 8.894964562907365
Mo 7.354408768207745 12.389494327671464 8.967842891382421
Mo 11.657886354707609 9.790254378908118 9.102253105650268
Mo 9.99101559569389 11.626071928270619 6.490439206301517
Mo 11.656194111976719 11.357862696952038 13.615119215583414
Mo 9.979437778848707 12.456854868489344 13.14830138416773
Mo 13.01842779754228 9.92537597374004 11.55931548740995
Mo 13.62797018679828 8.342481856039573 9.941988893373814
Mo 8.458430472409203 12.830477734800132 10.905194681723291
Mo 12.327769702020364 10.212462136559104 6.82474544889801
Mo 11.398714860467548 12.15843786477458 10.86566090669673
Mo 9.92040525602571 13.818032387005688 9.120021823813804
Mo 12.59072162162394 13.914574628249266 12.915643916202896
Mo 13.876595961356387 12.748279536614298 12.147745484288022
Mo 13.617246120787147 11.367908996752222 9.813332489886552
Mo 10.750149432941994 14.818287700927202 11.053347102930006
Mo 11.77944828756502 12.349619685892359 7.873287768295068
Mo 12.573944027273017 14.2644198656036 9.952199825386932
