31
Energy = -281.40534436 eV
Mo 13.296764965939861 8.739345396603575 8.084182659775871
Mo 12.99519762251056 15.728486718012347 14.78378859925859
Mo 16.766386980949523 14.721437111162036 11.771320299494974
Mo 12.92561981976191 10.446624901522936 7.735964374970917
Mo 12.872956855110106 10.371989757616946 15.29283797877492
Mo 12.269609542745464 12.903140416628961 14.536674015519846
Mo 9.85003245500919 13.827906054849164 15.643853835156525
Mo 12.013125039399794 14.360596102778018 16.64113126903951
Mo 13.210741935679366 14.949064618252578 10.164370488101005
Mo 14.272227934606947 14.238011458347067 12.713893300372408
Mo 12.44147744590799 12.498165520262281 9.732758316568292
Mo 13.941711949823556 9.713019336446461 13.111739931051261
Mo 10.114709406391498 11.059493619317614 15.640289130563666
Mo 14.827794347009565 13.154871494444375 10.188222644216227
Mo 11.665363925845881 14.128542604338334 11.88570495817744
Mo 16.881090224496813 14.117998001150983 13.624212895772361
Mo 15.826110413495833 11.999051951184692 11.975861917506489
Mo 12.699212182371799 16.557381139270323 12.496971499249447
Mo 14.914140709754507 11.731477741011835 14.135273955985502
Mo 14.725866854251112 16.654855087440374 11.46078347097821
Mo 11.321764819152762 11.635094545266588 17.0089205020597
Mo 14.305290082594476 10.21634098262666 10.343720586585295
Mo 10.183679696359473 11.84029476963874 11.28608863169667
Mo 12.278342673103811 9.841773798954947 10.531512721642457
Mo 13.996685156980485 12.631616988333763 16.772038602170372
Mo 13.03875963497426 11.93578967330506 12.12273301096868
Mo 15.304878723683467 16.359742125709012 13.690974266174933
Mo 14.811107875149398 14.07691212560896 15.650864835956288
Mo 10.582532891034505 15.175775408502314 14.199532155823466
Mo 11.48776999828464 10.302058941911923 13.352773139021782
Mo 9.726523452188562 12.500946926478852 12.993364607788205
