39
Energy = -358.21268873 eV
Mo 13.223848713343685 15.395167955865713 7.871815333028873
Mo 11.524074500357587 15.844914073817815 9.803937424250488
Mo 13.48549993764649 15.120278214601964 10.87917377310364
Mo 12.007194308905873 13.9019205069759 7.612724370344211
Mo 10.78528614201349 15.028357236846354 12.281981191071521
Mo 14.375706184275874 13.46692463464388 9.16137485102052
Mo 9.866805357628984 14.093942086059235 9.488730991325045
Mo 11.967889265564242 13.0933477502237 10.502052688457761
Mo 12.916074735154789 14.254368691667482 13.272311655770466
Mo 16.398004043734336 12.77033296806535 10.520823767032864
Mo 10.460241835123474 11.605099719765445 8.698076421876957
Mo 14.359075216933865 12.610614981354445 12.013400948933766
Mo 13.0665542611751 11.339396460075216 8.713902970780852
Mo 8.200020893417504 12.095522928906192 9.500763073074586
Mo 10.182299767982895 13.903701427658074 14.466324392147607
Mo 9.253852083456536 13.233811781207605 11.786564635319435
Mo 15.452455061928665 10.947942020038813 9.819914357202727
Mo 11.453253622965898 12.163617654840271 12.93228600912676
Mo 10.029749263977536 10.669429686127005 11.10360869541855
Mo 12.270918244798763 12.887210419748499 15.58528390412519
Mo 6.870401769657789 10.072474988011292 9.43437547556599
Mo 14.11473339946633 8.50400162887396 9.078132687283205
Mo 7.384477768432567 11.081504557657812 11.994689618295611
Mo 15.209406267219665 8.225744207001858 10.568516137277056
Mo 8.766008207675863 11.927051077043801 14.135047809507705
Mo 13.108651546279164 10.401404476189818 11.20270889140146
Mo 11.504178349598957 9.292414460814584 9.45069292999911
Mo 9.323646544803278 9.531888613208178 13.562964740954486
Mo 13.557353358630666 11.255334095607873 14.032867177146223
Mo 15.750269552553231 10.339487494020545 12.443353750545986
Mo 10.928123005954234 11.186285816251823 15.38482762598207
Mo 8.705450772680052 9.36438402368309 8.927170227735346
Mo 6.793577788330598 9.767554003881154 14.549314909101092
Mo 14.557848016708887 8.912715235186939 13.303579493869204
Mo 12.51909974417441 7.828273171730024 11.421356837232052
Mo 11.796187348674486 9.310010425378467 13.312489815184302
Mo 10.226247269239645 7.998449197866203 11.324955856492641
Mo 7.809324444580093 8.92205989292582 11.682805670267644
Mo 8.033502587129394 10.037581358127014 15.909917197856014
