48
Energy = -445.7539667 eV
Mo 9.127640432192312 7.247756866871317 13.461213963113337
Mo 10.925389005973386 8.548644333904628 14.82106267022056
Mo 8.750942914904432 12.913066068036176 15.394786677411263
Mo 8.986014509188708 10.097273088545759 14.41267405693269
Mo 13.93439636783393 9.172572286471942 14.140785228204175
Mo 7.2033989527751245 11.671476041835792 13.620264591841416
Mo 10.597128737648566 11.478425561355934 15.727273986960933
Mo 10.096962253482998 6.319617663507836 11.727880604259921
Mo 8.543243792345596 7.749749248826238 10.528862761872443
Mo 7.48718942968917 9.127898675953231 12.347620047177292
Mo 9.795342031077208 14.926607582756485 14.205651241032474
Mo 12.036261501134536 7.7699110017677 12.9313908948452
Mo 10.095061509457963 9.313337156526686 11.998329424899069
Mo 8.10643437434484 13.980310394072047 12.86843885105581
Mo 13.3244621935481 11.107390044010659 15.893586707666932
Mo 9.945069908044516 12.28439017460672 13.047680263671872
Mo 5.829205575017427 12.821962095609367 11.547031101732006
Mo 12.024172810329361 10.553427384167483 13.53420152491275
Mo 13.930279257423718 7.776062987119295 9.269449578493754
Mo 14.363425847037767 12.076626231938764 14.480026162133644
Mo 11.568315007846135 7.707677557977922 10.133355827423046
Mo 14.311201400002904 8.033649310673328 11.387109816911867
Mo 7.2588254811617015 9.738160820129306 9.549464294619122
Mo 5.466696526755275 10.938149985593505 11.472934361961823
Mo 8.244406011249145 11.324692636328985 11.134908636252513
Mo 14.763019212213777 10.568065049261035 12.380901090249372
Mo 12.62055511388895 9.886870038263462 10.802585636561778
Mo 6.734254380905577 12.160939665569256 8.944070055281694
Mo 9.836703052001525 9.717744055233803 9.264906670856954
Mo 14.968653198402903 10.25542622803819 9.619438627653913
Mo 11.761024208277503 13.258601033562798 14.551362946270421
Mo 12.439893102580289 9.729470190799073 8.10679881728022
Mo 10.884179195020446 11.88814355895898 10.435011838747563
Mo 10.826597773253148 14.495987096274792 11.899477858159871
Mo 8.633119873015643 12.00417112779401 8.306057597680828
Mo 8.80221845252574 13.811870584091663 10.40052714350453
Mo 12.872886445429309 12.631311989812215 12.078800210906145
Mo 14.468416509784273 9.761859413661629 7.025375528873249
Mo 13.201286484910646 12.274078376441873 9.114777729203839
Mo 15.305535060092941 12.448978044916663 10.818032977875472
Mo 11.234923871813205 11.925690982950039 7.657539970862878
Mo 10.761025480271485 14.122850696919043 8.950637347801319
Mo 12.867309471580446 14.405698555099935 10.29524831185813
Mo 15.619777458309809 12.219466741005837 7.906856075905627
Mo 13.552854825295682 11.746508043621537 6.360349709169062
Mo 12.869320123262714 14.484864116226051 7.045827497986304
Mo 15.320903961050238 14.06278598395943 8.983084140874459
Mo 14.47320573627774 14.345588630644041 6.20851024886476
