44
Energy = -407.37769981 eV
Mo 8.401973334085154 9.878179139321295 6.9928127416900745
Mo 7.4555583728024155 6.94247388699644 7.404374959552505
Mo 9.87775446241889 7.570380691423288 7.034789566501288
Mo 10.906895171376815 9.72553100543725 7.587554972800564
Mo 6.146596428980764 9.390960816034543 7.8507656368221514
Mo 10.038316475742963 12.187588247064955 6.488372125499452
Mo 12.014359335692433 11.871232223939295 8.559037032138152
Mo 7.169792340017874 12.393208171536353 7.357309590841663
Mo 13.061346793707589 8.922058874223207 8.500370396347197
Mo 8.590668075772024 8.898086031423569 9.22395792478623
Mo 10.88078512175889 7.332050115409885 9.23225671766915
Mo 12.139457594943012 14.175545164526923 9.56999242400576
Mo 10.272505507409035 13.783699322650241 7.577427432861528
Mo 6.290902939103699 7.954040697525725 9.852060336460468
Mo 14.595124060894573 12.594739121745842 9.23869094518215
Mo 8.284317586441738 6.204581168168231 9.108267923528024
Mo 7.2484941803052365 13.659438745288275 8.702903353564542
Mo 11.015827464382147 9.603614064051511 10.295507680109806
Mo 6.7067767274008725 10.85772338506689 9.645986930464828
Mo 11.311856959237224 12.353883692009655 11.173164239435643
Mo 15.637242013662977 9.696131299772766 9.492918918076061
Mo 9.294542094529557 11.740125021523864 9.171868521861786
Mo 15.52773770971571 12.284844928615515 10.908689350345817
Mo 13.347657754639059 10.61400510739694 10.742984635155999
Mo 8.996838219808577 7.738606300558555 11.659677831080625
Mo 15.764388688808522 9.359352617212512 11.35279005199402
Mo 13.437258764079804 13.983585127445572 11.63006237832214
Mo 9.549617573768826 13.986987046821655 10.373271748149186
Mo 13.459719243784253 7.950022598806428 10.535714773782248
Mo 9.009836070403592 10.53948190462284 11.632985909603285
Mo 11.501920138826067 14.898363480478082 12.398662032480429
Mo 6.906556925226663 9.288861832711243 11.687843553045637
Mo 7.672423049090727 12.627352533036635 11.416501056397061
Mo 11.24637779729071 10.57659803232227 13.14910157297071
Mo 13.866664790644515 11.700342230332458 13.088543362350224
Mo 11.82789391616472 13.094719022071729 13.896206107144618
Mo 11.659480950705126 7.970774099641574 12.257650755649497
Mo 9.415580752657917 12.941818738500537 13.082057374556243
Mo 13.61814599157599 9.224647125034446 13.237602496834006
Mo 9.515662838524339 8.580657905660525 13.635600398884279
Mo 8.303942555858724 11.027904233267337 14.25302419337297
Mo 10.026762799159458 11.132484978229495 15.346256936529127
Mo 12.883176501113477 10.808601815769254 15.442563642420318
Mo 12.126409641707445 8.939863170542958 15.21696518295093
