46
Energy = -425.6360304 eV
Mo 10.31724835657576 12.280030879882592 4.548066654914363
Mo 7.917624687434691 8.14810537806481 5.803770197063204
Mo 7.714442722390274 13.021056615020617 5.402229483636362
Mo 10.279383150006025 8.98908543351576 5.126667247109161
Mo 5.768971276443194 10.137391451573324 5.672271516923779
Mo 11.384862511074372 11.801971193650663 5.991185083395121
Mo 8.686964534022394 10.752420721381554 6.068316832808655
Mo 9.113622705344879 13.426791006509328 7.032644439986506
Mo 10.879872491808424 6.48932871579247 6.451571958819795
Mo 12.708427621856572 7.0454155046121265 6.192195349814694
Mo 6.019364602154447 7.819690908450944 7.391808735508828
Mo 12.46056749845417 6.478881063758571 8.979235762491188
Mo 8.004484281814491 5.774505749485006 7.133349502026121
Mo 6.466423189034109 12.400911160561078 7.292319796675288
Mo 9.827796363192986 5.930662289645915 9.081533937386121
Mo 11.610805677329134 9.217263080261676 7.094702226245471
Mo 4.648443057874056 10.278696374636006 7.283214207450022
Mo 7.232411898755561 10.004233223463348 8.061993537096116
Mo 10.857106744671228 13.174452526199746 9.411003427140974
Mo 9.9943953690057 11.118990677288954 8.36564856720223
Mo 9.318602801504435 8.329043532879437 7.806474030823822
Mo 5.423197971247556 9.269129832943934 10.049308472546759
Mo 12.719624455546695 11.008722684716554 9.049468316886546
Mo 6.140920306618922 5.270675683473358 8.05449664402323
Mo 13.46879300675664 8.139392394164272 9.122728343294177
Mo 7.047989441296026 8.912237214707707 12.139969749875211
Mo 7.362436485831016 7.377261175093764 9.588543707441469
Mo 10.976507557245078 8.772871256511127 9.835288378693626
Mo 10.711983665231644 11.314713178179726 11.061350498686418
Mo 8.551789862498818 9.809144547336416 10.313909580341518
Mo 13.118682728669068 12.1880361390355 10.574729163033469
Mo 6.586519842639287 6.60595160481631 11.772605413361882
Mo 9.265073208794881 7.335733816783524 11.375407870659595
Mo 8.099971020170226 12.521189829372988 9.300119649761914
Mo 12.687108475871609 9.386380301058889 11.694997696870322
Mo 7.785352388424903 4.894923115661511 9.910927966852443
Mo 9.233853311397684 13.582487387664735 11.336760655879644
Mo 5.863515256083091 11.202240242997519 10.276129163090738
Mo 12.041765072149168 7.425881043209018 11.874719111985165
Mo 10.344331557928161 4.963805237179609 11.422253611318867
Mo 8.519161495464934 4.871999354823063 12.482211887240618
Mo 10.03680205283983 9.445709171556478 12.883823473435745
Mo 8.443299004730768 7.403220073142575 14.071464134604987
Mo 10.085023821903025 11.30096171708143 13.645047787213947
Mo 8.108082391452006 11.750086002311688 12.022964223132576
Mo 10.15941675831839 6.621342189399059 13.943594685106971
