43
Energy = -397.35800588 eV
Mo 11.61731512042995 12.749534959815266 6.342005719299717
Mo 10.99449362433333 10.1454846412598 5.807369631888572
Mo 9.648183091302666 12.558600458525216 7.092790619660247
Mo 10.919927870780931 13.88309550025898 8.9178169149283
Mo 8.292238941740209 13.515749605737058 9.50163593804389
Mo 13.235718389963498 13.550735077809918 8.181250248395909
Mo 9.513963570135214 9.649574893208195 7.083009410834434
Mo 11.038200708355562 15.491214964606227 10.948199190753002
Mo 8.325432166237453 14.122239773859826 11.493269420218716
Mo 11.638489720695464 11.08353435304312 8.409368489258409
Mo 12.951866956814035 15.385111779360841 10.264420972143679
Mo 12.2235013654256 8.741840117382658 7.544126169183568
Mo 9.19880376230174 11.02763127402764 9.501335579270183
Mo 15.152459122827366 11.621068040761942 8.395358668187805
Mo 10.526333746477091 8.45274443279472 9.224789831067715
Mo 7.773774619959003 8.94372806695845 9.50624519655834
Mo 7.813062429675378 11.6192209119827 11.57624695951182
Mo 10.506662567221081 12.60270224520455 11.141599997813048
Mo 13.055588587248225 12.398642035352175 10.30859881905685
Mo 10.596875888451164 13.863501522177154 13.283317857158
Mo 14.00221312221818 10.9341998929508 6.962250718212347
Mo 13.71261071566996 9.700912309328997 9.491557039908033
Mo 12.567672607545063 7.438631208177845 10.309205789886175
Mo 8.174328094978208 12.951644667279675 13.941976384635458
Mo 11.574474658408395 9.963223251408253 11.164687325099301
Mo 8.696342328992133 8.941400075159322 11.316911531437428
Mo 7.515594316158427 9.924164438552435 13.866308181132387
Mo 13.000078806790626 13.937646917592827 12.383536993461732
Mo 9.76031736346648 10.896924902271717 13.18199873303145
Mo 11.238321481944553 7.576561937406553 11.951831954048924
Mo 12.931397031567327 13.67511606852454 15.145608683543589
Mo 14.758078881200522 10.845978980168251 11.49954611752471
Mo 12.505064197431349 11.557532513332788 13.152554936601797
Mo 13.797071514082711 9.008383634000895 12.440980962334715
Mo 10.692585840591297 12.10738956438837 15.183065285747904
Mo 8.18097717024112 11.501548062443414 15.601445575409814
Mo 9.13066253917578 8.164877502834846 13.940103532220121
Mo 11.784913756264979 9.253308228594666 14.187274293185911
Mo 15.03642971743606 12.598634590758016 13.539662274497152
Mo 14.604885924714326 12.72970587993876 15.941102035805637
Mo 14.552249674493632 10.38157032913503 14.4341738376824
Mo 9.831769965065096 9.409126207037266 15.633134068839729
Mo 12.757451046737078 10.880100194308502 15.955582187813896
