45
Energy = -416.84586606 eV
Mo 12.695770411934141 11.824539788352208 10.031642287735405
Mo 14.0036289244162 12.0358142639971 7.87101968419242
Mo 8.611446315695321 12.478251435783251 13.950700264019973
Mo 13.861588082162603 11.95096314712677 14.669493820279449
Mo 13.68080486117914 7.3896002905871425 12.869021383972841
Mo 9.418793960549356 7.3490516743411565 9.412274146121607
Mo 15.067756670971946 11.488698940610318 11.800488983678363
Mo 11.013730220831784 13.953415301322446 8.19970225048474
Mo 9.448143704182119 14.289335987358099 12.264657012515578
Mo 6.950098262356656 11.857887758909609 10.445652141040242
Mo 8.125020823127894 9.990687705240232 9.258825340403511
Mo 11.13148657399785 11.534461066231565 7.642887346273797
Mo 9.561143268431703 12.455696219677451 9.801149017532751
Mo 11.8758043135972 6.466884228847163 13.360106891830087
Mo 9.77908346675588 13.295513512490658 6.184782663051635
Mo 12.815272675320351 10.227062503262012 12.638314671678902
Mo 14.631139175080113 13.86258578244682 10.298443313084936
Mo 8.329737121867373 13.832718660270057 7.795384897231347
Mo 11.334340665591842 13.881256125936824 14.230199665175384
Mo 8.51473667627026 11.384827604360124 7.398044345563522
Mo 10.405318826889626 9.03222208773052 13.091106826747923
Mo 12.805787848832324 10.613106989857751 16.294862260359064
Mo 8.435079481983529 9.671571672914459 14.534227545727346
Mo 14.707543010828823 9.78857111995282 14.520926275104793
Mo 7.698291961054113 14.45837811131604 10.365705486581543
Mo 11.524092540111461 7.656795789098661 11.204452159950678
Mo 13.59779130478576 14.546408891678386 8.83456283218372
Mo 11.122509948407519 11.188159339483457 14.725157852214704
Mo 13.0717823174734 13.208071701380648 12.601925081104786
Mo 12.925153573492175 9.43294764659887 7.931867838029602
Mo 7.017365381756777 12.972896478040866 12.83305024768894
Mo 10.132109742227717 9.299098683117519 7.653276840103425
Mo 12.32278841644985 8.639571673920207 14.742335749656753
Mo 12.270038123516114 7.717125166133168 8.590979225927114
Mo 8.475334758505555 10.748877528827316 11.883591398826802
Mo 10.733864041572618 9.901804894446004 10.05032036554652
Mo 11.77849102825208 14.301146446763958 10.821981343090398
Mo 9.460404351149839 15.433797002309117 9.80976148090497
Mo 9.84011125430649 9.28962515146089 15.863394264667626
Mo 11.541776736061605 15.593078133451568 12.959781083636907
Mo 10.726242965686614 11.980558525018944 12.112911314938625
Mo 8.732052151412352 7.986168694604823 11.114538244479178
Mo 15.598147914150548 9.465890680362735 12.20212032694334
Mo 15.229815908665834 10.978468939776123 9.203268968696813
Mo 13.616554800638566 9.164381217133153 10.549079423552561
