44
Energy = -407.68309023 eV
Mo 12.064830483908985 12.317823724923057 6.888617470757719
Mo 12.517239256983261 9.674340632260737 7.3257398450992355
Mo 13.455750623458801 12.291255460868179 8.411321849848278
Mo 11.197320991878911 16.06704953452089 10.946285653979714
Mo 9.726119122259435 10.240585202203935 6.465744116070631
Mo 9.471240845546303 13.01197187089716 8.179211264728304
Mo 13.706997304425052 9.85479451452283 9.530904555078246
Mo 13.628390088045046 14.270350893397177 11.085581313417586
Mo 11.371463699557594 13.859069135020393 9.28910065014147
Mo 14.925615847992445 11.263992887445562 11.21667058931393
Mo 11.037590006829745 7.618755296960232 6.007591642000011
Mo 10.962238578274897 10.9626716088877 8.915726845753886
Mo 9.393308496764677 15.234029553788309 10.457172647576652
Mo 13.259661558319534 15.31173092639422 12.664428563616585
Mo 12.460077848373182 7.515657682520971 8.616372822404797
Mo 12.299891833011838 11.715724798425004 10.901293638925202
Mo 8.243733896562619 10.850846856151776 8.337423380255505
Mo 9.125504059761273 12.477775638123637 10.644312590315039
Mo 11.0727242003521 13.676110280729166 12.179703478156098
Mo 8.435081325791073 8.517288151537864 6.5729349355497275
Mo 10.455805135288871 6.170498873282103 7.072882381150524
Mo 13.341350881562555 12.494262599552929 13.262588589426684
Mo 9.70722545273047 15.577059855595813 13.341821696612069
Mo 8.101940848965224 6.696919744546109 8.792223306785788
Mo 12.056855385551586 13.791959068158732 14.696692963262421
Mo 11.565748160158384 8.744754211541284 11.025935374043131
Mo 10.848432094684405 6.141862708078949 10.058600702109683
Mo 13.706112471997137 9.840148191637894 12.440600103253924
Mo 6.7656731998411495 11.200101685851951 11.135654422420188
Mo 8.373831778534223 14.140250504659075 12.838756784817916
Mo 10.798729947689026 10.874611942699797 12.799254387077548
Mo 10.12164132015274 8.46193823944674 8.628844693537097
Mo 13.661481041872825 7.67572574072088 11.131264326189076
Mo 11.912554784998857 11.034935789842326 14.900914759702331
Mo 9.178242970782525 9.988311103144966 10.830850407370937
Mo 7.278089175660968 8.796199292693277 9.276188543559586
Mo 9.853003727455697 12.771337732460577 14.435503523590043
Mo 11.785812794612587 8.485704822007941 13.846598869600435
Mo 11.456128179995348 6.580440748698045 12.399572601985861
Mo 6.98231157337689 9.2235902758166 11.943555408808871
Mo 8.16145906062415 11.116130154311957 13.414270863324717
Mo 8.95619421077137 7.159795679231039 10.960723866725967
Mo 9.514665138387539 10.131274899524911 15.182962304099382
Mo 9.491007707669162 8.531837766967215 13.265605418269026
