40
Energy = -369.04657767 eV
Mo 13.39251344929783 16.103400868359273 10.81236543428266
Mo 10.816656438379503 16.981962485893565 10.422146684603371
Mo 12.30878420436922 14.934263579088539 8.720133875560158
Mo 14.279064343297062 13.881215777088201 11.996113693578108
Mo 13.933416566195064 13.306683066030159 9.568224725935817
Mo 9.730522422751461 15.737760602278257 9.535196787159398
Mo 12.570242347385278 15.916023181185551 12.632112055517517
Mo 11.619279559064097 13.803846623885786 11.013409187948916
Mo 12.799644351505954 12.27989345378443 7.691149519052134
Mo 9.873164449578905 15.199048745979995 12.324211533599607
Mo 15.263573984454275 11.936197758348756 13.989803735049158
Mo 14.523134791284033 10.535939882596905 8.661316154126398
Mo 14.72935135831929 11.359780086726069 11.196714666318048
Mo 10.62060897529528 13.077783582369905 8.678457689171177
Mo 14.168236172200015 13.908570790905149 14.459398256194707
Mo 8.913151920425141 13.411818151122013 10.815121833403348
Mo 11.243691747090773 13.55197898570671 13.923614712237248
Mo 12.334587817825078 9.383694104191068 7.3282160576513515
Mo 12.06243720141777 11.278017041025425 10.027319934027544
Mo 12.867331691658421 11.798428425563213 12.798693286187476
Mo 10.063805783529428 11.634685012521405 12.32836636583423
Mo 12.915209930607917 12.394462275260897 15.661744527819046
Mo 10.7670420418256 10.442252056002246 7.377436301434013
Mo 9.622138487766074 12.26639094104006 15.191796430917485
Mo 8.458002896689901 13.34160127375172 13.382498517835739
Mo 13.732836410360639 9.02659317776477 9.875871422819229
Mo 9.41891357995503 11.052196612419175 9.807384462268532
Mo 14.181081191402257 9.240238249715182 12.520949297092576
Mo 13.68255318554202 10.229907713192263 14.749598846598195
Mo 7.226278813820842 11.216879145137234 11.92778239409893
Mo 11.711865415774591 9.358229543662857 12.113092223339427
Mo 11.106970414976399 10.459637444633278 14.590918123114283
Mo 7.791953601403437 10.595471143620644 13.770055545612626
Mo 11.005976586383426 8.791676625724035 9.711372886972669
Mo 8.86857312825951 9.308177619765438 11.505287552305658
Mo 12.353735324651327 6.887577672540926 11.311358592346364
Mo 12.36484335232792 7.6855430989910225 14.434225525648534
Mo 9.774160203414144 8.587402293949772 13.719301337101028
Mo 10.338488121501635 6.902200230504476 11.35686785692166
Mo 11.194659642731692 6.315914906755028 13.928142847097574
