40
Energy = -367.58620238 eV
Mo 14.914577904801584 8.704400783181319 7.930028763564562
Mo 15.318618226420702 7.819994802928889 9.532043406631521
Mo 12.321398905546646 9.629866149167317 7.3400986643106
Mo 11.769127701353456 11.707782748808999 6.398744016531732
Mo 13.779443972740452 11.409996891629552 8.058157092583054
Mo 14.386974419756012 10.28304154894002 10.194339989941305
Mo 12.648253828888036 8.027046710227623 9.543840910835305
Mo 10.128405253522802 8.567242612887975 8.93378636396062
Mo 15.150757612122618 8.455822625035733 12.53572888172295
Mo 9.953590255578726 11.094917308746098 7.7315505974113155
Mo 11.786005260622806 13.042914328153325 8.963823258299483
Mo 14.008480740700522 7.098012429750104 12.129750412925135
Mo 11.794741319192498 10.59013189403132 9.79494027005601
Mo 11.141349473193918 7.351844049333384 11.358330852801718
Mo 13.61280350301251 12.676672985081753 10.814512263727782
Mo 8.84089333871281 7.353458690119202 10.373935310979803
Mo 8.138490380509493 10.27300941392323 9.340232417863575
Mo 9.647634398287648 13.572943895758991 7.617426794856667
Mo 14.37234608789082 11.296242203558188 12.682677068951502
Mo 12.565997394974724 9.40076104881484 12.196258029728133
Mo 9.698528513493605 9.76098514539725 11.549655844142269
Mo 7.148945147159915 9.147409575740761 11.256164309444724
Mo 9.624761851841036 15.07439090658007 9.291109876766628
Mo 5.4659360722498 11.292487174878454 10.211203429057479
Mo 11.561999424696266 12.022742770844808 12.13397445785989
Mo 13.210405194653259 14.263179858228957 12.901650986564265
Mo 9.585869063812742 12.380743741747162 10.282606357126518
Mo 7.560492462916478 12.921940808092181 9.080466952043633
Mo 8.886860092116178 7.51027126418306 13.037558380280224
Mo 11.132673469468 14.44471754958775 11.2993252754113
Mo 10.640886511635335 8.81896359835657 13.868585033329726
Mo 12.300351992199394 10.898395928508982 14.527720836818984
Mo 7.945628879565249 14.442726839521884 10.996788683033234
Mo 13.816895847153674 12.418452126054433 14.75077126215485
Mo 7.596611076849601 11.668364851848283 12.005753125934493
Mo 9.707280181694795 11.131329748834839 13.906874513512236
Mo 11.577467861856979 13.744724941583533 14.152389930023702
Mo 5.487187452132361 13.011613111167618 10.947735349623784
Mo 9.156531914932433 13.382433480930436 12.836666286254683
Mo 7.774602815560307 9.474138691115911 13.627348869090715
