44
Energy = -406.03903611 eV
Mo 8.98408459860666 8.54808853268456 5.353874646887185
Mo 8.954427695679824 6.038591167394923 6.8367007269796325
Mo 11.326610239950952 4.632700777990448 6.39042111067486
Mo 11.329759003075402 7.45329445638972 6.203324685259234
Mo 6.512002507849172 9.32080055547004 5.110462546575409
Mo 9.424619883536446 10.880857988732814 5.087607182289487
Mo 6.492486692894295 7.9366544027155435 6.627735196877203
Mo 10.968615337881518 9.860531149163366 6.83239503523306
Mo 13.164348011439174 8.846729669837163 7.898488315491683
Mo 9.16477791395389 8.247171573011174 7.989372762057512
Mo 12.729431147960183 11.72146571993666 7.066885749815714
Mo 7.7637327391181605 10.523877919851794 6.978053159762039
Mo 13.389475295123672 6.658294787517032 7.390130431290299
Mo 11.251949355474219 6.560795600381452 8.67243743980726
Mo 7.1813222838240405 12.711362178933062 7.946085174020484
Mo 7.0171531920908885 6.008403288205912 8.656549028744726
Mo 11.144665565037691 8.908446051459453 9.78757301377477
Mo 5.15840481961238 10.458553726129878 7.653733016942937
Mo 9.859380493961673 12.312252631123247 7.179476972737125
Mo 4.555959978911094 7.982456404050533 9.079720608600159
Mo 9.425814365763607 10.908113030809686 9.024573753156279
Mo 7.023658909424483 8.754891364083353 9.267490281909856
Mo 12.150574503993791 11.492638439091268 8.931755817184763
Mo 4.607398888068869 12.065233986613745 8.783482196123645
Mo 6.347336069948098 13.927622591752595 10.5653434152959
Mo 9.005233706912923 6.862545096610573 10.456916457751692
Mo 9.057029199278457 13.058362002804984 10.26116889776167
Mo 4.428798641667771 9.555867255077242 10.270999413666983
Mo 12.1195443087907 3.9666013953187798 7.970538932652081
Mo 6.878180275815616 11.24096245625562 9.888091254937075
Mo 13.630534074762624 9.517337725138072 10.647634184894878
Mo 9.59256250453735 4.60387438280136 8.70248464996272
Mo 6.428063627744376 7.494165004639944 11.329784514033891
Mo 8.862197752652325 9.448379808686463 11.27858478503774
Mo 7.716777071932771 4.7694429849643 10.296447149416746
Mo 13.586118703741159 7.608064475926278 10.404352591932993
Mo 11.467977763283827 8.529144663749166 12.293054175419327
Mo 5.438767132998733 12.680404558651794 11.66275961900983
Mo 11.346211675002806 6.385691889694163 11.304404213104846
Mo 10.905444163587237 11.298078767803876 11.627214366640219
Mo 8.12496427333471 12.208756944386973 12.091507971871794
Mo 9.101055777530005 7.7099084841835275 12.77328912356904
Mo 6.435542868133875 9.5790786066344 12.092085818766488
Mo 9.945505504227272 10.722004022455236 13.333508131193119
