44
Energy = -406.98362904 eV
Mo 10.578939905509483 10.706667049011038 4.859865324828996
Mo 6.4052377427798595 10.546861158889635 5.829650078442742
Mo 8.381273055188748 12.564963153610869 6.14900526815515
Mo 11.769201040874702 7.814409935825746 5.530413609287773
Mo 12.5717397505609 10.708720246797197 5.287847875466855
Mo 9.929713374060205 7.861891923166253 6.025255788021847
Mo 10.740066502248146 12.38726267767586 6.727252608532032
Mo 8.845177149146789 10.403392395524603 7.083216529886152
Mo 6.0729261204426255 11.148562547949256 7.571266326793934
Mo 13.14669044802654 11.793584309470269 8.381862895674127
Mo 7.157849749037233 8.28422250718738 7.619049451113208
Mo 11.47985175003693 9.808137623695126 7.339541894899677
Mo 12.052214649597762 7.324448139385719 8.328168663624838
Mo 8.47036701557059 6.518750880986925 8.184192346388722
Mo 11.031334135823792 14.055505170444098 8.933842594561064
Mo 8.534894907723507 12.787955893371468 8.620120917880207
Mo 13.816199962458048 8.74407671003281 8.0254939060303
Mo 9.705868980883261 8.483766222115143 8.842660521487842
Mo 5.707522057110077 8.841851040452632 9.838414580408106
Mo 10.41147569047398 11.384821170201464 9.35082309357409
Mo 14.76303267592106 9.319364026666532 10.16588398579297
Mo 7.684723967949391 10.328408800802146 9.623725561328985
Mo 12.099769272118817 9.502938442312717 10.081578298292255
Mo 13.561765792449295 7.549281336448996 10.69290690245691
Mo 13.086414883870171 12.144209963946002 10.232433656920758
Mo 7.477790119960004 7.595282964732884 10.342197989732869
Mo 6.276258620092714 11.529166362731512 11.18609658443205
Mo 9.559820464916186 9.449031104188233 11.280861859645634
Mo 10.461296442048704 6.804044300865098 10.786771520008491
Mo 10.53425975710483 13.816367338517994 10.75325846440291
Mo 7.2034279140437665 9.533555790287345 12.458226179980718
Mo 13.465386749327228 10.03882753315547 12.471568303727038
Mo 9.11532231361637 7.1656896655161555 12.481113408664719
Mo 8.5252753466878 11.974988499208248 11.652495839242004
Mo 11.339419429319289 11.389518261912535 12.20421341512023
Mo 11.634660370826822 8.391082927386156 12.528307652503448
Mo 9.569814096280963 10.152994065640378 13.85798072603758
Mo 12.422375461129358 12.373241429927832 14.199637031923794
Mo 7.548624308231669 11.563554902950486 13.91295805242027
Mo 8.260132370558352 8.10313478274502 14.908390986734958
Mo 9.75679263436625 13.002488808952727 14.012181444704426
Mo 12.264938415313363 10.267543734085612 14.668947820741053
Mo 10.11839735735459 7.778167399759921 15.017027114851679
Mo 10.170440968186636 11.76595052069311 15.661976644505941
