47
Energy = -437.20587736 eV
Mo 14.779951062576057 13.137037761587703 11.335596244294068
Mo 12.30414981791229 12.433954874728158 7.181322379169785
Mo 14.633404353077582 11.555394657473123 8.816165980136377
Mo 14.091394370659929 12.712228650347468 14.022339580797212
Mo 9.576118930636637 11.868990479908177 5.925649636494803
Mo 10.601180956813254 10.729479396993318 13.228353920171656
Mo 10.068864371758021 14.676203907916804 12.396768764008126
Mo 9.683419520885423 12.031264369378283 8.538211860398789
Mo 9.744635916031333 8.115610516875181 13.070664398956675
Mo 15.455596918174072 10.318551878076619 12.11067555672225
Mo 10.432563698942587 14.10994025454486 7.389155427710467
Mo 6.470242471450075 12.02023933587832 9.749703659003973
Mo 13.047731241741705 14.123060862247941 11.767437452942398
Mo 6.478322022097286 11.86079352292533 12.367200682309559
Mo 14.181829616182076 9.35343572325138 10.078848066328407
Mo 14.072122273109919 8.302447787367342 12.428264663841903
Mo 10.166892863658767 7.029411164501222 10.423332375193725
Mo 8.705561718312243 10.927089999386629 11.138395277560777
Mo 8.325413951589562 13.619000571426726 10.459790852975845
Mo 8.097244904385917 7.172000055702879 8.541397418036833
Mo 8.180313548944127 9.871134749495925 13.570614067802534
Mo 11.538365092834857 9.060841546031869 11.334939326458672
Mo 12.408287523769628 8.40006239674196 8.661918677289215
Mo 10.068686830588028 9.516217851314488 15.700946463890169
Mo 7.419893881708761 11.542434839967012 7.014247902558477
Mo 7.1730637702131705 9.984278441168678 8.961678778849668
Mo 10.475946735382312 14.587760464622344 9.668560621749007
Mo 6.122113593396318 9.97956195876443 11.755254542092775
Mo 13.159028213115732 11.17072209246189 12.071804343230648
Mo 12.22788991645006 11.242638780227372 15.559452390831424
Mo 10.95341970960821 10.165150241581767 6.7092125346983424
Mo 11.7265521115184 12.99784941057134 13.97181065852387
Mo 11.896686874228564 6.437255512226639 12.500069816437305
Mo 12.762478154000275 13.627968550739558 9.193734012481315
Mo 14.311085626907566 10.382579119127914 14.503966887495745
Mo 13.953412459371245 10.229141529311429 7.362478877934753
Mo 8.108878627081172 8.309584147656711 11.093671238378707
Mo 9.487122036351563 11.406539402878444 15.600399132567214
Mo 9.839659963746982 9.356893270470895 9.205376675204795
Mo 10.952284208960037 12.452012413778602 11.104798975369961
Mo 12.833608951878903 6.663659015721192 10.708943499589706
Mo 9.028527573437923 13.119580622378107 13.202578997666503
Mo 12.12179803721499 10.924892117822669 9.293859331078423
Mo 12.34241150730472 8.924238323878065 14.02464525722624
Mo 8.794683683590046 9.283435943252067 6.831461268042362
Mo 10.010820811097433 7.031974569823797 7.796682110156032
Mo 7.698915327908342 13.748032668071158 8.140195165946613
