49
Energy = -455.17565575 eV
Mo 15.760283302182513 11.396690002278579 12.866933081856542
Mo 14.610727783828938 11.080006001126216 10.33353916795251
Mo 15.348980825289068 13.455653742363001 10.752458693240897
Mo 15.115638627106708 8.770086270583299 11.74858102656463
Mo 13.919515803664124 12.603448329251993 8.357947825212674
Mo 15.166111321503891 8.439272195042461 9.865760288868847
Mo 14.269826200877331 14.899770300009488 9.011784270470503
Mo 13.856579507599333 13.287304276682802 12.667290112952367
Mo 14.829348747758408 10.42369860258758 14.195656206048515
Mo 13.133951362125488 6.892370379218682 10.944144640979577
Mo 12.837444740946799 10.712139121750772 12.383842629824525
Mo 13.555073826033151 9.999285466712838 7.8462473826254024
Mo 13.182855883872643 15.46855906735454 11.124278723937284
Mo 12.79452532079833 8.205782816421692 13.14024765710481
Mo 12.575097843531985 13.14972967663922 10.434289337044971
Mo 12.703624570741642 8.261821292706488 8.440174681756789
Mo 12.278907087806052 14.574608435215469 7.1560006022766105
Mo 10.922367164135478 5.589464051133182 10.76500920641785
Mo 12.100217782578188 14.719271056191696 14.016473141004804
Mo 12.185420585785076 12.0107844596871 14.573754500255669
Mo 12.182792238002515 9.710209258382022 15.016758883348375
Mo 10.313558545151546 11.912310367414346 12.457396045062493
Mo 10.378553421646963 9.214507279006842 12.989813284397329
Mo 11.211533705708245 15.083229838483273 9.116230872330352
Mo 8.944183894604535 8.410580689272432 14.964241333422345
Mo 9.818188919346689 12.926285043035506 10.06477654117127
Mo 11.852492848552737 10.763661873080512 9.92785965029631
Mo 11.328212389270032 8.462151790638222 10.683645691287238
Mo 10.753560842932286 6.295407388403703 12.614588098685733
Mo 9.15162545401796 13.904486761545602 7.883617046626631
Mo 10.585037174126722 9.824831611230719 7.883788446598214
Mo 9.816688992345393 11.135497240953205 14.998810895368937
Mo 11.45024932167552 12.480889296749094 7.727149332722729
Mo 9.784489716946926 7.3858528455978005 8.406305768843723
Mo 10.938303604988302 14.871727259878453 11.92535688709532
Mo 8.074097641202806 12.382655897256212 14.20935354465931
Mo 9.123969564399477 10.254360812074951 10.309202586241764
Mo 8.951042057077181 7.621273712266937 10.972500121432713
Mo 10.080400017542448 13.899055542035955 14.392585426706663
Mo 8.6239897370759 11.336390590960283 8.109047360389063
Mo 7.978843488661037 10.26460798226321 12.935869646819878
Mo 8.615552386558713 15.56315265589268 10.168607133830099
Mo 8.044790710721022 7.578177510499172 13.51690321750241
Mo 7.337924793978183 11.962371404835016 11.157625093257385
Mo 7.2632084861556345 13.883679406327692 9.433180776129092
Mo 8.46717646859381 14.161677030118156 12.076093277082204
Mo 8.094272305027845 8.416511748091393 8.406344294630403
Mo 6.6792115506548555 9.105941613734236 10.957864029512313
Mo 6.3755333314523375 10.614751903597535 9.436053434736436
