41
Energy = -377.89050002 eV
Mo 11.861924060878831 6.243912163193487 12.195899051642447
Mo 11.80347262155231 6.575780267304374 14.094512702617614
Mo 12.358298323287435 8.715398584648408 8.4480878339075
Mo 14.433218784253333 8.111403933616863 10.378956143073653
Mo 8.796994990724048 7.365722164717918 9.529647104971247
Mo 10.425282564861263 8.511592205417172 13.214774274899044
Mo 13.254311266654915 8.368496516270437 12.588348080270906
Mo 11.17248579816043 8.520376016428308 10.59201683856134
Mo 15.53814590113777 9.375835564782204 11.472912690344986
Mo 7.442485247246295 8.610185355888303 9.039100715830498
Mo 12.366879292624493 9.494863070727702 14.982171220720547
Mo 11.96281847505285 11.218982650890732 8.391316240761608
Mo 14.524375772618795 10.112657154406438 13.97275470674019
Mo 8.538871979418435 8.878004435721678 11.64437099219639
Mo 10.0165245139562 9.519681242620273 8.328155294118451
Mo 13.15646799099745 10.376602907311478 10.405747294673596
Mo 14.322937140903948 11.872599675789733 12.228134362171112
Mo 11.881730464428786 10.801100032302594 12.859088848823662
Mo 14.192178656679932 12.729029315524285 9.611079612748203
Mo 8.219127379987219 11.274014713799245 8.65700123301857
Mo 14.86114271252126 12.514284955976684 14.839667107194982
Mo 14.14325134008488 14.668980796609889 11.875647571156613
Mo 10.164454463365525 11.046968308691575 10.576759862625027
Mo 9.924927356361229 11.783654025103633 6.997087204108018
Mo 12.757352161084972 15.50485953972955 9.794292556445495
Mo 9.793982405024815 9.803716583997119 15.202650589088856
Mo 7.249856855715129 13.842575017258476 8.496011536090501
Mo 12.071839281996336 13.093088290728598 10.908753562403612
Mo 10.137684386617847 13.180826898316422 12.749786813599465
Mo 12.697103819116938 13.245522485420969 13.83483895513332
Mo 13.424447011614609 11.68849703895268 16.093444020426798
Mo 7.3513607519015975 10.862483840806556 11.023742829870017
Mo 12.61218826241063 13.851578447495099 8.224774587726438
Mo 9.034139180872595 11.016765084898314 13.085426101971747
Mo 10.63900884715933 15.882804536189983 8.780766717032412
Mo 10.08103162725586 13.314352521522617 8.906507632662404
Mo 8.24973790671363 13.067510316920183 11.00631561442454
Mo 12.399498914108527 15.494074891441883 12.623476259354634
Mo 10.95229159663207 11.875809956016425 15.024557491625917
Mo 10.261352910643808 15.156499839374204 10.910462914759565
Mo 7.842551466323778 15.346643136137947 9.328689313158836
