46
Energy = -426.9325026 eV
Mo 6.022281466258733 10.529213636582522 9.232399851797542
Mo 9.953997497013049 9.372924203796293 5.5032561143503855
Mo 9.149182329680427 8.074143773288954 6.700314280133052
Mo 8.27295748897362 10.459540685940519 7.445597346623954
Mo 6.544072244686071 9.152832259999911 11.721085054800838
Mo 6.930397319772766 8.671244829263662 8.82502222839922
Mo 7.267626619356522 11.952505691542388 11.035724449625397
Mo 10.216018154075607 11.925079180784888 7.0017348539358295
Mo 8.383713522836592 12.62776945617148 8.921682274284967
Mo 9.716638413346459 7.591043158397891 9.506602212358652
Mo 12.497014099551915 8.197102701534208 6.644056675971486
Mo 12.593506591355034 10.106361501745363 6.084908929629258
Mo 8.65799859076266 10.163188843054435 10.127955519303404
Mo 11.888873103191045 7.303391584963165 9.3164039408807
Mo 11.11760642807411 14.498554656649485 9.275581385254124
Mo 10.75790648877831 9.666613112321054 8.162165943984071
Mo 7.457748564617751 7.985292006094779 14.410133341840112
Mo 7.769152945379662 10.806927863424825 13.941810951741822
Mo 7.48058198415029 7.441376425109603 11.323417894732538
Mo 9.246831406524091 14.026545733237965 10.688414218499029
Mo 10.742969147476302 11.848923173284247 9.740712275414612
Mo 12.583219447539944 11.914191071138152 8.0908417704938
Mo 11.628488665078752 15.744691656543047 11.118114060443906
Mo 10.974198692344986 6.839378344309096 12.024169030652546
Mo 9.284238336381872 9.009279506851035 12.442958348422442
Mo 10.105756992875973 14.816157153329515 13.222301757726152
Mo 13.658939218811753 13.866246309999008 9.831767818850283
Mo 13.3474998229113 9.55081601799451 8.795511223035069
Mo 9.561920592395847 11.851839593666714 12.410742173318212
Mo 11.299544686034876 9.412806103935333 10.885786044253738
Mo 11.839492942883746 13.261948282134156 11.821408728146471
Mo 8.975503036694969 7.002541119251757 14.377801586160686
Mo 9.120342863820365 12.883906474493617 14.779623016080796
Mo 15.284450442190463 11.617799921317138 8.859918737076384
Mo 13.28343257505951 11.355780555919036 10.878707269964659
Mo 12.068293408163795 14.961169434161853 14.024631558709087
Mo 9.637067185887833 10.029334191989104 14.784984793954273
Mo 13.914175783126504 14.953951680333041 11.86713742169648
Mo 11.734563027173795 7.903999433239477 13.50900591860492
Mo 11.87689669470894 10.581413556728446 13.089115970487512
Mo 13.597993585898422 8.599792690829075 11.575702186071142
Mo 11.274684340101874 12.562916511484282 14.658919707086211
Mo 15.33894484506338 12.745811814535697 11.583074565954606
Mo 15.674826490162234 10.316008984472207 10.256815861493191
Mo 13.895929556902276 12.643896958023474 13.354820252812821
Mo 14.416533437675005 10.047583813577653 13.023157702531906
