43
Energy = -396.06078763 eV
Mo 7.060736668341375 11.860713167208988 14.55831853647323
Mo 9.236606955268979 10.889752249046534 16.38782599032415
Mo 9.565984541246527 11.315766355845385 14.029204779380821
Mo 11.006045744410294 9.359594596503035 15.292792221217393
Mo 7.928201240627586 13.371212547309094 15.303534492293593
Mo 11.753135961915138 10.834229061720702 16.970190334085913
Mo 8.534044614518125 13.275325890900035 12.469302697511313
Mo 11.16359796104367 9.512911454647133 12.795527184075123
Mo 8.580662016636278 10.728683491361434 11.350165904658692
Mo 12.941964086333636 13.229267946225686 17.48240212871301
Mo 14.020582690835678 11.309224613737824 16.230787542975015
Mo 9.006256084077732 13.113589504454195 9.859088675673748
Mo 13.73709442567691 9.51132630932376 14.097556847761588
Mo 10.586416360160808 12.942070691338964 16.113906297736243
Mo 10.373867991973807 14.080150796190722 13.631797419914795
Mo 13.273067692314845 8.633662931243137 11.416994140542876
Mo 15.934767656623855 10.003392055640077 14.456880971753428
Mo 10.902167370147442 12.249984927158838 11.697579993924272
Mo 10.6551589862795 9.709114418312616 10.567560805167352
Mo 13.180996185099568 13.887854056921162 15.50289785198019
Mo 8.435451838190087 11.019817446676482 9.145194415613688
Mo 12.145120184517149 11.694826542783229 14.356900641354905
Mo 10.73246023706246 14.839405071847294 11.116494742328362
Mo 12.966944607297009 13.932299166820329 12.759610696149203
Mo 12.334344607262036 16.15155469667487 12.371485691291268
Mo 15.611316696193716 7.8236605903192125 11.759787773370855
Mo 9.51434055414006 12.469194355442433 6.948618549123071
Mo 13.308915950483302 11.162824031956973 11.772498443103938
Mo 14.881880982776226 12.191780843206129 13.993225260803113
Mo 11.182434772829975 11.605043477165662 8.945835824326712
Mo 11.105272550209179 14.219789198196944 8.32874059889619
Mo 12.435933164197674 16.280545488664647 9.58341268365604
Mo 13.31973220894506 9.890698993745776 9.28497541329735
Mo 15.638160479627322 10.317948027209821 12.021763065756936
Mo 15.595861668621517 8.560745890064254 9.861666943521962
Mo 14.234961201464456 15.598254037853863 10.757102601951587
Mo 15.359631655222044 14.73645558625866 13.254048779343728
Mo 13.292981651471013 14.893259054800865 7.889482224724901
Mo 11.31388855089998 12.584218759413075 6.318047445534995
Mo 15.09286137861133 11.427016537756938 9.70779401611758
Mo 15.57603566788959 13.330291350385934 11.732431816670504
Mo 13.508063422248462 12.182430924813673 7.922051764580703
Mo 13.092190299873728 13.390252426418996 10.07465535588507
