45
Energy = -416.92248517 eV
Mo 9.889551884473839 11.143431201137457 7.445558879806396
Mo 9.1165717884691 10.196501951479188 10.091455150928821
Mo 11.144232660808084 11.087955072827281 15.330474277800654
Mo 7.2646424143239035 9.601116934808093 8.192744146319766
Mo 15.338791678200321 12.350196882444315 7.755947452764286
Mo 15.495142387542922 12.898925393916862 9.695325216806477
Mo 8.99009401214111 14.479067264808979 9.720559778500359
Mo 9.592794406621437 11.232788523495007 12.99666262297796
Mo 10.875630880991913 7.730690913437252 10.098589513718403
Mo 14.253331877008819 9.965096237217457 7.501499599326573
Mo 10.658075734223596 12.323759652753587 10.406754390837628
Mo 7.793667893854692 12.07662219143466 8.405469171033117
Mo 7.748221298410708 12.56254351544769 10.864997379905903
Mo 12.096829201560194 10.51050495743807 8.98693846832921
Mo 12.761928632673186 12.109680849640322 7.001489419043748
Mo 12.673469575845639 7.0735244052088495 12.320172341270569
Mo 14.983555519234143 11.893646913897275 13.378821396440946
Mo 11.176995324727793 15.257357706550305 9.962648080874079
Mo 10.425366351030895 13.60358521272414 14.571399264418396
Mo 11.810576708468217 9.072525291877179 13.994128499401608
Mo 12.33078910287988 8.098467899823973 7.4981161869378194
Mo 13.988305197232311 9.560928810774493 12.2481173432531
Mo 9.719519185879369 8.669415524880032 7.991287160802729
Mo 8.741442185543743 8.743143998196938 12.198006432454076
Mo 7.441528132539116 10.010444770941605 14.525898273095416
Mo 6.508272919200098 8.833859074847252 10.147183027931117
Mo 13.575977820410081 10.012303544093747 14.923351863383555
Mo 6.923166936152906 10.48863188316188 11.915524936215348
Mo 10.606872640754801 13.289159641071665 8.004467082797126
Mo 5.860321057909827 11.484213893880932 9.565963001447335
Mo 9.790919088654034 14.006457296981065 12.199212793056763
Mo 13.049481993219816 13.34322547242577 9.011886143820677
Mo 12.170747672104543 14.267386059644261 11.775997093945248
Mo 12.262797075196755 12.010347758530038 13.386749166818975
Mo 7.782365676720863 12.72418252047127 13.5139374416291
Mo 8.897965354295994 12.279596744811176 15.5842974263617
Mo 14.984603374359802 10.201354396163131 9.64415697154057
Mo 13.459995664737068 11.744199718321193 11.07218191802473
Mo 13.392144865673954 8.334959395389323 10.013864505067561
Mo 10.662085239650168 6.914337467491662 12.537531778223808
Mo 8.434351722921997 7.415552718686072 9.91474610601906
Mo 11.503305441433994 9.74992655989987 11.527828346886778
Mo 11.777921519351326 9.573432759213757 6.232647966698307
Mo 9.082224926218878 9.116378827712323 14.904902965627919
Mo 14.63332953624223 13.6284767499357 12.610413577349798
