44
Energy = -406.87541619 eV
Mo 14.328982508489608 11.71513411841851 10.279724720242726
Mo 10.309319880054078 12.718384184018925 7.263332229181401
Mo 11.330289153361852 7.320602379294897 11.75544942849652
Mo 8.584046366708737 7.5574526707548655 10.68330839409023
Mo 13.484268036780742 12.92604233622183 12.77015636129119
Mo 6.950457469627117 13.320741073185996 13.089746889007488
Mo 11.95157106732151 15.191324222462615 12.782613485316954
Mo 12.27765547147405 8.800806525086918 13.35596792927144
Mo 7.213985224233246 9.394972441367743 9.96557212846433
Mo 14.955363051232503 8.978033166351635 10.118319649765985
Mo 6.758481083896318 12.402437391295233 9.298186724737624
Mo 8.11064815788949 13.868837170418153 8.536269412033876
Mo 12.469478278203786 11.460011956086005 6.464066946693364
Mo 14.261619444760841 7.518065680790859 7.646602006134667
Mo 12.854662304406782 10.89858566399738 14.883101402977811
Mo 13.191553975060385 13.0596851326096 7.601721133612192
Mo 7.831771532882813 9.459824073114973 14.881490468696711
Mo 8.938681238990641 11.486120370507438 14.197676984148028
Mo 8.639385787603963 11.10541539670122 8.50605100700212
Mo 11.12863074812879 14.338289781531676 8.622412072428332
Mo 7.100264920320666 8.786845456929607 12.396634742501707
Mo 11.814211294424846 8.932737589298197 7.909121467551716
Mo 12.460367589100537 13.547128240055866 10.610049256741112
Mo 6.343064541827882 10.630267463065746 13.845630996344921
Mo 11.35348168166144 12.904215092854747 14.339158677725093
Mo 10.95140338973405 10.257099042183613 15.28103257592968
Mo 14.103712197398405 10.543678013310608 12.336719552076406
Mo 12.829699632026761 6.348641682684383 7.691099704735515
Mo 7.401504999265409 14.044338579837243 11.37186771270148
Mo 9.932912274757511 9.687115742882753 10.355339110147366
Mo 9.005815661974996 8.598429092187384 7.524264367441233
Mo 9.885288727083 9.815841362924566 6.364134290993765
Mo 9.670637196134365 12.811555525291975 10.269682046192704
Mo 13.955931553327751 10.28496499496777 8.288701572927268
Mo 9.61896125821214 9.214978843907565 12.843478811608245
Mo 10.726732598525581 7.263976051500547 9.294753948221866
Mo 14.223330083682871 7.653656937192828 12.327203899606488
Mo 11.342054476916767 11.403146149358452 12.347326520190698
Mo 7.989319408787312 11.176362197420106 11.660571463058295
Mo 10.579656993361676 15.43045347985939 11.382991461138513
Mo 12.576132661901411 9.316645801256271 10.592380983925858
Mo 9.598482314611516 13.66968427922927 12.852380308889106
Mo 13.442630663456777 6.7840269165394345 10.39660731981775
Mo 11.636733379017095 11.486626009663224 9.130280114560275
