43
Energy = -396.61508098 eV
Mo 14.406233000802724 14.802095290980487 14.519513320001066
Mo 12.221063526236913 15.008625679210617 13.33643885302771
Mo 12.832627310993978 13.170868677369024 15.449594071437398
Mo 10.728869275211219 11.878474515255483 16.652173868998837
Mo 10.866793018514997 16.398183782983555 11.484485374646342
Mo 14.288371872788144 11.928864380390523 14.02686471511908
Mo 14.71576456435845 13.953167293673923 12.530420220130495
Mo 9.880022166579897 14.192010135515568 11.979594232156545
Mo 11.815594396648883 10.741082837191737 14.55759718104401
Mo 10.520527963133887 13.232974637763766 14.300519120056487
Mo 12.374631838589293 14.907177401871834 10.82474141628105
Mo 9.224538990879823 11.319916320565886 15.559115237348276
Mo 12.380249262113137 12.46859562555034 12.46030936464783
Mo 9.852061327682808 15.056386823961795 9.275111544608341
Mo 14.834627286891525 11.079928473593782 11.691308776018897
Mo 7.724313057222154 12.705185615497824 13.127405657412325
Mo 14.163379039052852 9.191922550000495 13.84625899839551
Mo 9.823416672143333 9.191301792371565 13.78564075242369
Mo 10.944035097875645 12.496071961471795 9.899218398850229
Mo 9.844104834313374 11.199949421246265 12.306621834418642
Mo 7.250778372064196 10.816897967937068 13.52553819304392
Mo 8.346837534291854 13.107532430150123 10.323618962259573
Mo 13.876317334448439 12.990387352441973 10.030791630283279
Mo 12.696610872231307 10.443518611643258 10.380346199276714
Mo 12.15355138982774 13.798830930679896 8.250045991696888
Mo 8.176910077417746 8.56481344954601 11.918207576439578
Mo 11.820647669552871 9.088146019184355 12.485672270005008
Mo 9.426490852545028 13.790526591760301 7.74359458400648
Mo 15.169720755357572 11.15523227747996 9.193609598299544
Mo 7.541336703919945 10.773809946841732 11.014103240401836
Mo 14.495387350072697 8.610934427240915 11.956473669852349
Mo 10.107058368242493 9.597404223496635 10.0383642686685
Mo 8.461957567285738 11.300755459872997 8.606306477592852
Mo 10.009279147689957 7.462405931651705 11.32617707451783
Mo 12.991079101055746 11.343820833729833 7.997596536734269
Mo 10.564797715128192 11.254889605824522 7.523626135766135
Mo 14.045583527934342 8.705401424151564 9.017508532632895
Mo 7.785991831516522 8.530065638101217 9.056014079118457
Mo 12.420136369345158 7.628867367548829 10.297766658990483
Mo 8.880424034740846 8.777901655650654 7.558533399238165
Mo 11.663482366454243 8.972567819248773 7.997883919605655
Mo 10.610195257330174 6.432511969351409 8.469037898244595
Mo 12.41018000388181 6.27597355436782 8.022228870670585
