41
Energy = -377.87959695 eV
Mo 12.391875506120119 9.150226270902866 13.303359480570085
Mo 14.81323219457541 12.723214575453724 10.69487790899434
Mo 8.251064776367887 12.18306169442773 11.24601938023086
Mo 14.80028029811602 12.591042466710148 13.109728099001728
Mo 11.104216056135149 7.9819611257181435 11.5122529022948
Mo 10.863607664857236 15.984603794741602 12.7669713940463
Mo 12.332901032764635 13.673343663814581 9.605953913456096
Mo 6.554445187010157 10.440728601458462 10.005442323709488
Mo 9.0887195787184 9.506836771560888 10.654553431801485
Mo 11.51265959620946 13.981573679987987 14.848316697570755
Mo 11.906638521355378 10.833852773931264 7.045518803367304
Mo 7.925716083471882 8.48956970451479 8.752629235864827
Mo 14.730583919899075 10.249752161211493 12.487482583401299
Mo 10.519449361201573 11.615743834426416 9.603781402049846
Mo 9.290560975934056 14.175604700925847 9.606693821763304
Mo 15.084815198334702 7.503880278273988 9.127983467932784
Mo 8.940869368321561 13.238782282936654 13.772670213231939
Mo 7.534892073340045 9.912943455066227 12.73290352107258
Mo 7.726712201878666 11.536406730331612 8.741657240655307
Mo 9.632485967415208 8.317083153883193 13.608061817907776
Mo 10.950928359142138 12.942444157530339 7.595057406653346
Mo 11.962235625385066 9.438423059796833 9.551749298784959
Mo 14.705123438202468 9.986676307843217 9.854823399927874
Mo 10.08128703363832 7.301887490138385 9.203546690755214
Mo 11.286479318126757 15.940528723653197 10.91631700259922
Mo 10.830218753037617 9.501304769767117 15.11622329470453
Mo 13.731190664588526 8.988464322235243 7.689727449426704
Mo 8.63436351997932 14.798523917147236 11.462588495663354
Mo 10.82533162893585 13.284722287536766 11.866841358737004
Mo 13.014392515082308 14.153407739204136 12.370258972776792
Mo 13.451460692843831 11.8407328986457 8.455810122379642
Mo 9.658615802090823 9.779571011655113 7.865890106347149
Mo 6.837540873239032 12.290543331284276 13.137866870341933
Mo 11.430221009965134 7.8028048822873775 7.3647387187719
Mo 13.914216369056193 8.088209433458012 11.263048280268551
Mo 12.850927490987454 11.433567576901579 11.318184956705649
Mo 12.549099909085319 11.649148452572904 13.920774700477784
Mo 12.87434236940699 6.882646435882769 9.270694659293486
Mo 8.779680793210293 10.90641578388139 14.58106348871304
Mo 10.32740566030368 10.789161384176175 12.617433640974548
Mo 10.797543251087433 12.60893495354643 15.848834086196073
