43
Energy = -397.17280449 eV
Mo 15.791728546688864 13.122613607107168 11.176748052327234
Mo 16.94894353981878 10.778250791926972 12.369045355892982
Mo 15.799437280541946 15.917735605853327 12.184833347684025
Mo 15.716218800646196 13.669360869625496 13.476032407783244
Mo 16.162587243628614 8.8785688748826 12.685519567145484
Mo 14.963877283792014 10.517587204172042 10.703887900977515
Mo 13.580135590693311 12.618431872914499 9.135654505082735
Mo 14.40655770883804 14.987587966077301 10.102327370377436
Mo 14.175598330599195 8.456919051265462 11.04346297340408
Mo 13.41017865584526 12.974054831078172 11.859982490613218
Mo 13.937701704731252 15.842542894449872 12.708476409161156
Mo 14.819567040057056 11.210976242641149 13.456910031336475
Mo 13.351989183494734 13.476506641584104 14.237929017683065
Mo 13.681328086388824 9.050235009330612 13.880342495096434
Mo 12.718733084235025 9.873316513911131 9.028041129472914
Mo 12.540179015424917 10.231565404317298 11.938182902334757
Mo 13.32564736613544 14.271882825848861 7.731441678652002
Mo 10.998359674808064 12.254461117438229 10.314392198643901
Mo 11.666751765299471 12.069570565763117 7.494258691293526
Mo 12.026150902534473 14.829517177745121 10.51773740677982
Mo 11.583389488161165 8.416367132418486 9.664464350240877
Mo 11.661657092908015 7.518650368025563 12.352992870931223
Mo 9.19489426141031 12.340272327707659 7.135583740744478
Mo 10.799323482739826 14.138932826178596 8.393115318610176
Mo 12.378233544958372 10.75816385910536 14.867098252964622
Mo 11.321861211285533 14.720883273226974 13.193038620792485
Mo 11.005457672070756 12.093656227608674 13.059168728516823
Mo 10.65034863831976 9.318099623664226 14.05284270331304
Mo 9.720532115920609 14.174975184234809 11.53571167555812
Mo 9.76748394309515 7.241792758235377 12.079493647675996
Mo 8.656884586816231 8.10716948048304 9.479795384456967
Mo 9.872648625790308 9.805382723678186 11.402676741912254
Mo 9.845646153919104 10.540786985008717 8.690639109935702
Mo 10.743070532633144 13.324137692837102 15.507709492546068
Mo 8.662621179874504 12.970906739219634 9.302162026092384
Mo 9.207056268987216 11.17709821463216 14.747183319968403
Mo 9.094598124214365 13.803978862139155 14.403751172192123
Mo 8.135155535083975 9.478501383864515 13.283595944636708
Mo 8.440388259000686 11.950636291831476 12.124589089547827
Mo 7.337791349922172 8.37916211052005 10.899471417626039
Mo 7.669435018019461 10.735521019384215 9.99897400764744
Mo 6.493655694410897 11.749317664577603 13.951022118170254
Mo 5.9591765295296755 10.688556587262951 12.502560600302283
