40
Energy = -367.20685442 eV
Mo 11.11588706065528 10.969058792192007 5.82086131828754
Mo 9.29437628437866 7.390180728010377 6.393542017467807
Mo 7.956757570822136 10.895746729376159 6.4287209669942635
Mo 13.917914240589614 9.84631773400934 6.558281158272516
Mo 12.078632957315886 8.32302542406596 6.973333139666792
Mo 9.651357465788498 12.298518974627683 7.211197259341021
Mo 6.760466593103123 13.15862230505284 8.522511294452052
Mo 9.937521139745819 9.520485561582063 7.513843714491986
Mo 12.32930633835904 11.075514097642719 7.817958160125408
Mo 7.427083706143953 8.123072416596534 8.036435761948546
Mo 4.707325183172681 8.15823563339519 9.168719147836642
Mo 15.073251066951917 11.419855453704148 8.9427877771247
Mo 9.9062095405654 6.7882010326465085 8.465332991299329
Mo 7.79035651907418 10.788742316060716 8.754012817321582
Mo 14.298381523108208 9.192842049244971 8.834198166050554
Mo 7.606304311080999 6.769336906000878 9.851577962665456
Mo 12.4111678983694 6.511910577104401 10.494057994743704
Mo 11.775094430168197 8.642161337824419 9.474574388839416
Mo 11.933363103634887 13.248656478109618 10.20389136640434
Mo 10.282315359689198 11.347834011458149 9.698010210234138
Mo 8.240647503511052 13.361915316608965 9.798094705595116
Mo 6.726974026762904 9.063325002570911 10.699945673365763
Mo 5.888280873164383 11.606057940047773 10.558174614697528
Mo 5.408367299623337 8.522975565736747 12.969495547163799
Mo 4.343986129392146 9.70108415220737 11.22772532736823
Mo 10.472246771061055 6.766141498159205 11.284175169807067
Mo 11.053711135923418 12.50256514812359 12.059171686112464
Mo 15.36835006069914 10.863002531670302 11.013845314817042
Mo 9.242993246570654 8.840894037252035 10.20062075453686
Mo 12.928198672898372 10.93842088082143 10.529394387750033
Mo 5.2293882402732095 9.992182771619627 8.428527572720887
Mo 13.962024098441915 12.748629536978992 12.206337274522069
Mo 13.624379286051628 8.553292503245657 11.761174400599842
Mo 10.984499418303175 9.679693853092143 12.04109552830119
Mo 8.40779905909943 11.245157352769525 11.553256953319275
Mo 8.39244174267088 8.848864729017128 12.988322577183824
Mo 6.42838875517039 10.407071946624637 13.163887136970901
Mo 9.495998797067815 10.643485011913539 13.764412453798952
Mo 13.130632448116314 11.152681804153875 13.188653001340692
Mo 12.129437494307991 7.80605721050853 13.111659658285765
