43
Energy = -396.13715896 eV
Mo 12.528516798097314 11.600862222387057 6.0445668144981495
Mo 14.201666832615333 11.624907297824006 7.719401674816847
Mo 12.848202221311976 9.826775011429035 8.123712987689636
Mo 14.171364487801666 14.37935165384012 8.378295191017694
Mo 13.763380387531686 10.137507571232312 10.493193088155335
Mo 14.844481383746233 12.52120306510698 10.52784735838481
Mo 11.93862324592833 13.409982304382096 7.342136880172976
Mo 12.853068238835824 7.302589748589839 9.999753219556533
Mo 10.649947212095832 11.159305736531673 7.759705665082895
Mo 14.393717310262025 10.61940764207728 12.896097875856123
Mo 13.222363022051846 16.020563052438902 8.798581359480414
Mo 10.103379272180083 8.894293488379589 8.451273939158286
Mo 10.01594758733902 7.021447209393226 9.97488668175761
Mo 13.728646896241694 14.659368783828972 11.11427685766669
Mo 13.096593205924828 8.396214291687528 12.548104440711349
Mo 15.201147816394178 13.205187893404553 13.125605006888062
Mo 11.458093053265486 14.473765066105951 10.065389081412894
Mo 12.355700724694398 12.216163996943225 9.55984161734923
Mo 11.152318454312539 9.73060679844622 10.558963568449604
Mo 9.397100658802284 12.897211614949363 9.273235464810195
Mo 12.508408109943172 6.05882045681394 11.347443563294812
Mo 12.590045647878867 12.430858264789215 12.169736646885175
Mo 13.673081452876854 14.372339821206063 13.821075915517167
Mo 8.572844252165469 10.567549912262333 9.746971043774556
Mo 11.259647611535698 14.913490505201459 12.518936962078216
Mo 11.502746150484613 10.314337265602441 13.31203218016099
Mo 13.47677541904234 11.67408853089188 14.772236933280256
Mo 8.298761482075818 8.121652898863424 10.701309801789549
Mo 9.953550074775366 12.404353744734209 11.684108401961222
Mo 8.884586284529822 15.26875496745962 10.908292549609536
Mo 13.080286760142453 8.6132862906113 15.027170518811868
Mo 10.512998254831665 7.828901504425342 12.318248969172496
Mo 7.154354542107288 12.732949699157322 10.82033110060971
Mo 11.673666145879256 6.785316923539043 14.397136968197342
Mo 11.156017922222338 12.89503229579002 14.471230660645721
Mo 8.991351470430118 16.498098065212762 12.293432728335503
Mo 6.515386800736947 10.762955607385562 11.020763681442423
Mo 9.112834350140323 14.01680006736821 13.484312890639805
Mo 10.200337996125661 8.398637744820004 14.858802645752773
Mo 8.891367781838266 10.073698982576555 12.411442337012978
Mo 11.574979700852621 10.26001898377398 15.886685063833397
Mo 9.443621549779374 11.375746684976281 14.794976423362833
Mo 7.623624398209477 12.070165182508557 13.269215482420094
