40
Energy = -368.28133283 eV
Mo 6.805369211375014 10.33608276343609 6.446974576623791
Mo 8.196987939103249 7.823916749979126 5.958647296103983
Mo 12.285565926501476 10.888447583149462 6.626686413472147
Mo 9.847923286189454 10.094066100648783 6.5072928782703965
Mo 11.224750419462527 12.677618006288194 7.028352479819965
Mo 8.483601673264317 12.249690098703146 7.566306848087856
Mo 13.134386252518436 11.49195122897103 8.914878344797462
Mo 9.886037789589967 7.196866022615107 6.703120161230881
Mo 11.439633237001312 8.863791291341094 8.331502133582056
Mo 6.113653480816679 10.550454669202376 8.119101369236121
Mo 14.128180947573997 8.934030306677018 9.140220733969562
Mo 9.268396504875575 13.493423671886587 9.110180175527907
Mo 10.60156995117765 11.092359956981369 9.03121000690555
Mo 11.949886109551835 13.46867346183729 9.945515770203475
Mo 8.519111551584169 9.244443567784858 8.453013331326224
Mo 8.032315798892238 11.477273347385603 10.102483219793616
Mo 9.834461127210282 6.880676825803344 9.362389199326433
Mo 12.097349637024086 7.322964818433219 10.713012751458477
Mo 7.571926011842484 7.08364553482694 8.44512540451481
Mo 15.119608437595652 10.206120200944174 10.198635083456809
Mo 14.639962094383781 8.068403401177255 11.943382821384354
Mo 9.714896061006767 9.022783917108704 10.844324326374094
Mo 9.915289734004338 14.603300819614477 11.420645527715907
Mo 10.432509716455913 11.939217482184619 11.621623575943401
Mo 7.038200136313764 9.067502705556244 10.744366338717636
Mo 7.858914420951778 6.8261617248897455 11.22037084592457
Mo 12.336919260421368 9.901183757083237 11.153437864953071
Mo 10.52089553784256 6.763790329872857 12.256329437788429
Mo 8.153795764771644 13.24860897481125 12.0736703638599
Mo 13.229720536560267 12.30759619664958 11.488244569942033
Mo 14.619351139215487 9.739434035748596 12.909134506716514
Mo 12.309840315333256 8.196874338129712 13.291279217642916
Mo 8.005511500213657 10.494888786224825 12.503154323251714
Mo 11.644512123535975 13.324240198963002 13.470575258703054
Mo 10.376342279039527 9.510436060058309 13.393827434625686
Mo 8.210880008436694 7.844728299756433 13.04319137658534
Mo 9.182311529209622 14.591472466332386 14.127320715746073
Mo 9.596204754130405 12.052797771976701 14.059180243831328
Mo 12.30673925480371 10.975534348433643 13.752751697774245
Mo 10.86002080277917 15.638080441093011 13.472073637371782
