48
Energy = -445.26138308 eV
Mo 11.017251073467438 6.622900901319604 11.054144240050004
Mo 12.742450244148133 8.228958459981286 9.74699901505478
Mo 14.296011949505619 9.116485126635604 8.094658548272342
Mo 10.060371882825228 8.311324773969096 8.735447572840757
Mo 9.6756288621009 10.172014058932314 6.205861960582918
Mo 12.043325657223821 9.77057101342155 7.541560839799995
Mo 8.370920024442787 8.053565140649157 10.394091559546311
Mo 7.928517854735803 9.601368745666502 8.510130347721953
Mo 14.092028837817931 11.610582579283108 8.044827427951713
Mo 14.894465959529189 9.689732010661745 10.629766826904213
Mo 10.1626891141445 7.144724140543976 12.666659698465569
Mo 12.67195966750809 8.601531718340514 12.34208055681221
Mo 11.869560506384596 12.147784805998711 7.184034838288219
Mo 10.431888045740921 9.474293209892464 11.061105815550546
Mo 8.816672270872747 11.773008783259394 6.503805967909516
Mo 12.455385237205508 10.765940723288033 9.94802279849483
Mo 9.99908045799396 11.111987108433988 8.93987545032282
Mo 11.182189784631547 9.07141779183508 14.853499863936223
Mo 15.302939096699829 8.785112267415858 12.727431092847667
Mo 16.392352923931394 11.440754660917044 11.995200855715533
Mo 8.305334159355198 9.271980929192022 13.158662925782064
Mo 14.608074851653887 12.578031442667355 10.374750780784135
Mo 8.056906870898382 10.742564616317619 10.76934557564752
Mo 8.573229586010822 8.311041145511124 14.777304534912393
Mo 15.849761446389067 10.816488653576055 14.032484936167839
Mo 13.372848737381581 9.658927163797188 14.71832434012497
Mo 13.730192362067681 11.120563462519744 12.493632466908496
Mo 10.20029205598486 12.568985267508776 11.244781986718756
Mo 9.015499742077955 11.133186577465256 15.103999011761505
Mo 12.341547144335719 13.53913926533702 9.431928095785128
Mo 7.399506425131159 12.515290861561127 8.916575653231906
Mo 9.775129710357499 13.653363545943064 8.597367455118109
Mo 11.106181384044474 10.911223469544233 13.162280225999085
Mo 8.350671419953862 12.246379772443452 12.957878290253685
Mo 7.633211720249297 13.662797583479636 10.47645254738209
Mo 14.969000253621344 13.52884688997355 13.160322778927735
Mo 11.361459418230762 11.42291144242994 15.985136950319461
Mo 12.482796669975926 13.613352297490461 12.047566931799514
Mo 13.33902634284403 12.179568454874357 14.941281984592132
Mo 10.2092706521065 15.061403579811834 10.722435423670362
Mo 8.905593011548127 13.348152677924508 15.607663218404323
Mo 14.775157442021863 14.84273082903936 10.907672169066759
Mo 8.851520002599155 14.551672002726251 13.000848377585196
Mo 12.49678139960583 15.885627761166784 10.176743085984437
Mo 10.826501689716869 13.33153566336029 14.222421800613636
Mo 13.292866598281783 14.611458913908043 14.511736619039517
Mo 11.142457230411154 15.74410511564734 12.881372338839139
Mo 13.50448926688966 16.151865541046853 12.525541046923887
