41
Energy = -378.08469618 eV
Mo 8.528008242943866 7.869286098946495 11.69022176968249
Mo 10.016675605277596 7.573303782353506 12.957563125562775
Mo 10.602871247411986 7.892977340443246 9.998246478040647
Mo 7.477777241943165 10.509886932862601 11.327548474220222
Mo 9.189273096287913 9.831467788329261 9.333204966994897
Mo 12.63246755497283 8.238381848255312 14.20860812542172
Mo 8.445805712787282 10.090578753309973 13.554738647507879
Mo 12.416390390916616 8.095423844390348 11.625526717788189
Mo 13.688888562887296 8.281382658095186 9.153790857805072
Mo 11.033924045320585 9.958796623685474 14.58102079146609
Mo 11.243310947837227 8.865076756201214 7.677283602418203
Mo 9.527523861629339 10.391791555493683 7.000571189355854
Mo 7.50646698922214 11.840661111251691 8.641177825814028
Mo 10.279790765218788 10.055768510006176 12.016795562414547
Mo 6.201425095412339 12.561642421722285 10.189883384240506
Mo 13.32703218495521 10.426180448095781 15.874699375536597
Mo 13.14816543400551 10.478008355764464 12.84508640640028
Mo 7.640416142425688 12.73626626174434 12.359570301160291
Mo 15.043648419583988 8.45413917197607 12.29754269093379
Mo 11.986720643068347 10.275195428170777 10.08829222918295
Mo 14.754953117392288 9.209890435329653 15.10204599964399
Mo 9.578783700809518 12.22645039296984 10.478180605260562
Mo 9.703142736297977 12.355031933729503 13.47999033839772
Mo 7.885030188273314 14.371773323741413 9.924083936259803
Mo 13.551499904527121 9.881440432292639 7.794758937238109
Mo 16.022166027713816 10.15159674068797 12.75576092059719
Mo 14.629914078913481 10.186705956937327 10.425580962754134
Mo 11.215407176548764 11.663496177146406 8.070800931315018
Mo 11.893800544658427 12.614463700580808 11.637687314782305
Mo 12.127636888999481 12.549371119843354 14.401668157782346
Mo 9.538821039026267 13.568038200398131 8.240757335441845
Mo 9.575838465433144 14.527738643040017 11.732852407144156
Mo 14.615386421271358 12.077559446173135 14.22769743806445
Mo 14.643712010601194 12.584753570923937 11.648883442519676
Mo 13.518612747703004 12.343115473374136 9.446685686234716
Mo 11.560182750808956 14.13940838019102 9.592702885753631
Mo 11.811579660209121 14.594338557063196 13.394202513127336
Mo 9.677068766924007 16.281796729379558 9.554339492832353
Mo 14.27915974232999 14.474594689472188 13.690927077185496
Mo 13.681895374888525 14.698630732798339 11.45663095053139
Mo 11.161949531247815 16.332240551583105 10.889841663250433
