45
Energy = -417.9530486 eV
Mo 12.345833138416868 7.578555646193758 8.436596400107243
Mo 9.755701668046196 8.531580356793206 7.428128227552443
Mo 11.25279453221289 9.130185115707325 6.317896861010142
Mo 14.828007471232901 7.097789279116048 9.69556635428717
Mo 7.712255893001024 7.939761637454303 10.154369155970137
Mo 13.990622043773687 9.620042984834955 7.601463466978705
Mo 10.768990197712963 7.718422742945857 9.953791549604285
Mo 12.58260252467748 7.178503584241928 11.783808142594834
Mo 9.550528765262067 7.416920574877806 12.38361958650345
Mo 15.508222364402805 7.819409437820805 11.309589288451011
Mo 6.691286918782149 7.775898594827751 13.002322726100049
Mo 9.36389619977052 11.256631009973775 7.271570740197029
Mo 9.244583164637017 10.09558888331302 9.844059940180108
Mo 11.644882132774125 10.178768321907622 8.778099861598578
Mo 15.61771649913213 9.65872280739167 9.010300701287438
Mo 11.972129470199063 12.261294639821726 7.202036735202958
Mo 7.697663650211598 8.136723984661426 14.487306598930248
Mo 7.4522995492818795 10.567660330758022 8.153674097689327
Mo 13.334721912143324 8.46380938499149 13.194665324646335
Mo 6.476950901536579 9.408826795865677 10.542606149487076
Mo 13.537902189416828 9.436949283647099 10.424115390223982
Mo 8.60434720429712 9.804787090871962 12.353815512688659
Mo 13.932304836713469 11.875900310158531 8.770137620089807
Mo 10.114151239402423 12.647987690484715 9.39219762404762
Mo 6.4675166662450465 10.895410037169077 13.232884105339354
Mo 10.598556819017839 8.49300916858056 14.060023031273797
Mo 9.873990884060655 14.258111582260787 7.052678898928436
Mo 11.27066238043409 9.718391864343682 11.833994585212379
Mo 15.186260951916681 11.826455562122648 11.029538854322121
Mo 12.267035506629819 12.023679741871396 10.82696056008017
Mo 7.579248638769547 11.977657989947234 10.669779174264102
Mo 7.784563654118764 13.200608537486989 8.635532995385264
Mo 12.238601400043317 14.015658222495194 8.735680408074101
Mo 9.990761240100703 12.194942532367977 12.257953969217736
Mo 8.78551987633996 14.34302355512445 11.048250900169224
Mo 13.470763510833518 11.142053642230726 12.877859307853765
Mo 8.92150624652126 10.829942719525208 14.586834548314657
Mo 7.518097243708526 12.677512666787953 13.349093699039807
Mo 11.397034705887279 10.897898978742644 14.285845215755408
Mo 14.287521846036784 13.604000058222464 11.28934405782183
Mo 9.786480908114992 15.366003976633953 8.58294285101344
Mo 11.219449392012343 14.541093351113442 11.1289652356299
Mo 12.094900426564237 13.251328317372222 13.287415191380003
Mo 9.701138278501057 14.70975880597411 13.668999657721859
Mo 9.946913054580275 13.369376475875866 14.994075906002724
