40
Energy = -369.32929552 eV
Mo 8.853000284307344 15.181681349571608 13.29254720525828
Mo 9.109820201268198 15.189767821419466 10.336141273181303
Mo 10.910984143666246 15.636148490310125 10.867794630807575
Mo 8.17797241394872 13.44547385936757 13.98798142938643
Mo 11.783760623779104 14.952922189885609 13.569420153780698
Mo 10.878713088257774 13.738507493274534 14.83104154164872
Mo 10.166021624319246 13.265402191798332 12.076115034029764
Mo 11.037636903625351 13.27418477331817 9.515961152671938
Mo 8.647378001623869 12.490371903125373 8.994144008834388
Mo 7.648989706918368 13.163309359583499 11.458150745078964
Mo 13.039210042562315 13.412470324159985 11.498475252245575
Mo 11.19471942817891 12.939909496546866 7.263769411844199
Mo 9.937785713023983 11.051842155875585 13.65657000166246
Mo 12.572469090443665 12.20173421019263 13.693076716301121
Mo 7.490240629749231 10.956933137958226 12.750899027403955
Mo 6.499009348329119 10.976128232542878 10.106826227379095
Mo 13.243403830862693 11.765927009264846 8.820669802666327
Mo 9.12167895360977 11.144752705172099 6.661344358672136
Mo 11.933976210317889 11.276813375090748 11.495298755808049
Mo 10.71186117813487 10.633646087558315 8.860986271779383
Mo 9.163637626216122 10.890467318459118 10.955726849995171
Mo 8.905491828052858 8.655270829383714 13.532377454740347
Mo 11.901018678855033 9.576131162381351 14.068099650349346
Mo 7.929676599761423 8.64399126930388 11.295974540456331
Mo 13.68601385880775 9.733186938787803 12.555248091952912
Mo 7.558733928401808 9.938985661712563 8.76642638330437
Mo 14.559071817381074 11.243154931369663 10.646599219886973
Mo 11.92685928934335 10.531072232437563 6.678483480601739
Mo 9.487757296158444 9.163174100285755 6.778324202256928
Mo 12.750953518399252 9.205902114735386 9.920721590499367
Mo 10.811098308605589 8.87033672313331 11.861498635351618
Mo 10.599024635703811 6.623578110726723 13.204496248783114
Mo 9.234934039559706 6.402140047763086 11.73479382406013
Mo 9.80026535850035 8.250788941983348 9.44466182593388
Mo 14.168475821959804 9.704059440118076 7.809350772882084
Mo 15.315456365714965 8.427391319186134 9.951336333515206
Mo 12.06729932456561 8.299569834793413 7.705075168452598
Mo 13.113856194604384 7.371828152288508 11.78435192146751
Mo 14.276591343717099 7.013920356131612 9.175924228363503
Mo 11.525653402945629 6.640595015564245 10.261626622905583
