49
Energy = -455.59811429 eV
Mo 11.946598700776185 9.262710684395532 15.385521181473857
Mo 12.078385623148602 13.018734606210856 13.258312349340926
Mo 14.691061625123693 12.891740726705395 12.35707963342295
Mo 13.451303119254549 10.749585741779562 13.79843241556661
Mo 10.819769854564782 11.098086372780529 14.871243733785365
Mo 14.381229038785577 8.62816331897031 13.301284260532151
Mo 12.664811472045322 6.783454693455586 14.57123979812418
Mo 15.056972192658137 10.291133018384109 11.690358660200953
Mo 10.91338013851979 14.949774650374001 12.754758063218736
Mo 9.312546506080952 13.094601882022273 13.444181111895428
Mo 9.242467169597237 9.19144650964972 14.518988765363723
Mo 12.771009673632074 14.182366042240297 10.704472693956845
Mo 14.787561582124075 12.673189008712175 10.289669905470928
Mo 11.683675811981791 8.926190527803124 12.845025730651725
Mo 9.95980811583058 10.920870492051304 12.287095453207597
Mo 12.533687230002695 11.211933912799326 11.354903198353927
Mo 13.306670540564417 8.659000015539243 10.683888399253759
Mo 12.9803142704632 6.527177380049019 12.164769327869054
Mo 7.694226107950132 10.81035279926831 13.660620262609385
Mo 8.809092853256653 15.372849161850919 11.103564089860592
Mo 10.612797396147789 15.573538999741093 9.645667404792494
Mo 10.671106585800613 6.702939138200865 13.912823787795055
Mo 10.386308610573057 13.261685268085081 10.899789541564287
Mo 7.702016147223178 12.683607170496863 11.573518395328296
Mo 12.897449845923854 14.17309180461873 8.312585560971023
Mo 14.134756894967502 10.290300161369226 8.91768611491873
Mo 12.057060355980383 11.80050355893647 8.848072502634905
Mo 10.187797372389277 13.717633170762584 8.046368407736688
Mo 12.721026385291877 6.898757029949261 9.177592107381576
Mo 10.888734781244437 6.804462486791749 11.145316672570335
Mo 8.08211018311609 14.056972715138754 9.275454213398929
Mo 9.279172566690415 11.533270521901839 9.487912436595785
Mo 5.461315170662511 11.13865332867785 11.94005031876376
Mo 10.570451619571818 9.161551935097126 9.8821672575854
Mo 14.46564326320385 12.346470323107736 7.562253911835144
Mo 6.070716005221397 9.268235908172992 12.725662800160734
Mo 12.158560357678468 8.972944287041068 7.875997894746467
Mo 7.7780042236272395 9.910872580765348 10.965683738122282
Mo 6.331090089754704 11.712335972197243 9.24063877010657
Mo 10.425376809250205 6.555716719758057 8.372848866754651
Mo 8.909714172530974 8.179730868012465 12.327552243095987
Mo 11.86675073233816 12.719057599539704 6.169215275535787
Mo 10.288434456573505 10.931989670564064 6.95486693687223
Mo 8.33142371392595 12.157324342385607 7.074373340923464
Mo 13.11514652238614 10.907318611618741 6.228016948750568
Mo 5.47985876020492 9.929811370461524 9.509314149462043
Mo 9.766527046104175 8.228632748973489 7.085708798403642
Mo 8.023783686766537 9.657191265641917 8.24959035412402
Mo 8.510904266420557 7.682739084702853 9.602027792552395
