44
Energy = -406.58130779 eV
Mo 9.376582622637917 14.181132434378815 11.483480280909165
Mo 10.992107661468909 14.95185508009301 13.203948200299857
Mo 12.396189194876838 14.496907868036848 8.745380253960159
Mo 9.867116300598518 15.435748990932918 9.176702349102465
Mo 13.14963182229395 16.167169119513204 12.636272407870202
Mo 14.28350983310894 14.948023835797807 10.505563072578747
Mo 10.685145214029182 13.278615564751936 6.938925769922332
Mo 11.165126639540684 16.135007251451185 10.480613069594593
Mo 8.048139606121655 12.084876686532697 12.139259062251302
Mo 8.188591181024549 12.770986038421178 9.179660440111732
Mo 12.566835882616015 12.953452159370924 6.545638203713008
Mo 9.154958391331574 13.133000867958192 14.518441522177556
Mo 11.823117752642947 12.80317930975099 14.287793581657144
Mo 13.567207574822246 12.410767533719836 9.36788339663863
Mo 10.544341803978652 11.731605098161406 12.395459556245772
Mo 7.059104653876945 10.795880792276295 10.141734565476412
Mo 10.64089728089975 12.657696742425616 9.693452754458763
Mo 13.951556822989895 14.45423106610326 13.462017055232227
Mo 8.853633117183222 11.15154961150792 7.768855908161
Mo 11.492888060926278 10.847160232424239 8.008279804249932
Mo 15.128039506368008 12.99857956752082 11.29531001355318
Mo 7.654810567859723 8.857117635037145 11.78654585333745
Mo 13.43773078333661 11.504315214640224 12.463173637556801
Mo 8.00000122456892 8.667381782516824 8.530585926105548
Mo 8.511717389456054 10.39760980522225 13.887767573268691
Mo 9.475914897854482 10.332562710155978 10.250755425693729
Mo 9.670119577995402 11.617494113467012 15.753819144593875
Mo 12.31473790511639 13.70622253232363 11.503131140007556
Mo 12.20424817988667 10.181259596245324 10.533079906859763
Mo 14.204292186174893 10.709660775998605 7.602081459650726
Mo 12.915837169800165 8.809085374937618 8.275662336590413
Mo 10.526736939944305 9.097091657836199 12.699922679535264
Mo 11.98158341073374 10.259168056220489 14.410881366117414
Mo 9.940769910370607 8.3869706660741 8.28518580078313
Mo 14.660389702391374 10.209207817296848 9.972510299232049
Mo 8.918386341112292 7.477496415411568 10.886087735141114
Mo 8.877309639896643 7.53014253828916 13.996444540679231
Mo 10.043151135947307 8.793059548026124 15.434705141805935
Mo 13.458302629821699 8.768728291284763 12.563831178259779
Mo 11.593738543667577 7.698078739042741 10.568634655543056
Mo 14.019259304120844 7.739281619919683 10.252111441975718
Mo 10.691898038141709 6.278579223060394 12.672727488082144
Mo 11.778375203968006 7.2604767789279 14.356106249774244
Mo 13.382792820799642 6.5480703379402945 12.572498428219603
