40
Energy = -368.78667964 eV
Mo 12.282291194425847 8.88828996041071 5.907894469886927
Mo 13.187550656785955 11.562459883418414 6.942121811251467
Mo 10.952390585912685 10.274527258161816 5.557000155077468
Mo 14.21797467560507 9.810661189408137 7.536781323324977
Mo 10.40254049922153 12.290560092676472 7.369536575210014
Mo 13.047397368030683 14.870158679679879 9.621043405496428
Mo 14.070526691476166 11.474699863928384 9.498937369780984
Mo 12.569675357987608 7.297828577871441 8.504126210880088
Mo 10.189719369776036 8.111378409148463 7.4119889911744545
Mo 11.57237402055893 9.986677214758211 8.384855178912675
Mo 8.809598338676086 10.073952489108065 7.421054608525485
Mo 9.531912718797528 14.016526683052653 9.518890891680917
Mo 13.434169184234124 8.776880774799908 10.014323551663162
Mo 8.112720669542576 12.504440587006348 8.221343852219045
Mo 11.750712901905821 12.694461265453405 9.331217250027313
Mo 13.275948341729109 12.881618943379156 11.614987411663128
Mo 11.730291740265024 15.084492514855713 11.02986201257733
Mo 9.41285302100562 11.056720932190121 9.901220043098869
Mo 10.704747171855853 7.757609455040749 9.935327539575272
Mo 8.037804731036568 8.728662328690563 9.286342111429382
Mo 9.76156974309167 6.130446086203176 12.204590471717637
Mo 14.366887715098372 10.705471178872008 11.67709662484117
Mo 12.145488428513195 7.680971757506756 12.027866911532868
Mo 10.486980540746918 12.679789254610819 11.811247132124953
Mo 8.3921439734693 6.437615025224317 10.988777683163807
Mo 9.368353512633727 8.983096241341276 11.873379472158081
Mo 6.787271746984654 10.601087390373875 9.914930024034652
Mo 7.784536803055062 13.384657096639588 11.003821434856699
Mo 8.956450435872206 14.805890083151949 12.493298463189195
Mo 12.774096672174412 9.201593735439262 13.546062668564
Mo 11.46062726730212 13.621905609743182 13.941898073036112
Mo 12.598594787082412 11.936833880558 13.887508161833898
Mo 11.75961063491796 10.398720398082693 11.34720508051361
Mo 10.537530000857183 8.301510488002263 14.170372664481292
Mo 7.775170789668516 7.543442693163765 13.793688400654448
Mo 8.672653272104908 13.109570419650451 13.773830223160028
Mo 7.925099605957601 11.156212439839683 12.21659390101895
Mo 6.788000694526128 8.884033238351101 11.660260042356091
Mo 10.318291414482287 10.624113914340167 13.78307817646178
Mo 7.832616107457428 9.410356244138747 14.306444396206636
