40
Energy = -366.18370089 eV
Mo 11.491090409470168 16.15763573310051 12.927270393155075
Mo 13.476083450568053 11.525405948017074 15.852687205193261
Mo 12.436679059124456 13.901171658654594 12.952224122005859
Mo 9.90692132251393 14.82587526913703 14.697354830269472
Mo 14.334790613696322 12.403278326754908 13.888057455425772
Mo 12.073253600850759 13.167476003579507 15.28960345024666
Mo 8.206447423012449 14.381548612227862 13.712787064990621
Mo 12.168041082185628 14.97552606630794 10.313529141286185
Mo 14.034564155728097 9.45009260870242 13.810344814015384
Mo 9.92389759968848 14.959698822036364 11.922136618564641
Mo 15.490547309506729 11.238220494877336 12.034871564071565
Mo 13.71592860497271 12.835268949446187 10.64543329115149
Mo 11.446259004686711 10.454355397846125 14.794307133665754
Mo 10.992303338987377 12.623288488129655 10.88949437172954
Mo 9.32834551097515 9.761722765746542 13.897878756107367
Mo 8.229937418752817 12.60210643910847 11.507944198655066
Mo 12.574187879722036 10.974384434759044 12.252073310286386
Mo 10.172943706132065 12.312343254691513 13.520455329589527
Mo 7.553713134483431 11.614644635627734 13.87990260612137
Mo 13.461075025592908 14.619256472077863 8.536787337293013
Mo 9.640943944848875 10.313411135864238 11.317938014239914
Mo 14.010081555599113 12.155896616918568 8.217084718498475
Mo 15.430058200511365 8.656126912379415 12.49250637828762
Mo 9.414326832040032 13.93228384325227 9.541264064789987
Mo 8.91568784835037 7.650102053925634 11.937596132920737
Mo 13.334269454636747 8.349144107241436 11.154364926069595
Mo 11.460730204060205 8.739518944141901 12.739151827067689
Mo 7.057942836156662 11.090299076435112 9.875675636901711
Mo 11.978113291780506 10.206717424450652 9.620920418885548
Mo 14.65145250096535 10.308474267077811 10.20035244649328
Mo 11.675970794220405 12.856975086934902 8.394515293628896
Mo 7.161354510369437 10.115294016861782 12.355027819639536
Mo 9.288624091771991 11.478625010888969 8.870649200383438
Mo 13.684989752611841 9.507770910946473 7.890215520142267
Mo 7.849381141547704 9.00388093795411 9.73008735752402
Mo 10.371422889871612 7.572525509280223 10.644907548278544
Mo 11.676744997842286 10.720211789383043 6.932341648156602
Mo 12.298977790286756 7.628017152812444 8.458311115701028
Mo 10.056204324149517 9.135093284257435 8.390019240713585
Mo 11.658937612586659 8.44342847646459 6.468585252548292
