46
Energy = -425.73646433 eV
Mo 15.237352515358946 8.333338595097961 11.733487881810333
Mo 14.627642279400485 10.316808654962927 13.768862445178602
Mo 13.184387405897349 7.417472954273533 12.584814637161623
Mo 13.735643628427185 7.201093696160154 10.118143805171853
Mo 13.983934230373366 8.102790066934295 7.739585209618552
Mo 12.574869842349006 11.690681407042353 15.094084691630608
Mo 12.892815631930326 9.247243266885894 14.499848982973639
Mo 15.249170261147091 11.286245482002577 11.12644415463772
Mo 14.915347890933655 9.766995596061703 9.511564094837194
Mo 12.975979729240011 9.712826589690023 11.650341918372703
Mo 10.082745823808587 15.530708927795535 15.218389874323869
Mo 12.046160981719975 13.977452179816934 13.974029289895263
Mo 10.076022249505971 9.867158864581112 15.446674913242052
Mo 10.637131117054242 8.487235978981651 13.046075127809306
Mo 13.5194378137644 12.404148070114633 12.480777837244505
Mo 11.245810714545668 11.062243008435479 13.133891055386602
Mo 11.014999948661298 7.663479763642458 10.781501345806287
Mo 14.901697252531198 11.94341686398697 8.189958002126435
Mo 14.083961668228357 13.931951235810228 10.304046089332385
Mo 11.690796531358838 7.922410077394511 6.697513418799798
Mo 11.634599982603362 6.557359602556712 8.242972246658905
Mo 10.149399894107564 12.796420705437669 15.09980401238637
Mo 13.43595685324037 10.583117393285214 6.986152581298672
Mo 12.694558965633812 15.219395236851557 11.845677066378947
Mo 8.349562371419463 10.992855362246136 15.269612671079269
Mo 12.721064646210126 11.730368769139634 9.624950804492476
Mo 9.75492185068896 14.920308222886158 12.465314936212758
Mo 9.011248566428637 12.338705787083766 12.826307746119285
Mo 8.553761520075643 9.806355187622714 13.035261405820933
Mo 12.681131755269556 12.981108367601811 7.441781197818789
Mo 9.566209657181275 8.313658710190975 8.480760262863823
Mo 11.246556635675756 13.260859037145801 11.230788663535476
Mo 10.170332157883617 10.490633693084394 10.576813977314488
Mo 8.626540608470732 8.436256308225666 10.62858379944739
Mo 11.307080568771328 16.472946290056967 13.945875531043946
Mo 12.253116659025364 14.711579523567847 9.20119085396185
Mo 12.185931411559999 9.208444177035412 9.063155937010235
Mo 7.772417197049245 14.220214708421112 14.343653457636394
Mo 7.128953425713758 10.827144517206849 11.140658209749597
Mo 8.404232699873134 13.201967499754463 10.398277466445426
Mo 10.688961674883599 10.754790772893475 7.637595758100157
Mo 6.447259411112256 11.962332932929685 12.631517100965416
Mo 8.497458423960587 10.579111377565123 8.722056755774878
Mo 9.441037935080645 15.09441522736602 9.897455221358786
Mo 10.30791410175993 12.936299887998363 8.62284441328404
Mo 7.194232707459729 14.637998619549796 12.441252345254785
