41
Energy = -378.03127385 eV
Mo 6.861796645967505 10.431133048907505 13.26194163802161
Mo 7.482731400348879 12.531033601711426 14.01933520831233
Mo 7.746540649913953 13.989224389621963 11.956295038048934
Mo 6.970554282584197 11.820444263234426 11.266892888223929
Mo 9.011481966855174 10.10128613383622 14.396076961171042
Mo 10.014930100765906 12.283133043357763 14.84300974369491
Mo 6.809669060659219 9.159282494467814 10.246912688664196
Mo 11.567549630627251 9.877287763821565 15.132475928065567
Mo 9.51315716885116 16.020610525905763 10.960149887450996
Mo 10.07845564430034 13.972177270212452 12.89680929414765
Mo 8.781312492945831 9.011225778325013 11.809880446079791
Mo 9.330556284727802 11.495326851730047 12.19070177055745
Mo 12.749716766782276 12.350550310121365 15.80472500197572
Mo 9.178890450841864 13.368511584553495 9.95700241747751
Mo 11.5182582688471 15.64346302060837 11.936928779844036
Mo 8.707422661744214 10.591601563169327 9.408944934981323
Mo 11.237852132441814 8.892805599033466 13.242473411124601
Mo 11.964038060378696 11.666180401145269 13.13944359737776
Mo 12.388223168849644 13.945733980417778 14.616461720120675
Mo 8.128601004836451 7.803637256576716 9.302413099734597
Mo 11.624989681838272 13.071990741143997 10.909380286010977
Mo 14.538128748499688 12.111968778341454 13.915919007070036
Mo 10.728730529606013 14.980492354578995 9.28360513933057
Mo 11.166665713085205 10.156961357152445 10.693554755126453
Mo 13.891175377985343 13.838926526674701 12.133865152459544
Mo 13.897898739834961 9.866813221514192 13.808857229330767
Mo 10.387796182563086 7.5684322270075555 10.758062273890353
Mo 10.907574698953534 11.801022082571542 8.635791551200521
Mo 13.469972393795583 15.098644966462322 9.960284190584028
Mo 13.310371599886606 8.639331185327032 11.406123937725146
Mo 10.168663407860894 9.006850414478922 8.433231727623188
Mo 13.790010559792417 11.256188592512771 11.189409448966362
Mo 16.0722914688097 12.629444720962496 11.602462877783694
Mo 13.256202496967656 12.762170307091623 8.848772511551118
Mo 15.9076026479723 10.053579669073342 12.300558777243191
Mo 12.962020937191777 10.193164884386182 8.760754912834617
Mo 12.384022077878152 7.8729822244326035 9.337639617545689
Mo 15.446235058792132 14.401674137813046 9.8192408404139
Mo 15.194440262145664 9.242217240787834 9.944424954438057
Mo 15.515887810933918 11.788406812973209 9.23921177607786
Mo 17.284968180914888 10.617088907492045 10.547567703693922
