41
Energy = -377.81017811 eV
Mo 10.60122060363224 15.005422389659623 10.632157565489095
Mo 11.528886623932015 14.278938180971565 12.196555431570719
Mo 9.263551633519544 14.95574471199326 7.897787221452882
Mo 7.991570946222417 13.877184825823965 10.07037927512561
Mo 11.242759308792074 14.904497016537517 7.899782108045899
Mo 12.562608456028261 12.975636179793847 9.863637794846799
Mo 11.236090266346832 11.673196138833905 13.866411832513378
Mo 9.228095977484399 12.998749096770247 12.158940738359513
Mo 13.41379344139675 12.110480772522452 12.629604401962023
Mo 9.931630253482695 12.574342569312876 9.145410948143779
Mo 13.593212793706138 10.092726513162974 13.66906943854108
Mo 14.459503893501267 11.396804811354256 8.907991707601823
Mo 7.248359204129631 12.493995511209208 8.282512774437476
Mo 9.897865049385416 12.786059994450156 6.552140213914035
Mo 11.122462180048585 11.518534976857582 11.231063119459339
Mo 8.813764871635575 10.43060718553523 15.343868496630819
Mo 7.557646230836501 11.209171743305664 10.386166752496091
Mo 12.294717813183166 12.583018180334498 7.260023135715647
Mo 11.394373626868864 9.543408348302707 14.949114960633162
Mo 11.727384528423956 10.39805437906218 8.626680726556012
Mo 13.315361731915969 10.561252305126562 6.393741238547179
Mo 13.504096556810172 10.194574421508426 10.99256589250699
Mo 7.110600782270622 11.593744545805393 12.852596871095521
Mo 14.174054405814006 9.298192236158664 8.515918433132509
Mo 9.072128049244668 10.321600663618094 12.680340431448169
Mo 10.94720227809406 10.39739164617667 6.1433259492154075
Mo 11.445152014852614 9.04914091839939 12.323193869938157
Mo 8.891102002007825 10.716914978104237 7.805836985089539
Mo 9.650433881628604 9.428082198491772 10.11790002870431
Mo 6.430208570060159 9.198318511236149 11.992643902059704
Mo 7.478129455009572 9.143594640122672 14.694918838222332
Mo 12.905067827928827 7.270246371013929 13.907510833960378
Mo 12.042914189099157 7.952794071991232 7.122272598866248
Mo 9.680231031212676 7.9776450273674335 14.109547053320338
Mo 13.791667011279811 7.573288873213053 12.226615524789645
Mo 12.0507871978497 8.002632981079337 9.940429235913037
Mo 10.16464423195462 8.12601476768977 7.6774717648178745
Mo 8.553771352253237 7.7710717966213885 11.868302103315914
Mo 11.06882254251489 6.490314636899017 12.059636145924106
Mo 7.022004084199577 8.939656957437114 9.877137357714673
Mo 10.00907558688039 6.6102006342260475 10.11829370099507
