47
Energy = -437.4145218 eV
Mo 5.656329086768045 11.823371588224298 11.49461030070446
Mo 5.619903254140805 11.40849735214829 9.649684826125585
Mo 6.072753877469337 8.430371709041975 10.31063312062621
Mo 7.977559444857272 12.24174853502843 13.439804674966942
Mo 9.756847209168763 14.215513821388054 12.237029052438585
Mo 7.909661211544608 13.017918351093607 10.58694418014214
Mo 8.917920820745042 14.383115831989986 7.601957985090902
Mo 6.951103731283812 8.06655596482415 11.911843353037746
Mo 9.748698625892617 15.3960207507016 10.265555850294641
Mo 7.713728859738457 10.308897416016505 13.669096588593577
Mo 7.797854996038817 9.478887415964557 8.3186511387109
Mo 11.502134147652772 12.841267301156376 14.24982512042921
Mo 7.933330859249562 10.497766505306105 10.903768566179506
Mo 10.23682089555494 10.459895960468849 14.52005214571262
Mo 8.06691114223721 11.928076732946657 8.362459373150374
Mo 8.86209212014913 7.821420650043035 9.909591493832005
Mo 10.07667782166068 11.492300898206272 11.9766483443174
Mo 11.810420466265956 15.593830206355053 12.125015754006712
Mo 10.732769550958489 15.111156229633398 7.606413616289977
Mo 10.507153224685476 12.259429713423478 7.134113602734558
Mo 10.039579538096891 8.104119141444556 14.599322977540835
Mo 12.312846706367894 15.114630674939185 9.913517802457758
Mo 10.522516924687624 13.108715598572678 9.678405583444556
Mo 9.88853886041504 8.951308905477354 12.200306771183635
Mo 9.748776820491312 9.729819869445056 6.518126733913437
Mo 12.445872748762136 13.294754650725077 11.735403368766214
Mo 10.078733130796623 10.326368040908298 9.258659010189154
Mo 9.963837230273286 6.47314231957868 11.641259712199359
Mo 12.524499264096558 11.590720933913515 15.3847820557642
Mo 12.486663833364593 10.41430310823485 12.771029621169344
Mo 12.577564699879701 12.974674947805768 7.93712960784511
Mo 10.991248591542794 6.221880284271398 9.63663526590285
Mo 10.400087670445313 8.159762853259346 7.58636665461764
Mo 11.737220986731815 8.54434825695606 10.342972590975656
Mo 12.27903869753523 8.64121484608406 14.767211567344246
Mo 12.448040631042652 11.29609238964227 10.035081015799882
Mo 14.394465901115295 12.475947854462724 13.410345185974956
Mo 12.239190452628986 7.4581451866801745 12.74546848071267
Mo 12.353063337760767 10.170765844115646 7.85443856757364
Mo 14.547542501384457 13.088647386653797 9.874060490797763
Mo 13.269445863759678 7.307695835114012 8.265937138693962
Mo 14.81256939522562 10.612956632224904 14.007441326811033
Mo 13.604711889728703 6.556778128609106 10.107178477742817
Mo 14.200420714595351 8.564615276066395 12.066480241368966
Mo 14.841887136658494 11.497815012023231 8.398991833780126
Mo 14.840656278626877 11.037319148885304 11.227642179999458
Mo 14.316012345629906 9.239448068405327 9.556425820844872
