42
Energy = -387.45135905 eV
Mo 11.962767665463751 7.2812284818507536 13.141808438480666
Mo 13.797773849548461 8.26985945212911 12.960034532276778
Mo 16.31982403178256 9.733528032277794 12.655683785758539
Mo 9.806388483945375 8.681483593099667 13.649658930808394
Mo 7.643903590616322 7.803265837190837 12.313093121653418
Mo 12.369902198899604 8.890278694530204 10.874090471897624
Mo 12.120748249872115 9.865068469684484 14.01711569133031
Mo 15.032661028159527 9.360316062828744 10.56673850816011
Mo 14.63322184514304 10.561839204263578 14.659391292732735
Mo 9.751787863891082 11.44716545025689 14.804927628841728
Mo 10.090330782894386 7.9533955907169265 11.268083914294772
Mo 13.702232107883779 9.40466790541767 8.620032567087327
Mo 10.6977665243087 8.762605985540647 8.630071241384716
Mo 8.073658557951621 10.40836566651045 13.21161191503109
Mo 12.195163056580009 10.415890514242843 6.610128028599136
Mo 10.375575071621363 10.721581026889671 11.95636944383647
Mo 16.212152172672013 11.608433522860265 12.025891705227414
Mo 13.428797921075706 11.596793085520387 15.81766173794373
Mo 6.445197167615071 9.346365796889955 11.676497729120307
Mo 13.411229520467002 11.127206128205794 12.001292864684036
Mo 11.682472416300786 12.561462724492682 14.013970105082695
Mo 8.604265459505218 9.720773215252184 10.377878145188705
Mo 14.262677182116539 13.018437455522326 13.55850885915877
Mo 12.979413391053459 14.490972702966047 15.694592116884177
Mo 9.677426791418853 10.34520669163011 8.006339970561742
Mo 11.974903648999932 11.200788264359991 9.486335851106931
Mo 14.614227884615891 11.613890965417992 9.65784305819964
Mo 9.221800822386859 12.990359074395537 12.858071891958826
Mo 7.642021005329602 12.078106209326291 11.138408691508904
Mo 10.769843209073297 14.542592755752635 15.285475301393188
Mo 11.823194023150752 13.32799555270398 11.421979733788364
Mo 13.493050971237885 11.781591147379055 7.016901762921066
Mo 9.703916515270048 12.571162871811467 9.992328971818388
Mo 14.28968332427146 13.799578852428175 11.146239313165426
Mo 12.918213780962928 15.192719715762994 13.564538901400883
Mo 10.995225233307147 12.742451876552089 7.692521062200198
Mo 12.96630094277292 13.663930927521204 9.015672551259975
Mo 10.441818471606812 15.243630825879368 12.90603720813066
Mo 8.339116784767262 14.973082514275228 11.015166249152538
Mo 10.848862736352268 15.059653972878497 9.380981456715874
Mo 12.15810758820433 15.850332598343476 10.875189727149532
Mo 9.195441651530714 16.594075454773 10.975075619179995
