48
Energy = -445.89969483 eV
Mo 11.072138465355927 5.835256385847226 10.891362389318967
Mo 13.657727693536376 7.75837597865114 10.324185645202087
Mo 11.48851740257187 6.764325084726942 9.222607113202058
Mo 13.855322468868323 7.185062542661374 13.139366183633141
Mo 12.849677055657162 9.071820071183502 7.789642303539888
Mo 10.955639694706962 6.465831239526659 13.7719213035752
Mo 9.186955790984456 7.020610710547146 12.780786444355899
Mo 9.290597191180089 7.997599963711131 10.16271833880765
Mo 11.670578522891805 8.16186236644566 11.91715823519554
Mo 14.128202912074233 9.769956710786202 12.06442731445046
Mo 14.488894065133918 9.70656605832393 9.37695962477059
Mo 9.953578211785462 8.688289605518904 7.673828284700288
Mo 10.251576114984378 8.870359251494056 14.401881541263618
Mo 11.566402473865365 9.867172821446134 9.798119544331488
Mo 13.153377804595875 8.543624815533391 14.342283652161816
Mo 14.913636836894714 13.049298972799528 9.143334656703699
Mo 12.742705039840025 11.534598391791755 7.76160561210003
Mo 11.70535472354404 10.689805342667043 12.88365236456032
Mo 11.506997600001622 10.640463142944741 15.502529923228872
Mo 8.008874486258168 9.298481670027165 7.932505382880516
Mo 7.570542987303488 9.69982455718223 13.83560401183563
Mo 6.752648110022444 9.517813620087859 10.68701107071762
Mo 9.367930587128699 9.70717725168066 11.935545916499272
Mo 10.511865784397763 11.133542460623858 7.263839959826484
Mo 13.12783318917574 11.802640933774036 10.478021471038266
Mo 13.69186027692764 11.542707293626254 14.151221559941973
Mo 10.121434311268958 12.390518212880169 11.814442359753059
Mo 10.84820999868868 12.814009705616598 9.407459517888366
Mo 8.841067441897044 11.232678553968771 14.289233001864726
Mo 9.003552458358056 10.89899146386662 9.543883936020174
Mo 11.048667028613211 14.046974453984452 7.1170017232865685
Mo 7.568822348004362 11.838001287825746 11.99376078973085
Mo 15.254794332898298 12.17852553879982 11.938610649353617
Mo 6.368953842103404 11.093970038567933 9.619639970944913
Mo 14.797362538779595 13.638585434364137 13.992536981047687
Mo 8.388307276802696 13.072976045238947 8.006827587528276
Mo 12.581378324636317 13.585911897513382 12.282638999455706
Mo 10.984385365991804 12.879883597365392 14.467006068371104
Mo 12.866898867206368 14.32230478387753 9.218526082050428
Mo 10.507086145933036 15.031509756192174 11.005088782644352
Mo 14.87933206839542 14.344311185390088 11.09630337342339
Mo 8.735256052142482 13.953402004799846 12.887300240221746
Mo 10.309777795465136 15.371666746757086 8.34042767262542
Mo 12.8012343869756 14.14958059284887 15.117971616954753
Mo 8.164368084651612 13.661444731704478 9.865796179904073
Mo 13.425764912517282 16.1589819294108 13.132172199034299
Mo 11.090998716386277 15.43481320906411 13.316031293422432
Mo 12.797762931305956 16.25730176703138 11.1520039146818
