49
Energy = -455.43567909 eV
Mo 9.78236577297115 7.330364926161091 15.482397153088922
Mo 11.46807088378777 6.825895223457184 14.85996515470399
Mo 8.20129195765854 7.533106856283822 11.369983051314584
Mo 11.039769514590011 6.639467226540179 11.534149442486468
Mo 7.5163433604075225 9.190235994481238 12.58953869532361
Mo 11.559541141055599 9.495221837861706 15.404737146725951
Mo 9.125677208351863 10.30642677559815 15.138858194944387
Mo 14.056337554627788 8.50593507616452 14.873499948475606
Mo 9.964227852980084 8.663273200989519 13.143340713504758
Mo 15.103546138205433 7.475940706262194 12.321686431109793
Mo 9.95117860144044 8.058507514229 9.33515014703793
Mo 12.589601643832788 6.819415264071266 10.482084292691583
Mo 12.786687495573856 8.549542599793291 12.916827776547892
Mo 9.0807863001405 10.322746255640126 10.954548335025802
Mo 8.385762011515125 11.963557514509233 13.086929794505245
Mo 7.12828998802926 8.969367733924255 9.618481282962499
Mo 13.466502916972113 10.694859155663343 14.555711575534973
Mo 11.0478488882293 10.997308889854759 13.08560415644957
Mo 10.74814146805639 9.13516339695736 6.4681646070725
Mo 15.539810864158667 9.388399160566145 12.517024261975582
Mo 6.565961748426521 11.523339418980944 10.908256785229437
Mo 8.23726383588711 8.95501330543418 7.71958547801363
Mo 11.646961071005741 9.439419388268037 10.739262160028167
Mo 12.352588857904129 8.695482428847068 8.15041154380917
Mo 14.357362604108458 9.03591453936792 10.041231209031805
Mo 10.391543064270174 12.050784846220267 15.224072922940238
Mo 7.9330941516029725 11.461914535772673 8.459911591328533
Mo 10.31601977527401 10.57572563872198 8.614534794618475
Mo 6.227755559140121 13.280580093600586 9.98534848438801
Mo 9.530112822697616 11.71360044267887 6.17801774594773
Mo 13.53502583657454 11.09193166842346 11.799384120287382
Mo 7.292903144695895 13.96503638871938 12.368430324192072
Mo 11.294945608862566 12.324006370709151 10.66180879189472
Mo 12.90891204175391 13.4941736133331 12.547619377350296
Mo 10.209881806830946 13.546528698793997 12.950064177570313
Mo 14.659701239298412 10.029175780822438 7.20382550519954
Mo 12.947777851254473 11.322319504307451 9.034604201743255
Mo 11.963541996464343 11.091441064812567 6.452964249379672
Mo 8.894603712633272 13.203986781015814 10.442772013836397
Mo 15.368653024397124 11.027193328030425 9.872928234756552
Mo 8.111882480949845 13.97523335213744 7.841090553592215
Mo 10.370594458807457 13.089384517500312 7.8148836384789115
Mo 7.589012558036517 15.81663102833762 10.28139062021479
Mo 14.078020247034774 13.520794160729011 10.60979362842655
Mo 9.114948278778357 15.685637961520744 11.852083894617714
Mo 12.779705843351785 13.932752541241005 8.691053784882746
Mo 11.44025968010968 14.76670360748737 10.581446781139261
Mo 14.79799953875908 11.925317882918185 7.155834860778046
Mo 9.475987902398893 15.504809353795148 8.977391949214331
