42
Energy = -386.46903526 eV
Mo 13.118599715084033 15.410511037628357 13.093181136690605
Mo 11.036419175860427 15.733444504480628 11.175351055819647
Mo 14.255512972137678 13.862933612872023 13.375079124526271
Mo 13.12433402354867 13.944805638130061 10.769111488834238
Mo 12.00897535744482 13.84826145675082 15.421450292282607
Mo 9.579869749000894 15.629783256730423 9.8555627783264
Mo 10.374416057982753 14.792067504394684 13.882455898713294
Mo 15.281154055047418 12.26331611184208 11.315361956354883
Mo 15.287183732300255 10.938823032553486 13.814591907307117
Mo 11.394311461472938 14.008420614663663 8.889768577943846
Mo 13.980244281236391 12.19736814914585 9.063440252460511
Mo 12.976359760648931 11.777206127820621 14.589428535758078
Mo 11.619083303119307 13.02515740409572 12.667460183460873
Mo 12.274813207918793 12.610219510241414 6.932197941933012
Mo 16.436501030850877 10.790532592444984 9.448562259108678
Mo 15.851113189220364 9.742465911415595 11.356285228655537
Mo 8.950253917997872 14.072709501849094 11.945996744670785
Mo 9.041330501250277 12.939387895194907 9.529161630056748
Mo 10.262447983743606 12.348524290680057 15.019946241516873
Mo 7.750745815607458 13.034408591391676 13.903033068906147
Mo 11.537237022250627 11.636550486283062 9.649158550042248
Mo 9.548246581439184 11.579103733867049 12.06934237796442
Mo 14.393105623061762 9.735383464693363 9.06852075239606
Mo 13.236157698727869 10.978939919380618 11.665108665050354
Mo 6.804855093179198 12.423594351688541 11.218981321714836
Mo 12.539101394296779 10.39643941298245 7.261399648385731
Mo 10.070802735112212 11.753079199323377 7.459373111567385
Mo 14.125248767481555 9.299583164329029 13.733781272429914
Mo 5.904690991169615 11.604163990765668 12.81413769513511
Mo 11.198690803512665 10.20261845764838 13.859045225251325
Mo 8.275446563645255 10.909449986461683 14.304504063301422
Mo 10.696949685131775 9.35246581845564 11.116608431329029
Mo 13.530846412014007 8.497851783333738 10.972673030310327
Mo 8.610070463379051 10.602789618630117 9.56803022538072
Mo 12.661563592795105 7.647129189064268 8.278615121275454
Mo 10.58002290909686 9.414977731560596 8.264543603896861
Mo 7.607367278081298 9.844184831873005 11.772164120021634
Mo 11.913572401883068 7.917735163431684 12.786124766952618
Mo 9.155412031758855 8.511677012180895 13.196847330386435
Mo 11.513234977510198 7.140077899719514 9.730357189596813
Mo 8.73560607857692 8.05651114584168 10.320266825281923
Mo 9.937011037581385 6.704256327318709 12.02189980216358
