44
Energy = -404.25836814 eV
Mo 14.019853168166955 7.5670983857849725 10.86835518350347
Mo 11.76416494743371 7.978477842204602 12.109957283895236
Mo 12.082891610151314 8.551781990947928 9.461271271409021
Mo 10.534286171500028 8.20181796951372 7.535976360950836
Mo 13.975883410137403 9.382948153053135 12.455963379644464
Mo 14.320422942251748 9.777723124588906 10.007914359565996
Mo 11.083348531583649 7.016644332091123 14.334427194450507
Mo 16.016787126739512 11.357319123777172 11.821881059908565
Mo 12.697214914812267 10.133462495300135 7.57495686127474
Mo 11.122747726331095 9.656586907982284 5.9259787337194565
Mo 9.254862684255272 8.47178454253528 13.560439737307549
Mo 12.671218193589736 8.399594846031198 14.698150619381298
Mo 15.808897251869475 11.206234478336118 13.72796480354475
Mo 9.822365471472386 9.401447788920963 11.17763605712328
Mo 11.346582348953115 10.471091658909065 13.127291556115559
Mo 12.251959212777056 12.614442001208262 8.32736272741868
Mo 14.61204644912551 12.400504665831123 9.511325458811395
Mo 9.965235386670349 10.345834142229597 8.444156791467258
Mo 13.184994317988302 11.113406295979642 14.78149930962919
Mo 10.455800985586006 11.916530440140734 6.751061542916986
Mo 11.864759318110318 11.025481629164208 10.382170716881582
Mo 13.600572083471226 12.086623383538972 12.108258075992795
Mo 9.565536536209343 12.686176576949075 9.35059390937728
Mo 7.976802084980949 10.975098607179406 10.449470631181374
Mo 14.798583686569083 12.72383961056137 16.201715910937818
Mo 6.724694237236707 9.268967385547898 12.021438030935643
Mo 13.363507122613875 14.853471573478918 9.017604185110443
Mo 9.83431801050367 12.415429177385102 11.954340670057132
Mo 10.596084025976692 9.761850803068604 15.229954898080022
Mo 14.059268485156545 14.384705171004446 11.770039321479121
Mo 10.624491432236582 14.82809494068533 7.96732742971577
Mo 14.70172080358777 13.658305516332417 14.597102515487862
Mo 8.427353230498623 10.83226436648876 13.384180209165962
Mo 12.024296771027451 12.831118068357664 16.016832843608114
Mo 7.436658726825666 13.307460451634677 11.702391009229608
Mo 5.946441589220446 10.994805468853531 12.413323187892525
Mo 11.168601670110734 16.324946876711298 9.131813401953254
Mo 10.062082004032888 12.507060109063904 14.864172644167478
Mo 12.018613778070275 13.504245979904049 13.569876165384935
Mo 11.768284315509147 13.987960651510212 10.692331493260276
Mo 9.821202658630042 14.725745876804034 12.944140050429404
Mo 7.819780536629435 13.349756139771097 13.854850680025917
Mo 9.35791988335837 14.869779320239486 10.489243313583795
Mo 15.614091354652238 14.299308327012369 9.85048561063595
