47
Energy = -436.09163118 eV
Mo 8.804631621412188 14.933783344440124 9.634838311295715
Mo 8.50396082948864 11.910966390979398 13.851522222198675
Mo 13.38105737278604 7.965601903958799 10.811843221346976
Mo 12.64519674354042 10.764478316872175 10.766446173450442
Mo 13.225678896924737 11.364827154394586 13.374527143986212
Mo 11.44509823015456 15.577890623613987 9.170247629766815
Mo 10.399353680723273 15.327283817266038 11.263101974537356
Mo 10.66588691944443 14.186137959784574 7.041896788207217
Mo 13.699106256965385 14.463251855879658 9.833055759667813
Mo 10.874711002635989 8.788839247122944 11.877728362830165
Mo 14.276014870655155 11.95215048013155 9.2061243457104
Mo 13.792413284648458 14.24935227723909 13.938813203946829
Mo 14.550966785651761 12.8091653850483 11.576403050821574
Mo 9.395936748971554 6.660491817868655 12.534823477092667
Mo 7.283408558901025 5.714219744867149 9.242819505843206
Mo 13.359021447481714 8.875271056924456 12.914666234167953
Mo 8.681477847303045 12.893329292284035 10.972848127643218
Mo 11.370181791746198 7.461942292947994 14.358243638187496
Mo 8.102678173500012 10.0994629630994 11.70676878796457
Mo 10.315556945844158 11.50770486978906 6.891853313004218
Mo 9.924239344195735 6.411649912102529 8.430853078343393
Mo 12.09991267953794 6.359092730932815 12.907115169183692
Mo 11.006759353075466 6.276062961132862 10.218819117575315
Mo 12.036455296054655 15.209125876434967 14.056027304050822
Mo 14.7448076444042 9.579435942404038 9.238019975669316
Mo 11.100417593569974 13.054249940976797 9.52739912273171
Mo 8.601696756734174 12.82361915653167 8.188656472285318
Mo 6.212071836443791 8.30897518977405 9.91231818878633
Mo 15.261810658781206 10.199809705390466 11.261757459677455
Mo 11.403002266457314 12.857243184711578 14.591991897847057
Mo 9.613491027153099 9.236037171093221 7.658520700722119
Mo 12.073328559651475 13.416702738115125 11.961326173684585
Mo 12.295294795071888 10.767183614673325 7.943469718055024
Mo 9.958806014499304 10.6190906969975 9.685802669793915
Mo 9.314803903637825 13.753150181494457 13.356239036788173
Mo 13.208836189839477 15.714088009382635 11.460746862059617
Mo 8.979143944658663 9.049186552327077 13.715384298379615
Mo 7.3499458321824385 7.606927601977141 12.465351545209757
Mo 7.471196153838427 10.664567526860074 9.113034872567566
Mo 6.978756737194324 8.238175829588616 8.038559648701975
Mo 10.470258101951323 11.362978467595616 12.326112682420312
Mo 8.815980240511264 8.022099874422079 10.139031345652104
Mo 12.534716704464271 13.466976992306256 7.228917054806378
Mo 11.269694205788872 10.26373099974543 14.412148133574322
Mo 11.717183345255556 8.586861449271593 9.064333883451464
Mo 8.382524569534526 5.093442308535951 10.58524456141432
Mo 7.695750688198873 10.846607042174437 6.837470206364339
