45
Energy = -415.01513225 eV
Mo 13.699862923683973 8.93821896395849 9.743671455841366
Mo 11.35221812139607 13.223289970292662 8.653387280197943
Mo 6.231798393342985 11.779078691474743 9.931910054181754
Mo 13.249963641408588 15.863407808080687 10.909511422160575
Mo 13.634180490459354 11.506188665281941 13.878140263796418
Mo 8.983210891450963 8.875979663131119 9.73272865314302
Mo 6.885628080755014 9.663762783700134 11.662473622319293
Mo 9.035119255993674 15.801544182996084 10.849755085812332
Mo 11.345188671365646 8.200820534164285 8.28176126524467
Mo 11.321693808372018 15.58202982235981 9.78068600221686
Mo 9.104028524457119 13.80160878845518 12.600574414864175
Mo 13.563250691648738 9.029925668373616 7.555202127164478
Mo 11.546839463613031 10.794387254721041 15.111347507637657
Mo 11.32971164502643 13.035761117260845 11.087550180098876
Mo 9.055884796891085 9.070921462393004 12.403487858230639
Mo 9.319062903721521 11.49778000451647 8.450408381861598
Mo 6.937032750797936 13.823624665073947 11.472610533577736
Mo 11.300537977335638 13.399677882290723 14.408511136565943
Mo 16.15744550610528 9.768180737645032 11.57556309930511
Mo 13.648286527813593 13.990248997067383 9.747882530469509
Mo 15.925177333562383 12.288240371740335 12.66017377831658
Mo 11.338152768837325 10.671223006788233 12.571034384127382
Mo 8.805643386063775 11.44068404386784 11.062319674632692
Mo 13.855099157700552 11.428843135869634 11.098458615195563
Mo 11.229860827483549 15.041648969516928 12.86352727534485
Mo 11.352786299115406 8.20364872696379 10.764772088290504
Mo 8.86870491799586 14.061984060414147 9.745469876828292
Mo 6.8335831444394906 11.967246966038681 12.837044535746761
Mo 13.867820032363687 9.251701754624312 14.942685126300274
Mo 13.471476449993084 13.772263091893064 12.678159220158287
Mo 11.332110664778911 10.557951580881188 9.968636941652035
Mo 13.693063318187388 9.065867056483484 12.467249024789089
Mo 15.580850450799977 14.121150628237658 11.595870665801243
Mo 11.258866719944233 10.57431960632412 7.291823844464728
Mo 13.385204788805513 11.547043471020514 8.466622459702721
Mo 9.172622451587177 11.669910817970571 13.868027984468029
Mo 9.068235705595797 8.976698485744878 7.540003669622909
Mo 6.82650155006113 10.327580210835372 8.905739499993995
Mo 15.745524224629527 10.500363737357834 8.828911507885076
Mo 16.079969720909496 12.199072294399627 9.690350762078584
Mo 11.511740134829799 8.352060246268415 13.534378456900958
Mo 16.168375019679768 9.615800346337737 13.524822760026513
Mo 7.1087360693819805 9.684379178264544 14.346960222845613
Mo 9.046906208204907 9.30120497955298 14.892921346458952
Mo 11.824625876364479 8.608232575676379 15.909673095691955
