40
Energy = -365.42114171 eV
Mo 16.21799531940641 8.755673236119032 10.171911210879674
Mo 11.829047503876906 11.36170829159767 6.965458355153492
Mo 15.047033976592026 11.107390120636643 9.644647054778211
Mo 6.985504012825237 14.138087687698949 11.951464685979342
Mo 8.7307902291534 10.090476305858543 14.2465124663098
Mo 12.142910876974227 6.7580435972685695 11.76740864890463
Mo 9.7066851681927 14.533118552403579 11.773196474219603
Mo 11.565954583645814 13.243924525321827 13.573315332041695
Mo 15.057263766961176 13.96828813870471 12.377433826566785
Mo 10.60647527567698 15.966939148934754 10.096619864130705
Mo 13.102917171446792 11.867490631086232 11.912629425022738
Mo 8.826952464111846 7.471657715871341 8.045583276505411
Mo 8.929349741152617 10.047703868451203 9.156634439846679
Mo 10.012238015247695 12.094018749769118 10.93700395326235
Mo 7.832507627375977 11.057292450330806 12.350661193894132
Mo 15.246261121953903 10.344625389960292 12.39477727211552
Mo 12.520697865071812 14.832482326024596 11.715971664627173
Mo 9.026812516528215 9.017566666959025 11.500683982206604
Mo 7.45984334805389 12.238624494286714 9.775410458466189
Mo 14.446430219936206 8.221886493123739 10.62768549139153
Mo 13.997247021762345 9.847956649209882 8.426627223459924
Mo 11.010975161741468 9.427996314340083 7.961514019092486
Mo 8.932698046859207 12.876480703051795 13.73901017317428
Mo 11.679057705998918 9.469049271828633 10.50881090341555
Mo 10.245899818510747 7.46670809154094 10.116103123040475
Mo 8.372660452749416 13.974939835792657 9.315157962112766
Mo 9.780878244394486 12.105944952013141 8.122003796676212
Mo 7.463054355195481 8.049965141006886 9.392499472565314
Mo 10.885402053367283 7.704029028766947 12.979894214265068
Mo 10.192636799956675 11.999595471427892 15.374733167695917
Mo 14.1637959646304 12.327981810332417 14.136868179179734
Mo 11.222101417323243 14.054641906599306 9.382474720558278
Mo 12.37809047286802 11.605193797690092 9.274242078643779
Mo 13.184186452786092 9.09097235259523 12.848745994910823
Mo 7.547311185227299 15.15653720331511 13.389293609287645
Mo 13.928917385266043 13.615605020014701 10.206045763078821
Mo 10.683135059793523 10.588077260124733 12.994891477128487
Mo 15.098383336420092 10.1132264643593 14.607918790290634
Mo 13.725643243479348 15.00933310131839 13.775355390320101
Mo 12.435928616020293 10.620440832799915 14.684474463336159
