49
Energy = -455.09019233 eV
Mo 6.257330517747875 9.012617151842491 10.258336149343439
Mo 7.832391393645127 7.686090595416784 9.389834369087104
Mo 7.302517275490747 9.761650434476081 8.013664664151161
Mo 7.5370795060154805 7.900603055848968 12.270704878094095
Mo 9.162792143453641 7.893593916644008 14.193824145121214
Mo 5.4933830209077374 12.163881410786798 9.975026845602617
Mo 7.264798230813463 10.656843963470449 12.11185683564947
Mo 9.971242451115526 7.5083295786011695 11.662371142602879
Mo 7.319873150901368 9.386316286777662 14.287274182465788
Mo 11.872127336147763 7.122474877407849 14.037515114660387
Mo 10.828416805635554 7.634921387228241 8.997972192241312
Mo 9.04909116897951 9.553317430895222 10.565604074719648
Mo 12.683316190734363 7.650861456774456 11.295255490714036
Mo 9.694824278214117 9.650624124964981 7.958062297559082
Mo 9.483283559770493 10.674141163300307 14.307927636504077
Mo 7.949058738554814 11.695693443321126 9.326142554248571
Mo 11.396390714990504 8.528774042420793 15.4412099569467
Mo 11.077243074255398 9.502187121757988 12.80273750697804
Mo 9.64511467434415 11.906985857223132 11.924217976609501
Mo 14.919640878621035 7.946722551094533 11.806749920806233
Mo 7.369284570899691 13.13343883544487 11.798456629930058
Mo 8.061224696309297 12.99095730693201 14.09863080881705
Mo 12.267728905610788 10.020741612690893 7.761455073455854
Mo 9.158606875063201 14.337323292012758 10.324944084858537
Mo 10.917094950042667 12.930442771117058 14.065844924234908
Mo 10.634797298157649 12.098332865772738 9.32756676176147
Mo 8.785225188926622 13.788159787018065 8.116629755258304
Mo 12.426438193831991 11.098606200398512 14.669471898915441
Mo 10.218102884752238 12.005782862658862 6.868918839710113
Mo 13.098767425957154 7.792361093069487 8.66332281241006
Mo 11.661414914353895 13.79795359227225 11.52973914879194
Mo 13.59463026858254 9.037623196592698 13.625207811990212
Mo 11.664015642960177 9.833209108271339 10.262550290385832
Mo 6.150751559010301 13.76904346328841 9.23598922024067
Mo 9.406406117552077 14.545890763216425 13.179862552523359
Mo 13.079396455295699 11.556492118856204 12.069938242848584
Mo 11.43443715710324 14.770864408786052 9.496428240794584
Mo 13.32590407056376 13.72690656223751 13.811643313892615
Mo 13.229923537358856 12.293080818958034 9.182912584920002
Mo 14.226445500870328 9.709396256141547 10.146182776038328
Mo 14.646855604703614 12.001098758556786 14.379839313604139
Mo 11.55095103164733 13.807323247780907 7.0830117124190926
Mo 13.201106956066116 12.164039979347818 6.676667591184879
Mo 14.266080671119308 14.243472153424227 11.110412279791246
Mo 15.305429270040213 10.549227305871941 12.334942751484279
Mo 15.062266575110609 10.38943098739858 7.76526980824287
Mo 15.654691767899731 13.575910320192634 12.315556348780175
Mo 15.586362849439343 12.40860456347819 7.607292679288311
Mo 15.507598678441381 12.01951064596954 10.09687853733035
