48
Energy = -446.25726274 eV
Mo 13.990894019526237 7.695106322595482 10.787477230766907
Mo 13.962957135582334 10.172703194878912 9.494707435389055
Mo 15.626700519281497 11.704850596219663 8.772037840963769
Mo 13.519698889412373 6.111132055624254 12.322863431960476
Mo 12.076194326932793 9.754494530044632 7.330979323701552
Mo 16.057136825192664 9.904237183101483 11.221903020567854
Mo 13.181444830575074 12.11636584167008 7.79001120585488
Mo 11.81745260939257 8.537011727437166 9.65321795238208
Mo 14.3314778084905 8.669923505885242 13.066295353662456
Mo 11.39732586650873 6.719457486082457 11.443156994138173
Mo 9.987261506251938 9.514864088134262 7.760844671020604
Mo 10.49090518234305 11.910279994613596 8.16903577997382
Mo 16.516162629289163 11.915316818163285 11.501616618460039
Mo 14.307079830773993 13.080627352644516 10.160667287628316
Mo 9.263590573349296 7.702188710690229 10.189781589646106
Mo 11.998390926716896 11.492306314148447 10.324114546502361
Mo 15.646639625062983 11.192797993986678 13.849652626015994
Mo 13.869647664093453 11.316442671080775 12.173368719465067
Mo 11.894510333632061 9.367611872163739 12.135254239299327
Mo 12.089653631525188 7.528876105568307 13.849409615890032
Mo 7.429694162101014 9.058509357579025 9.18029521633751
Mo 12.188523819180109 13.9511870772136 8.996783230554678
Mo 9.667639865756898 10.237806145926863 10.298372212299013
Mo 13.192576291408926 9.935242050741472 14.80289090747495
Mo 14.951086298682885 13.94533345303456 12.749194691998314
Mo 14.109895746122527 12.783132302113767 14.565330684368412
Mo 7.9607328477085435 11.588384924617328 8.999814888408121
Mo 13.699116300272731 15.718061096177518 10.90351678648752
Mo 12.152917809710644 13.83720048857957 12.038753726183495
Mo 9.871723460522071 13.193000019740838 10.621785000914027
Mo 9.316734547810565 14.406800982948285 8.498678252931658
Mo 13.137371785422648 15.521940031145505 13.608839423410528
Mo 7.242068554779949 9.660597998754987 11.406486764327667
Mo 9.304079267129184 8.345317362591507 12.493158377564058
Mo 9.501666154859288 10.988882346639722 12.72299296916159
Mo 10.677627315350927 9.393132381394373 14.76735394810643
Mo 11.748234832467656 11.754262524397141 13.675638220731646
Mo 7.377193802913513 14.153609732480575 9.545529917444489
Mo 10.963122059125867 15.794342213390362 10.45430459073474
Mo 12.538235413139757 17.314352931925736 11.831809291145332
Mo 7.6728165358511955 12.319386189887526 11.415543589318967
Mo 11.47371978890346 13.849842193662338 14.912598579934876
Mo 7.180480883334366 11.461404724347119 14.041991432825645
Mo 8.662030369822213 15.35660783598792 11.255205391054893
Mo 9.740155053242267 11.534108431913902 15.265992246514333
Mo 7.74831110412088 9.643113161645395 14.405779454172482
Mo 9.588857144021432 13.732053245574136 13.39678318968531
Mo 10.68732219950157 15.92485257805143 12.957239679816505
