42
Energy = -389.24295129 eV
Mo 15.221209056062547 11.678388959289341 9.701919248435942
Mo 12.836770208780578 10.023884595564608 7.29497720038198
Mo 14.923895447857513 9.97480325844679 12.212381713012544
Mo 14.407435331162327 14.084164847472481 10.269648959743094
Mo 13.904454143365294 9.826572188032312 9.874277232416757
Mo 13.058813200972468 12.46931398243416 8.754451967206617
Mo 15.52214721968776 12.599371440961475 12.64614186672636
Mo 13.470453770166843 7.814966294915611 11.811404396626457
Mo 12.717766859182579 9.948186377389428 13.52983270404833
Mo 11.913209367412565 8.10300233013133 9.19863044057755
Mo 11.202242479145628 10.909703610335669 9.569172885704436
Mo 11.424977852019069 11.17716132012209 6.687797339518288
Mo 14.141685535157775 11.976110199106584 14.298868347219019
Mo 11.602543391495061 13.613894465589267 10.930018319663716
Mo 12.740533674365347 16.181154952103526 10.498636787666777
Mo 12.24888489899282 15.255383049613473 8.780238532820086
Mo 13.222085399276885 11.704222054297986 11.605250281487956
Mo 10.417939444069308 13.281321846461463 8.255589772884534
Mo 11.392391571382886 6.061155576482727 11.497963345667761
Mo 12.275430313042357 7.420276959685634 13.767353141170366
Mo 13.744274503445794 14.265749488104483 12.504533800184488
Mo 10.124043778032481 9.11991795069822 7.982177000841709
Mo 10.041594454831623 15.34525440893283 10.381729856122464
Mo 10.844258538136403 15.501447209027416 12.81632730789338
Mo 8.897074392762434 11.630000022726472 8.039202895496787
Mo 11.222442563533296 8.90905842975069 11.55705742618864
Mo 9.511210811942714 7.549456549929413 9.918391385796484
Mo 9.716591858400896 6.656659074446097 12.382701742808488
Mo 8.77820925416672 10.104776057829264 10.321629185363818
Mo 11.826572695488371 12.92229461697269 13.837215595495724
Mo 11.09814924210243 11.018843633115429 15.325153994181868
Mo 8.952595650381172 12.861097938909667 10.415219165846882
Mo 10.414526191620032 11.349305854405786 12.389962681854753
Mo 9.427349239105313 14.018697814458784 12.81768692253496
Mo 7.225704185935619 8.787387934104533 8.754274600306468
Mo 7.152856346486506 7.77191210229691 10.579337812141173
Mo 6.509938857521334 11.5102375763639 9.635531420611713
Mo 10.26349633322316 8.835577227559767 14.142172251609155
Mo 9.068704684013797 11.516915114012434 14.407371500669575
Mo 7.597302379096236 11.969819652652173 12.263011750857302
Mo 6.0234554492128485 10.293072360104143 11.092778563638552
Mo 8.442327833851888 9.338338339393776 12.652340906440713
