40
Energy = -368.83613744 eV
Mo 13.143398374730507 11.388357416284114 15.289626957958545
Mo 15.284602959581035 9.980440616986515 11.043021513076592
Mo 14.77893622992291 12.196502084233611 12.70747563501922
Mo 13.770224690519598 14.838210998512263 12.24578366996419
Mo 13.995737525258875 13.9830044482024 14.345015671465415
Mo 14.477070602131903 12.96306119734125 10.569171130653526
Mo 13.755957877650866 10.891630278101273 9.075284683177196
Mo 13.160060551677399 8.467557790268007 10.65294341418355
Mo 14.156112605265013 9.748988672460776 12.978752981504813
Mo 11.727315689143031 9.136342113347782 8.646174511639645
Mo 11.08074363942369 15.60589581580137 12.703867873479322
Mo 11.475818074840378 12.365366683903517 15.716394141885747
Mo 12.66049502134718 11.051191183081047 11.330764481236214
Mo 12.008609902901325 12.963464575138989 13.233451404558586
Mo 11.983625510694942 13.785868003320235 10.577403851457031
Mo 12.919420246472695 13.160386075635536 8.28277204753827
Mo 11.870672029143904 15.494965571190583 14.441085929055486
Mo 12.434074240140244 10.86683791426955 6.690849604465728
Mo 12.139657095353362 7.889566380083724 12.961221785326382
Mo 11.393543887300636 10.241110519652285 13.750307589054119
Mo 10.077489989470392 12.051439582650977 11.698401913595719
Mo 9.201334247874783 11.396827471275742 14.17213379899926
Mo 10.941681863353997 11.594162868207462 9.071808160133903
Mo 11.397040585744834 6.787295395433325 10.306307788696483
Mo 9.27186282484758 13.79998379496131 13.798437887000334
Mo 11.33186369839287 12.590034280556628 6.466764928645609
Mo 10.48335239398779 9.206618862022179 11.149263983002166
Mo 9.296018332938596 8.78566130604895 13.36591142797949
Mo 9.4340293782049 14.510877024133691 10.619393585753047
Mo 10.07295707740786 14.205727826093481 8.617688616460656
Mo 9.667829364302928 10.095236886799723 7.026840034350327
Mo 10.193787413360573 6.673016592818942 12.449505289075335
Mo 7.6912938243967846 13.228648865433684 12.542894120615527
Mo 9.676184566150479 7.584609725201972 8.807594716997698
Mo 8.305533754813593 12.296669694709026 9.837597691632654
Mo 8.783638373770314 11.998181405132526 7.365080966982963
Mo 8.540396993458417 6.074533320652935 10.458336354626915
Mo 8.694109884460707 9.847609499824463 9.265842321643955
Mo 8.121085467847749 10.53520580007697 11.965143129842152
Mo 7.846138729358461 7.823553378767797 11.036709707194738
