42
Energy = -386.91615088 eV
Mo 7.992706839524515 13.23728318552822 14.27502774301428
Mo 9.949665041432668 10.922387298451142 15.300164919111957
Mo 8.869809994450438 15.003886706710015 12.270903085265244
Mo 6.705734496811435 13.039551981126822 12.877331355562193
Mo 10.755254747967866 13.041522241521829 13.816481966562618
Mo 12.684609739187424 10.933683598036968 14.947547682930898
Mo 8.639852198848448 10.745645200416533 13.51022345483915
Mo 10.755676191381335 8.860682776451357 14.164323704000592
Mo 7.287883341942885 14.464877234252535 10.170678170433657
Mo 6.436094004701126 12.799539410370022 9.977072878981415
Mo 13.149937589803901 12.896721154250388 13.655578869931482
Mo 11.48067966096645 15.083337443787078 12.28886778903187
Mo 9.135257789100882 12.700876267710568 11.644930912680888
Mo 13.345187416840243 8.042948084723296 15.200146883638897
Mo 7.503602594601162 10.486976590926076 10.935752043353228
Mo 11.28256638684117 10.7679849695362 12.699920532253591
Mo 9.324812613025253 8.754118190715136 11.893013045604816
Mo 10.17889553176644 14.797737629701475 10.073613170665652
Mo 12.120907611660671 16.349967562239456 10.349645584610851
Mo 9.008092986551183 12.32195528902727 9.052818359416738
Mo 14.031766597955778 10.028979454588654 13.291875166463845
Mo 14.646341134953136 7.420314346617731 14.029839944242651
Mo 10.343369904515765 10.353774711527679 10.270726447587688
Mo 12.505168680889332 8.001672782197932 12.428700678564265
Mo 14.22092375646951 12.08526528509239 11.550777735747722
Mo 12.966430532655284 9.868338448399827 10.654688218122288
Mo 13.69675722250966 14.631674093032922 11.212539439002612
Mo 8.485414876283432 8.329047308035664 9.332179584944988
Mo 7.120356993776897 10.232927880033312 8.781290783526764
Mo 11.743855787352645 12.757429888350252 10.871535265277014
Mo 9.649608863025474 10.073235382162038 7.774448872133348
Mo 11.029201892853601 7.589808413204072 10.270344132692266
Mo 12.518289742640128 14.26789083791013 8.921461311202158
Mo 11.060349131625546 12.219234589004278 7.737485901062952
Mo 14.71258874259263 7.997081021285431 11.1708556421409
Mo 15.707775826128312 10.349069386942382 10.07351433704131
Mo 13.40520339773865 7.267698065602622 9.55332392328751
Mo 12.016492035583866 9.3820245459072 8.28589354814466
Mo 10.429823499042005 7.444104560898332 8.079253746699745
Mo 14.971073895992749 9.384544400459715 8.587630442708347
Mo 14.89220183169938 13.464984074588218 9.332183141095225
Mo 13.38300837273633 11.75558770611949 8.828229249836705
