40
Energy = -368.54743351 eV
Mo 12.746243812360087 10.352702428210383 5.9729462041949715
Mo 10.355905080755452 8.443758846927883 5.819348816967038
Mo 10.192949338448814 10.679438984961953 6.794536271123166
Mo 12.685781466007114 7.712485398609391 6.994247214308501
Mo 12.759119631589101 11.7397753212253 7.315802946054754
Mo 9.934186908461461 12.818657443989183 8.043912433633535
Mo 10.215641843686198 6.03630302568981 7.096431176482845
Mo 13.33342862078474 9.346555040826752 8.537213944143883
Mo 8.45406112350868 8.430914830921926 6.8703015942205905
Mo 10.515902863903307 8.490286656162931 8.562023666792694
Mo 8.434456527741514 10.822714666879465 8.662990964940153
Mo 7.627623401201984 13.58785397413344 9.43142440966114
Mo 11.787703439389107 13.414108543560332 9.64454047227337
Mo 9.267966705226886 14.805936038315531 9.649124810771493
Mo 12.230298821889734 6.639862535772199 8.94363616488877
Mo 13.583968209463679 11.38121618266677 10.333390858323522
Mo 6.859548752625753 10.850700825834016 10.75374150053681
Mo 7.78891464176085 8.50477739988515 9.436230804772087
Mo 11.129188077161965 10.899005122778734 9.447296441148886
Mo 9.20234188877299 6.075657171079044 8.730115908464246
Mo 8.390831186591836 6.819591577356472 11.48515719383557
Mo 6.742136665222068 9.117414173598819 11.876820579017107
Mo 9.305777466617938 12.367636188690733 11.039813806682528
Mo 13.196980742284046 13.510658639867334 11.559015047152483
Mo 9.490933616744732 9.403075137471275 11.088412114728355
Mo 10.450744698313883 6.760590473277221 11.173035063627873
Mo 10.816150602032408 14.011819904941152 12.113246817833206
Mo 12.316028351017081 8.750243661869904 10.746916594563789
Mo 11.581813015132916 11.24610715724688 12.223308972848193
Mo 8.038769023787397 14.792662250993162 12.143123790154334
Mo 6.878654578748223 13.29259211974082 12.30054106663185
Mo 8.491383618450314 10.868024499350776 13.023000579520064
Mo 9.22912984283534 8.207837545468593 13.491489343538987
Mo 13.993121195544738 9.773667826804232 12.05287476200494
Mo 14.00178192137919 11.9078447408001 13.57391950010285
Mo 9.130219609991265 13.097213686623702 14.043686125461617
Mo 11.397709045168178 8.473482138959227 13.145860081352687
Mo 10.423222536837132 10.617755900335323 14.468615541513632
Mo 13.065009442047662 10.475500423866979 14.592963690935584
Mo 11.433900351951374 12.953100179743219 14.298471390228869
