41
Energy = -377.90479982 eV
Mo 7.9054253631016005 8.493797219200541 4.461265374280129
Mo 8.357896013955393 11.363689881898374 5.325573380054974
Mo 11.710592230987244 9.48957780990222 6.044271623659252
Mo 6.724336766584696 10.667041595486054 6.178273417021776
Mo 10.01330752135128 7.034269987071895 6.002305674496257
Mo 7.106552958941788 7.638950839303306 5.908437252568936
Mo 9.334315595311766 9.32055593808988 6.6053597965539
Mo 11.498937193536738 7.889094645169053 7.976332698422041
Mo 11.259721835648485 10.86396035483713 7.957634242807668
Mo 8.382078355568137 11.707763261154849 8.19136498128854
Mo 13.43846891808017 9.84688157410728 8.423078643951495
Mo 9.51799201630329 9.234077691479118 9.337495261455151
Mo 10.482698146371815 13.079928985182272 6.7934290899561764
Mo 4.548508535201397 9.63510577706965 8.111383182617814
Mo 8.908845802466466 6.827283466538035 8.121842152652485
Mo 11.109187310447874 5.545549714028354 8.771478295729171
Mo 5.45450563918225 11.153429876559017 8.88583343733049
Mo 5.860981389472702 7.1256271992526345 9.374721159940709
Mo 10.025391753717154 11.586613435262894 10.592406541810325
Mo 13.22429237349832 12.659569678034073 8.254353361256406
Mo 7.135975278836069 8.989815095797782 8.378996217317074
Mo 10.392854081194477 13.62759563336653 8.644494788451333
Mo 10.612771625994199 7.0262369586142075 10.6363698106805
Mo 12.713176162303792 12.244330355036738 10.062431452733616
Mo 13.411551632257641 7.079705040314903 9.98028576314473
Mo 12.027105670081427 9.517306481012113 10.312263178455275
Mo 5.410116242703741 8.908943502414422 10.68963595173479
Mo 8.777599089766902 5.399757384364352 10.315908037763183
Mo 7.887201742954304 12.83038936844307 10.223772813131347
Mo 11.727854831311992 10.958157568366964 12.759801054790564
Mo 7.804135049612781 7.475060469712623 10.770472147941527
Mo 7.473092431879304 10.482947421595133 10.701381615391162
Mo 6.266382320561685 10.979424861087834 12.834682350763941
Mo 9.717311539566328 9.163567014037298 12.062037819883585
Mo 10.608693271219268 13.006549264705411 12.410129989647507
Mo 12.449234806563476 8.167811296682789 12.69457572218203
Mo 12.841874356423697 5.615107708036769 11.030335221364552
Mo 7.121511009717684 9.167471402419862 13.133222161844273
Mo 11.006407035624308 6.86173029764422 13.200010041712465
Mo 8.910836537500675 11.344369732921026 13.176992621803626
Mo 10.46048147250829 9.611156122110286 14.285563579720199
