46
Energy = -426.83043682 eV
Mo 14.67492853237285 13.659970697387616 7.388573887848175
Mo 14.802907546244269 11.801128527526167 7.960195746733555
Mo 12.339770357022326 12.488795381107707 6.53555249479045
Mo 14.969767219191665 13.624391433773127 10.184453233773777
Mo 13.377947832243747 15.649405048447123 9.42988441576376
Mo 11.938239788840855 14.757432864027205 7.263405951429922
Mo 14.549331045657002 10.833299928425976 10.528788113011029
Mo 12.037813681137466 10.489300202268707 7.9429470320930395
Mo 11.91770899870947 7.510528292393019 7.394802442981183
Mo 13.72636632252861 9.079814117818783 9.116343165746832
Mo 12.700967369503852 12.984654389488098 9.267690192182256
Mo 9.713372716257224 9.598057099263468 7.394777897658441
Mo 12.080410190048159 10.91649758775068 10.726468443707342
Mo 10.506834468498717 14.85497029058772 8.908873249385303
Mo 12.527334282270317 15.003152180332762 11.108392074417495
Mo 10.125319441331666 6.8010885991589705 7.577383254823459
Mo 10.172874149549362 12.647256388115212 7.83890650882058
Mo 13.806781937628257 12.77441215518667 11.978847467744588
Mo 12.055682882023921 6.348774748045568 9.94106770187181
Mo 9.6004398070351 10.673134729605472 9.63608592044479
Mo 13.532388525423636 10.100182716928693 13.02665842257317
Mo 10.987523191821149 8.43190486003771 9.754624279917735
Mo 10.314704526008125 13.201676041659494 10.919459057373743
Mo 13.229331603003235 8.166683491995121 11.383259000188065
Mo 7.9629485977793255 12.555739370314333 9.493457728294814
Mo 8.02751965393683 8.383339160196298 8.88014086705166
Mo 7.847162615566463 11.349246709163255 7.577817037130765
Mo 11.42092034046232 12.306168171958056 12.903754043271688
Mo 9.40108592627104 6.28488638628297 10.356817908847681
Mo 8.792684489529886 11.289709498943093 12.11017810494983
Mo 10.911640263620791 9.512524006432677 12.640009217855951
Mo 12.799043883242323 7.791199142839661 13.66750263490429
Mo 8.825998199243752 8.598452858616099 11.343305959538474
Mo 9.14744647973543 13.754621429744079 13.548670988640085
Mo 11.792837779629563 10.425974502237562 15.079041874270922
Mo 8.025711652135417 14.089402978095398 12.006486486280819
Mo 6.881694869879982 10.075961976075245 10.019168538421786
Mo 10.752231793559046 6.793979339994053 12.252994098712978
Mo 6.629052727068579 7.1913690767180825 11.18217312718367
Mo 6.10921460001371 11.928435406753295 11.926927973240689
Mo 9.910238363708292 11.144396272175662 14.854990101562233
Mo 10.406350952517526 8.25471031761796 14.735473716938982
Mo 8.250025296316977 6.8982897184188765 13.146770762636159
Mo 6.920557559857876 11.764143161279618 13.732783814625716
Mo 6.277271043874392 9.063381118247165 12.286203532326361
Mo 8.266510269001468 9.199930544644374 13.989534282077795
