45
Energy = -415.48220335 eV
Mo 9.106989906126525 7.186125175616705 11.054377971804488
Mo 10.190073088630438 7.218337613894969 9.352611331730166
Mo 9.873176784544878 7.811445834518398 13.797530117935784
Mo 11.920770637175384 6.498030978917855 11.40683221427365
Mo 9.184055135723513 9.517965198549653 9.407227146333835
Mo 10.568530045429206 9.717308002309238 7.355570413411844
Mo 12.211192686252717 8.981649231777793 9.22195182107888
Mo 9.656552145964692 11.743732510266737 6.194248350285915
Mo 8.349127258738594 9.865878925396533 12.06983052074988
Mo 8.517422115884193 11.725097360161808 7.916550298446498
Mo 10.879835924293495 11.28961203643352 9.727235046940132
Mo 7.96225769391625 11.479576739640866 10.95792100029881
Mo 10.74736145142998 8.127919986835385 15.493183492194197
Mo 12.250108540757687 11.583383036940187 7.680989201697923
Mo 12.394989987520882 13.366107421635029 10.051602347896354
Mo 13.729144495501657 8.837859407296978 11.45803690444568
Mo 12.166407871601235 9.637484852522753 13.93124204830202
Mo 7.884207715008173 11.97446754672602 13.876928820346967
Mo 11.02929577835523 9.154578376203736 11.57102085388739
Mo 9.454249464218654 13.590604727663868 9.82024150147129
Mo 10.697304539108819 13.50060770152042 7.655149583572618
Mo 9.09795148924977 15.921284968360814 10.532391542061625
Mo 12.501095344942327 7.060240547339213 13.114449940676565
Mo 14.669440088656907 13.272606886348127 8.23789215988003
Mo 13.041077024532369 11.42314651378363 12.122730047581879
Mo 10.343936387229652 12.208600777043536 12.310555952118026
Mo 13.969182763545298 10.887726532432906 9.72029867538437
Mo 11.315069578181859 15.609364298400378 9.194628408204212
Mo 9.713664829398908 12.62150776704892 15.922164529624578
Mo 13.69184796781147 15.334745975112261 10.151719608989636
Mo 8.246427557926065 13.947320695641706 15.190845112709512
Mo 9.770074659176844 10.58192323449534 14.337094048381706
Mo 14.596313402693676 9.164264948925243 13.56848388455939
Mo 16.30081395681201 11.523640681663895 9.864217985563606
Mo 8.732002205698873 14.029564504826428 12.461530636481033
Mo 13.35798301974251 14.360283990311594 7.468607143517744
Mo 12.152813738368017 10.738629750678816 16.47067015882805
Mo 10.596159425690912 14.521628568202186 14.018382253127061
Mo 11.064364694904283 15.292436189145707 11.625370069131598
Mo 15.047474253596217 13.156607405626847 11.043357378548873
Mo 13.161755365592985 14.229067940438943 12.676572588590275
Mo 15.537459593688492 11.041482700534846 12.265995091071124
Mo 14.612926214617275 12.985831124992531 13.833794821366945
Mo 13.88875187013985 10.910022654675936 15.716044509226226
Mo 11.990565494358883 12.480127750316534 14.453001435090703
