43
Energy = -396.46641457 eV
Mo 8.694399605996843 12.531620767406775 14.58253540708816
Mo 7.959673071668038 13.568386198411776 11.954437490195813
Mo 8.576862642258904 10.754085836417008 12.209927901970799
Mo 9.412075099378791 16.213590681857802 11.863342860979055
Mo 7.809295436670145 12.707208137469728 10.328150143513552
Mo 8.161517740814642 8.110220715992748 12.423979270620022
Mo 8.208168499173864 9.761893364707888 9.627218094932108
Mo 9.50227570869009 9.91449465663749 14.534724630262962
Mo 10.565555530815722 12.559222252591253 15.254550262693478
Mo 10.02144489133059 14.777577110753459 13.398084033974868
Mo 9.499066922555816 15.745689121293141 9.000586710634186
Mo 10.772278470121744 11.946238116129532 12.708670008980075
Mo 9.488851126463462 12.909520676774497 8.128559347361481
Mo 11.674386355089394 16.05715653776174 11.486656496078622
Mo 10.315331800948453 10.277439630016998 7.828833964478025
Mo 10.467252785397209 13.815324008420664 10.70069465446239
Mo 8.1469290719111 8.751548062258841 8.005524535861138
Mo 10.583161700376857 11.094816389315133 10.132668109797216
Mo 9.024732005452476 7.288455567052288 10.29362075882592
Mo 9.415234200226427 5.722679239182315 12.168239893177157
Mo 10.155939157453622 7.387497706105425 13.745175860095005
Mo 10.63648667930999 9.058559459024226 11.941038602585484
Mo 12.435482127801624 14.128952618700449 12.95146579903927
Mo 10.327660839367612 15.5156408236902 7.36902533080869
Mo 10.96242689467887 8.406806045076817 9.235696564114544
Mo 13.222443046230003 12.214880723483502 14.313160979057926
Mo 11.632328707827504 9.893658986755145 14.644180843278559
Mo 11.596648250948588 12.914453208782017 8.089765450602117
Mo 12.883837086777435 12.659922442194615 10.629861089922633
Mo 12.890468823495963 10.397962231568059 12.253773364723001
Mo 11.469485594669548 6.65320593739298 11.416077413760778
Mo 12.387792678860407 15.133153859527754 9.224871863031694
Mo 14.11731885410157 14.840987150853724 10.958796792380731
Mo 12.811120132819434 10.581649948124337 8.616009713703434
Mo 13.294179315618779 8.58906540165023 10.525039847579388
Mo 13.032335995871987 7.74180231004481 13.286179340717903
Mo 14.70060405167336 12.30047847182907 12.598268096831163
Mo 14.617528154364047 9.741547628639179 14.339350700411517
Mo 14.38115768672512 13.207593683400953 8.458089879302712
Mo 14.650109525989317 10.681486106023254 10.03062704996631
Mo 14.264630126335827 6.732903016788503 11.917165839279035
Mo 15.67954270262053 13.122081304814706 10.048438115050871
Mo 15.36866550647425 9.378745759700148 12.552259827051301
