41
Energy = -376.79638314 eV
Mo 7.6798952904062565 8.378787457348794 15.051403557603445
Mo 10.860246324593188 8.471659840444266 14.522188909545905
Mo 11.358817648036702 7.33622368723728 13.066005192501693
Mo 13.668930619168652 9.65083176598137 15.040280405893355
Mo 8.252456930602518 7.986253847606286 13.346895666318924
Mo 9.032733676318472 10.683060656400604 14.847685147463098
Mo 11.466442397889896 11.270593789991203 14.60375038248098
Mo 9.989500885236993 10.130082607674664 12.414338101469353
Mo 15.217159214752304 10.084455996473883 13.903937662081992
Mo 8.211686820438869 9.15417352277497 10.568633399007476
Mo 10.01764610858082 13.362562736133288 14.371301385472664
Mo 12.932067634333157 8.055157068148894 10.329591292359435
Mo 13.633315611925463 11.985838785259421 13.499682798944095
Mo 7.482534975884612 10.679742381138158 12.774866030095131
Mo 10.86638829448937 8.395369279502878 10.496202631337518
Mo 12.73449190914046 9.595259909756672 12.603072950491423
Mo 14.709848318795911 10.494884330845142 11.212753605087421
Mo 11.268774331714019 12.38781510544852 12.29565666702599
Mo 14.448765669681528 9.690572927042213 8.812869445286934
Mo 8.978465439954562 9.12662658537642 8.169975487163988
Mo 16.161698927502382 12.754802370644308 12.387158146132704
Mo 14.498984723050151 11.96275568973622 8.631073192306356
Mo 9.729195704720699 11.25181855974374 9.609323650528443
Mo 11.743968196797258 9.532775567870145 8.219783906613632
Mo 13.069169709287904 10.699109094978231 6.582087792809594
Mo 7.852554262027991 12.760118794507447 14.262457430359682
Mo 6.619276211991985 9.53799725755877 8.66506286023083
Mo 12.33965429143365 10.919633259548 10.307316724997268
Mo 11.09218002438177 13.807343036266353 10.113536457196883
Mo 16.505372001188103 12.68691185278734 10.605605768527507
Mo 12.265361161838703 14.799539009325292 12.527624998895115
Mo 7.077524579893333 11.408031061554267 10.258185876366921
Mo 10.230754115509638 10.884129482437583 6.524475757140737
Mo 8.749173295229125 12.67780455636173 11.837273940186002
Mo 11.426984550781462 12.30372071947783 5.615571431667336
Mo 7.7251507914479705 11.398498947388815 7.781458530221045
Mo 8.568917117507047 13.84248801107523 9.344221996208704
Mo 13.703181166446061 12.999554316277086 10.867466117924382
Mo 10.33822931513693 15.131646755442862 12.183446980705074
Mo 12.06492191760451 12.378929135143988 8.200916675960835
Mo 9.56479855777583 13.47965896478561 7.682079770885579
