43
Energy = -398.00143779 eV
Mo 14.57733002173668 12.600147785527865 13.585736557618082
Mo 14.5082967315932 13.359439381177333 10.93188727866198
Mo 14.49039751994389 10.53297466219275 11.437615748107197
Mo 13.65765657286727 10.035823857224797 13.961847237979901
Mo 12.637152244638846 14.407067238422167 11.935321544824449
Mo 12.83916702948471 12.768016419488362 14.396271312799387
Mo 13.789545624923782 11.894791048366393 9.353451786402108
Mo 12.413459502619935 11.648308440076978 11.917575553275025
Mo 11.811691267208891 13.489497467598797 10.000378905147047
Mo 13.925010952347211 8.551507097945805 9.56760348072592
Mo 14.882268436523058 7.892068204732721 12.388855578012723
Mo 11.273073415548055 10.468174904219156 14.264198512567546
Mo 10.275326016639502 12.8234414457583 12.631366713658572
Mo 11.25208289758595 11.731089387123443 7.659965021494271
Mo 9.633160349848517 14.489140830614916 10.932765492069587
Mo 11.534219773251529 8.815415099358692 7.218864416072153
Mo 11.750583989992991 10.260126405070718 9.57509111985866
Mo 13.664446853272954 6.43754175231418 12.039546816563364
Mo 12.256394619027008 8.830154320907374 11.91488267861191
Mo 9.302089973325359 12.256836366011994 5.989637121791301
Mo 9.401413893027733 13.610511817092274 8.555428664589375
Mo 12.547489027308798 7.775626304835461 14.078372307911966
Mo 9.922201370029379 8.47273452558826 9.760165926788037
Mo 9.929713466968716 10.471665924301531 5.399587480524074
Mo 9.044046154494497 10.154744622485664 7.878008914503769
Mo 12.412387243773976 7.291088258633395 9.58803923046486
Mo 9.676810098837857 11.828015717221325 10.126255374949634
Mo 9.828062987789933 9.971186320450569 12.004307359352396
Mo 7.021047683388035 10.537359042931064 5.868469222960197
Mo 6.902092526281656 13.91836525155226 10.249089926459622
Mo 10.421174158329627 7.010381938224191 11.964852673163582
Mo 8.93400997795012 11.16509965704774 14.279005992012253
Mo 7.4318253488808015 12.042181406244804 8.246432488964645
Mo 7.935501770277347 12.23951566156149 12.253201161768247
Mo 10.124241191812903 7.5463427284924665 7.207337062303911
Mo 10.015061960570627 8.195869347015785 13.85620603135426
Mo 7.58183422948727 8.72052477439793 6.048302574973438
Mo 7.4757788352534025 8.092161984218412 8.780747127635301
Mo 7.610427125566418 10.128368971521637 10.464981442816004
Mo 6.138221852989727 9.814650895516685 8.401378994648944
Mo 5.8125075184685455 12.423600064463255 10.405467050421104
Mo 7.855019474897898 7.810431275502678 11.82700551517511
Mo 7.394489345171143 9.369499942269126 13.058987294818923
