46
Energy = -426.83561754 eV
Mo 10.222956081479145 7.588658983835261 14.226576503257519
Mo 9.149262402077758 6.297308086539946 12.241839281515649
Mo 11.697920195557261 7.4363878523698 11.965490127560788
Mo 7.383105067779957 8.004782789570182 13.216025335254994
Mo 11.606404798632031 9.314314443290932 13.945942305122056
Mo 10.715563549727865 6.146575969351837 10.218443331215935
Mo 8.892169653647494 10.0309310672711 14.274022837451207
Mo 8.237134605560748 7.397755340232109 10.444967599522537
Mo 14.152799409913733 9.143423616824924 12.369928103830311
Mo 9.647767343009004 9.158641978419144 11.898169481748875
Mo 10.613354806365338 11.557996065077571 15.187696679511154
Mo 13.330128168134019 11.190414009539792 13.465774562607464
Mo 13.332389454763884 7.816598850222315 9.739834501231362
Mo 8.961133393741287 7.257171468823928 7.745530374560827
Mo 6.6968106324220695 9.202141120444107 11.643753714485262
Mo 12.362780431685096 10.08168214252143 11.081668459091482
Mo 6.733962626717227 10.881536623582337 13.688359024185646
Mo 14.538759569055795 9.330531025978921 9.339180359037083
Mo 10.5647147561822 8.518753334853576 9.611048985604755
Mo 8.410457950800025 12.838044358172237 14.07430756113535
Mo 10.825554194002587 7.269701669404247 7.319743673365156
Mo 10.774902762023306 11.759364748718047 12.780022193360574
Mo 14.90924968213934 11.330963668524209 11.121667142968073
Mo 14.66543468866065 13.223153063416095 12.643327684371528
Mo 12.18196631487085 9.736968821855939 7.964642666042385
Mo 6.256744272814561 12.152631083491396 10.614043154440031
Mo 12.4387285901551 13.632138880664996 14.455619727223874
Mo 8.127820142065113 9.994315670215048 9.348707947352661
Mo 8.325701055224064 11.470781624396533 11.82834870288272
Mo 13.09358456100446 11.821804972209618 9.113918194808042
Mo 9.578852168848254 9.968876703269089 7.424931701331789
Mo 15.684513362251986 12.101386029126536 8.499501696064547
Mo 7.624202180923739 13.931394465187447 11.883042856243604
Mo 15.237019764048185 13.575646386245962 9.704691658462316
Mo 10.29312574539675 14.22047909708084 13.201887359767824
Mo 12.836016486267003 11.635673179133168 6.345520901706456
Mo 12.589183786891903 13.209686653999139 11.41876609152506
Mo 13.08941690779751 15.211987761503325 13.314377432667968
Mo 7.8849276286954755 12.525421673324466 9.182088817502637
Mo 10.383045801238579 11.342382647345012 9.869320729856101
Mo 10.787115590430561 12.21332270862327 7.41672533037951
Mo 9.712305507646922 13.762204355941547 10.689229751432196
Mo 13.404826304734685 13.549249006368884 7.318513361172556
Mo 13.117946779794874 15.592082459732229 10.07389117888372
Mo 11.418240929069741 15.793720279432309 11.264394096129628
Mo 11.601707720631978 14.148396104366476 8.962271433637675
