45
Energy = -415.95355881 eV
Mo 10.834466579021719 15.07607534135939 15.789307054621982
Mo 7.473340730402245 12.038657035657517 10.637709208657682
Mo 10.54124612290439 15.163827167717995 13.205905135884228
Mo 6.7927884827654 9.412702926679243 12.20556898056315
Mo 10.415386933727936 16.41196357889772 10.758502433383027
Mo 8.761630682759616 14.000646386955452 11.829567066077898
Mo 8.315715340267953 11.67310930599053 13.240413516933529
Mo 8.744351577036895 13.699954085854197 14.519640113922883
Mo 12.575697376042198 14.130349260973894 14.501956760306694
Mo 9.224752966628865 14.150462653084654 9.370075801848865
Mo 6.587976600272328 9.954700242650123 9.250372986117105
Mo 7.499362027445787 9.079576447639193 13.83726059831322
Mo 10.421499840238667 12.92994053251901 16.065075595098513
Mo 13.177227656761723 15.345963350084988 11.9249097327452
Mo 8.329156119849916 12.04497466576749 8.40334197316775
Mo 8.360228111182511 9.361091977810963 9.45440451103875
Mo 11.237415508709102 13.14159617524117 8.297431403926861
Mo 10.065204726403454 10.468553796217119 14.852311847534352
Mo 11.42481729515363 16.0413432050276 9.209359932084666
Mo 11.453351396342468 13.838768855595884 10.979153706044068
Mo 9.981437506844095 11.684241956368526 10.56250591389951
Mo 10.852941377261676 12.462849752153241 13.144379950887629
Mo 12.570666935731518 11.623901176014714 15.023192184394656
Mo 13.562391316074368 14.270154889142027 9.660892163215259
Mo 9.580355476900914 9.70671520172258 12.060149994307979
Mo 12.802706710456475 11.330483280559445 10.211501112450478
Mo 12.17110034656848 10.135992778044384 12.644444262336721
Mo 10.612553783352505 10.840217579494741 8.157890496043139
Mo 13.649592084736533 12.840828286715066 12.458518853078857
Mo 10.458049537469956 8.293098081351875 14.131913063018025
Mo 12.490799680785704 9.145649624327202 15.019803395507873
Mo 11.18103557412722 9.131167681974382 10.163670353605774
Mo 13.499772744313965 12.235915331004268 8.05149922891752
Mo 15.560787342423106 12.553359128968125 10.19771725228625
Mo 15.63099524630874 14.333513838932486 11.297522923991236
Mo 14.806733569898574 10.342865874326925 11.76645420426404
Mo 14.901552993612212 10.923830957147562 14.340397252611435
Mo 12.094342186619523 7.536252700561295 12.035276013763108
Mo 13.158772358132456 9.613118208335035 8.130841775461702
Mo 14.07083460502537 8.262439721051205 13.131374818671661
Mo 16.035223387475643 12.218110585791962 13.124417397036357
Mo 13.727329092239813 8.36997001668028 10.466201138080582
Mo 15.093877640001955 10.090365061962789 8.906398774031597
Mo 17.329243722096013 10.229761926212895 10.977633822110214
Mo 16.610487482522615 8.547317742474414 10.660233146513544
