42
Energy = -386.61826546 eV
Mo 8.871444306447096 12.266328704289142 5.749894992705823
Mo 10.598268238010936 8.870235903488211 5.515504209191556
Mo 9.532431332797962 7.292903651145874 5.329766549023181
Mo 7.743496328477797 9.567423816398149 6.225723292425234
Mo 11.383210595284112 6.527892819477188 7.3034478028897984
Mo 12.384591715846955 10.864296934584347 7.12426008584625
Mo 9.939723009077516 10.573056235368352 7.559233440232182
Mo 7.558803510430306 12.140057891339175 7.371338065067294
Mo 9.381511162742875 7.893445895253965 7.895885808079211
Mo 6.902848758069166 7.96047055576079 7.446698073816404
Mo 12.003316274475166 8.826078276750396 8.339770933762884
Mo 10.369952129668325 13.03143525526199 7.703094550702605
Mo 5.209091395656557 10.474650613052312 8.056475907190995
Mo 9.174775867811187 5.3859595933109485 8.71079332376058
Mo 7.618002289159512 9.90682257147589 9.017725461277504
Mo 12.38426083211589 13.92033647173381 9.09786285274458
Mo 4.832763600726274 12.400742127745119 8.35808269253701
Mo 14.405592902277776 9.972235491787526 9.263295166324184
Mo 12.103607870382447 11.5135437614218 9.490468949109573
Mo 13.781591981560554 7.133864126075131 9.881665405086691
Mo 11.01030024164125 6.871366299909807 10.191898573381213
Mo 11.070850859222933 4.649222468787213 8.987910764466205
Mo 6.495713697421561 11.931111029226972 10.218869751120387
Mo 8.018027784771492 7.374751818717955 10.402847701331483
Mo 5.80776257332488 9.031751361643872 10.634648617267594
Mo 9.15463668854949 12.23158655032447 9.740768987963706
Mo 14.667293986538215 7.898707083289843 11.372071560715241
Mo 3.8049276740788343 11.0580312458771 10.6420568291903
Mo 9.357909301565352 5.797297324003144 11.656768155410667
Mo 8.074772723688671 10.331347459917863 11.85790407087019
Mo 12.271848663778604 9.22024842013118 11.16823787504479
Mo 14.250850807588112 10.926100950097721 10.984782177199982
Mo 10.990685122149818 13.887230872419677 10.581855824971653
Mo 9.921319772142 9.550601807536315 10.127446587617387
Mo 8.552585962465512 12.625001200647416 12.128952243306298
Mo 12.099133371810929 7.139073267843164 12.369585495520214
Mo 6.9018154744519755 7.951787100356006 12.374384850792083
Mo 5.046834674768586 10.918764441812502 12.140265174940183
Mo 10.767089495623427 11.438221126486154 11.929202528444723
Mo 11.488913536932413 9.578293138060639 13.945446678859563
Mo 9.763858909472669 8.157612920234074 12.425140053061295
Mo 9.79783572077441 10.404362560734796 14.17221908053128
