41
Energy = -378.79509669 eV
Mo 9.445052881305129 8.524557467302639 6.4876165658766185
Mo 12.022620451322744 11.10230176358801 6.947482425237697
Mo 11.94137355966723 8.619239217566863 6.738400725430463
Mo 6.8856507531772655 8.061902269778821 7.934268197351181
Mo 8.18819927611822 10.538714623721019 7.879722731353527
Mo 9.678679545576488 7.193392853013025 8.14562635290343
Mo 14.327263952822921 12.361236820416812 7.745415163231695
Mo 10.150094245333747 12.334182583240421 8.380645754427363
Mo 13.886873799758815 9.461287441030287 7.802961270760783
Mo 7.325732467152201 12.689819609154167 9.27293357047609
Mo 11.90756100260129 13.68411482616669 8.683221807124438
Mo 7.9864108060132875 6.027130217461533 10.1767724515065
Mo 12.411345809786006 8.096792525416628 9.316172586694003
Mo 12.607464660095097 10.994207268721235 9.497340602306577
Mo 10.478813477270862 9.654156669541292 8.768835588856287
Mo 5.8247177705717315 7.735100224388634 9.525149930704595
Mo 15.263582731740781 11.301817731258469 9.151946490828237
Mo 9.41300458661054 14.243938250302088 10.3006969762684
Mo 6.40409011163932 10.4550397647046 9.561834676205217
Mo 13.631580582603599 13.29933415160462 10.359632321583401
Mo 11.21889077099948 9.78824433238275 11.640043003679981
Mo 11.925961914531793 15.358528658379456 11.262923070320397
Mo 8.844251188438228 11.364935240275466 10.631100126541002
Mo 14.18278598849995 9.134289716383403 10.857781240497324
Mo 7.726281600959349 13.681349311703826 11.656256385696722
Mo 11.221889304492775 12.611921420452559 11.154160836351483
Mo 10.42056241201924 7.2745766859025 10.887823475248274
Mo 8.330450541383838 8.73358989751199 10.156228082468296
Mo 13.664518280328606 11.31186351573426 12.094510605403258
Mo 8.133719333541118 6.578112727592467 12.038452622025279
Mo 9.880532405855387 14.06307007701755 12.944867251140234
Mo 6.137798731845148 9.134596581773211 12.05970061801981
Mo 12.59845598428916 14.364295040616994 12.794441120602166
Mo 13.022259934359516 7.512250521084665 12.02153141147396
Mo 13.11014734133276 9.398018326535297 13.47484719885172
Mo 6.547324136779268 11.006844335079695 12.283383665152453
Mo 10.665862496851073 7.601650297392703 13.25787477254545
Mo 9.271492708918776 11.810459660426735 13.171604113451455
Mo 11.710575793131847 11.842596710396906 13.782005534986649
Mo 8.750479991124037 9.263616308021506 12.670388652917561
Mo 10.889584730972341 9.82086241877953 14.517338085320667
