46
Energy = -426.38938723 eV
Mo 8.63792265464269 9.050247779379934 6.137769041582723
Mo 10.5083485664577 10.648997189498226 6.49652103567167
Mo 11.415487629041618 7.816771951072562 6.039681394843881
Mo 7.296510590291126 11.451766395683482 6.284746752495983
Mo 12.75533730823544 9.244471656714593 6.386823667928908
Mo 6.075207259253027 7.4055885602825935 6.479341799558802
Mo 5.893868009038589 10.197421546045897 5.923695362898397
Mo 7.6529472196033845 6.621515862835249 7.134910272551164
Mo 9.829697015171078 8.286988357833016 8.183579627806422
Mo 8.91122471196126 10.922045685239304 8.561590735351823
Mo 12.743669299775975 12.191149452166334 7.573243332683598
Mo 11.58694944801719 10.255959923809138 8.843696618440903
Mo 7.047160078152553 9.207536868164109 8.337684330977572
Mo 12.694178409201296 7.965611707768025 8.704944947957028
Mo 8.245768411731856 13.214337205800186 8.69824884119365
Mo 11.078110910278985 6.133519202294644 8.621142536310117
Mo 5.792084038940147 11.434472622373017 8.53160294521673
Mo 6.01481454490911 6.929895334269682 9.547175202638629
Mo 13.379337806767735 12.439877307508466 10.070209919018883
Mo 11.875790096906353 14.116758589070395 8.124540601747672
Mo 9.81529764287507 13.054788949309838 6.967987327880351
Mo 4.467255888841162 9.256177106407291 8.68757548927216
Mo 14.538170618455082 10.105674029418395 9.298618865037694
Mo 10.796053150316821 12.664004806514612 9.708349078652978
Mo 8.75986137584041 6.198328431261346 9.763696586123201
Mo 12.404208408092982 10.426744900249934 11.245326723629804
Mo 5.330900667508107 9.497021717986678 10.623978828636655
Mo 11.32076952669397 5.729568618437007 11.08315358464954
Mo 13.623362193097085 8.158050340047522 11.327391418720284
Mo 15.198773668804776 10.49747393796948 11.102048454920121
Mo 7.199449714372092 11.319271046935569 10.579898121340884
Mo 10.940482112450688 8.114025678133267 10.710738740669361
Mo 6.445972938798946 7.058454600479537 11.584292643134095
Mo 13.492097097050198 12.292817134746048 12.865392893481058
Mo 9.745507073338773 10.667235311992695 11.382261745086707
Mo 8.17974074695502 8.536730974634935 10.568816723430231
Mo 8.807758138482294 13.118424302375058 11.593034030478613
Mo 6.958948417662024 12.213813213020137 12.951868692948391
Mo 13.571122542473349 9.296598134774085 13.418692202033819
Mo 11.845222522891401 7.646674706202978 13.210370332218433
Mo 9.260793788028696 6.289272528464892 12.07679248718113
Mo 7.314018159091489 9.83449775976066 12.849627619850958
Mo 9.133158990970514 11.635905016731417 13.719602394499093
Mo 11.40452239779089 10.478851555636458 13.691982416274346
Mo 11.64995674187235 12.912411650728899 12.432354616771699
Mo 9.628409644929908 8.728478526034575 13.141227192264438
