49
Energy = -456.43899938 eV
Mo 14.592066682679008 8.982933082753648 8.975022300104511
Mo 15.21180358374055 11.41610664347626 7.3852670479182505
Mo 12.648202898437235 9.840150177586052 6.837452309352951
Mo 15.749916863433965 11.151050682100252 10.085168519844707
Mo 12.20181263138088 8.780865142403071 9.2127004315179
Mo 14.11106700419879 9.52951691547826 11.16641732371055
Mo 10.60581072389205 8.062419318292175 7.284428089919774
Mo 12.665893204456829 12.581764662176642 7.086188406219446
Mo 10.85714831375635 6.350537200622166 9.542354693692056
Mo 13.272160759568166 11.511425963796537 9.408905845902037
Mo 15.224297654631663 13.198927026733731 8.144649490934993
Mo 10.821487387603561 10.700502625154693 5.971999176977858
Mo 11.580774089799679 7.86818150153507 11.985086042065578
Mo 8.797265979290854 9.79256166743006 7.1375669069748895
Mo 15.47283230057504 11.757340713069913 12.942997230305917
Mo 11.409180562461307 10.230788739804453 11.26019093086613
Mo 10.704936783607518 11.123753389375267 8.548572855029661
Mo 9.103982559037945 6.45850860006896 8.432048380801945
Mo 9.409128829132968 8.910452090555731 9.542409273781892
Mo 12.717678619975102 14.244439518143949 9.140205739356933
Mo 10.693249112900904 13.63321421307154 7.869779719030406
Mo 13.275531106627726 10.250249308781273 13.68842063743411
Mo 14.913666132706485 13.215460260102052 10.946058179348217
Mo 9.006461426986082 6.602986249114993 11.396181394061301
Mo 10.032120816108927 6.601600301904484 13.422516190877422
Mo 8.986520209391243 9.096325140666032 12.262945047571902
Mo 12.86895048960573 12.193165182409704 12.127393340463193
Mo 8.281109509717236 12.069857731689122 8.001984385060148
Mo 12.923270346129929 15.05643626191872 11.82143997479295
Mo 7.013644410801456 10.284172315975114 9.165781161477943
Mo 14.364867237106518 13.05698160550488 14.073056682245474
Mo 7.093987404735898 8.074191779856426 10.310505860833707
Mo 11.038189820504412 9.285707504680069 14.032410904690424
Mo 8.530539470283161 14.052759960781314 9.66666313552381
Mo 11.09213938355641 15.589975166431602 11.101082956812178
Mo 8.821217090546602 11.413299212950196 10.582055391005326
Mo 10.045729901569157 11.568244505183685 13.033754542011682
Mo 7.2527710630032995 7.549473715340426 13.298498819804635
Mo 8.588977420657903 8.123561365946626 14.929716621991638
Mo 10.978455933592038 13.042031277206751 10.507106447699412
Mo 11.982879659628507 12.024914815555256 14.876506043325241
Mo 11.259069378972706 13.952629410032033 13.449189361004386
Mo 6.719983015221049 12.875024556179016 10.599693755442054
Mo 6.707569543185197 9.999267659515976 11.768376789173145
Mo 9.730314640400001 11.0959666950628 15.836877212823815
Mo 7.871451126821959 10.350575613779686 14.397140613588299
Mo 8.917630613326768 14.03137396654704 12.089265911369559
Mo 9.220375460966288 13.021229336424714 15.059503885302874
Mo 7.380972033097243 12.386833648760083 12.897929393915353
