42
Energy = -388.55329725 eV
Mo 10.429357335242184 10.045378043464753 6.818386898291782
Mo 10.823519660403184 7.994399960496925 7.484532177260011
Mo 8.16708696460693 11.70424083579389 6.7120545079515015
Mo 10.792816144069379 12.944735619524199 5.940969281303681
Mo 8.335398806160912 9.240505616040831 8.172906990382833
Mo 12.361836508446578 12.078579435905809 6.653921713791317
Mo 12.682157798276714 9.630149343878342 8.227141591078297
Mo 9.133738437014804 7.871611283991236 10.150636978592768
Mo 7.821948620924879 13.424533530441774 7.367856037919913
Mo 14.418970313725822 8.14986116873548 9.303605999995334
Mo 15.14129510715199 10.048946351529311 9.52838959267241
Mo 10.295536539838338 12.436442218285764 8.537528665682435
Mo 11.774518965393858 7.52533147868261 10.004753853574472
Mo 10.44622935411597 9.99974807078068 9.557769687057286
Mo 12.006887610633042 14.60999355173462 8.135222616639714
Mo 8.011584252290977 11.488180915456876 9.513555713369955
Mo 10.155157724910888 15.144912469322888 7.812125150717461
Mo 6.860285415320313 9.144637517048793 10.051169038335452
Mo 12.907393354718893 12.096384196464605 9.562785153758668
Mo 15.210414567376045 8.838732109497526 12.178182852789785
Mo 12.889849432592259 7.2272089167653935 11.973104468039235
Mo 7.641329704475229 7.409481239155964 12.398098276628115
Mo 8.490310564888826 14.158039327879116 9.908653386529902
Mo 12.937441262569031 9.854452175715943 11.023045546744914
Mo 10.478897066024627 6.901335527651105 12.428956973377854
Mo 8.615137734110212 10.046110517143644 11.71227803644995
Mo 6.4803137161283955 11.797622147222176 11.893670011149522
Mo 10.859738331030643 11.836025632268099 11.338277044392061
Mo 10.989545288141922 9.253456271951448 12.535872838949198
Mo 10.830956075684028 14.287287145620487 10.418306942082264
Mo 13.155608441552655 13.636853512008784 11.412433739055462
Mo 8.50647913036069 12.996108037078091 12.029039125606527
Mo 6.309034437007426 8.825140818834518 12.690849327242177
Mo 14.529406926253095 11.675199152930494 11.897022167867876
Mo 14.025219236351116 9.164229473595936 13.649884724463824
Mo 11.415250327424257 7.6769312597809165 14.808121871626458
Mo 8.964589152024143 8.986545422179283 14.091884150653096
Mo 9.859219074135503 11.47283001990004 13.917848283380733
Mo 7.254530775385181 11.153872591702621 13.846932622191535
Mo 12.695469336460556 11.487616237631727 13.3332565711376
Mo 11.109161279873792 13.478158572095248 13.140546080163949
Mo 11.515640298410956 9.595612607514358 15.233624826942169
