46
Energy = -427.75715153 eV
Mo 14.540965037141445 10.828089207628299 8.11079660646297
Mo 14.16701768214529 13.699780056821243 7.811931045429451
Mo 13.079256285329683 12.196023975981804 6.730900173584467
Mo 12.40412207017043 9.314856864710684 7.097496145629063
Mo 15.131920703634183 12.325488924249438 10.200478017070825
Mo 13.216204802922976 14.201422623401037 10.280172953577413
Mo 11.442138434494598 14.063115225241337 8.101117782543092
Mo 15.25883974217039 9.493493008479446 10.485009599387494
Mo 12.552800912262265 11.981641173174703 9.375513216192367
Mo 8.95038137595204 13.169410911506864 7.140112308079467
Mo 14.516534686510923 9.305325475147107 13.147061977810122
Mo 10.83385334732636 10.752666423252135 7.632916422584604
Mo 8.55595690918586 14.636258579166782 8.299346284157156
Mo 10.823867764938553 15.22062634455126 10.257591504363067
Mo 14.103345464282416 13.232870048619407 12.690904040304982
Mo 12.41048413333763 15.572693822218545 12.67475921426568
Mo 12.764401433677438 9.246964616635578 9.498060185920613
Mo 13.232276937822427 10.96292310964988 11.734178140031267
Mo 11.32480397955505 13.02203306676857 11.847067180425196
Mo 14.405963128677083 7.722445287766504 11.115660770663428
Mo 15.934294634127003 11.692662507588645 12.268584724703741
Mo 9.9216960021166 12.625755564644901 9.606604697813868
Mo 11.908132261464115 13.350119118190547 14.329321276990115
Mo 10.524361089464465 15.395891743697621 13.128376433474484
Mo 8.69826431882523 11.44848467862555 11.743379601711753
Mo 10.629155717982705 10.227137806905072 10.61657508026838
Mo 13.645505771790942 11.321777956874422 14.30661210164895
Mo 8.222934798577262 10.725352716168649 8.745227263014394
Mo 11.717551240445303 6.751011945817072 10.113151304551078
Mo 7.110541583766995 12.240803226027172 9.753421783284264
Mo 8.766300132793118 14.201323860335394 11.098800151469673
Mo 11.082938013110537 10.898229836881397 13.5390587900686
Mo 11.977149698601579 8.548596561354982 12.377183279665982
Mo 10.208032060183262 8.391683600518203 8.7540833353118
Mo 9.123330852901576 13.042685052391077 13.767210945488696
Mo 12.548758713322366 9.019745260024704 14.840990463393114
Mo 9.2309791423046 8.944921817617722 12.875391763972953
Mo 6.321706342354284 10.058533574653003 11.912832430505015
Mo 11.80734760340074 11.374299495402989 16.442220043108186
Mo 8.43810992514783 8.718258807338513 10.482974668231858
Mo 8.182692777298367 11.08720963235889 14.207707655724915
Mo 5.869037841284945 9.726814041459726 10.165855095232265
Mo 10.150642138275408 6.735581704249342 11.196321122771504
Mo 10.568678035937147 7.431651948115066 14.360258423103117
Mo 10.061112280696022 9.369901615272118 15.43344799976953
Mo 10.14739668269719 12.217185610886103 16.210541895173737
