44
Energy = -407.8676901 eV
Mo 15.706150752809162 9.138475412262359 9.676885900601713
Mo 16.414822847511708 9.273194038066082 12.556676978192238
Mo 14.130500043478111 7.79410719512026 12.04215417040085
Mo 13.079861809420297 8.305915222169533 9.824293390992693
Mo 14.699589386266693 9.445784309425006 7.876821302197472
Mo 15.271153003232005 9.425793798995144 14.076365212794371
Mo 11.584253937870512 7.517343009055011 11.81563389626029
Mo 16.035835513182544 11.532360202722238 10.33910501718907
Mo 13.994997417196972 10.266571459683185 11.7116095532856
Mo 13.781148825279232 11.298727266731904 9.248360215883284
Mo 10.492605947176743 8.11016658106398 9.025413528327281
Mo 15.716387028033967 12.081112252818313 12.88458667475204
Mo 12.297825500999965 9.303136661493134 13.448676484523173
Mo 9.3259758647242 8.180363924170834 11.205111809626118
Mo 11.758018477410419 9.80287876023445 8.01483435674986
Mo 10.052184433588915 8.226896703476408 13.926659465727498
Mo 11.535301939099694 10.102632355871014 10.84001392785915
Mo 13.555172998869415 11.689508973862095 14.096466058774977
Mo 12.24768182804171 12.31440837498881 7.16862928997788
Mo 14.113984877955767 13.007921437162858 11.445305057559962
Mo 9.34275535925211 10.44769740129696 9.510720028073337
Mo 9.681743672909805 10.363324457360827 12.671198957135527
Mo 7.321755338449847 8.928729421689635 12.986065788111215
Mo 11.330435871368653 12.499778176283547 9.529575542951251
Mo 10.871715366335279 10.853439454590555 15.15263064845971
Mo 7.1591834627901525 9.996684648739324 11.311242828689519
Mo 11.93297132725298 13.831107061967947 15.051596032467701
Mo 8.911868335393343 10.06740728529585 15.280799260734613
Mo 11.747106566876829 12.287456811715142 12.473747519067132
Mo 13.695599714979208 14.10381856659152 8.754116954914812
Mo 11.826937123180011 14.652472330199277 8.027048905031785
Mo 7.3279363102216495 11.817651695767298 8.96697146833871
Mo 13.265462616870401 14.384318606939605 13.775415496539225
Mo 10.067011440750578 11.389879134002046 7.169094361039319
Mo 8.964281104653935 12.559986198326524 11.28091707703934
Mo 7.412423198676908 11.674345706630453 13.429719935443766
Mo 8.96297766278493 13.27968976562171 8.557239722953144
Mo 10.54539857863498 14.598565095060593 12.784089162185461
Mo 9.420670432204172 12.742756187161538 14.319338258205086
Mo 6.097232997045889 12.811673768725472 11.161981468927744
Mo 12.257107095061619 14.698817992841816 10.88980301983513
Mo 7.039400282954324 14.381024137365642 10.427851037657724
Mo 9.953853405341734 14.898693220871364 10.415943787112582
Mo 7.956137991672033 14.146390140737902 12.922717285374262
