43
Energy = -397.11002057 eV
Mo 13.364096900746228 15.365423730720831 9.625556359759218
Mo 14.784690806360814 13.149467768006302 10.889251043872644
Mo 15.221189990256185 11.116230706888617 9.694227500353858
Mo 14.935917261084107 11.15615590476362 12.203510267071344
Mo 14.212850974493547 13.270207662849243 13.79558588054904
Mo 12.690375786814105 14.68935477060322 12.122089399096716
Mo 11.738610232335617 16.255316634267928 9.879356034511746
Mo 14.751654727685525 8.04518734830625 11.22713651435734
Mo 13.146553395680254 12.395916955873986 9.097662973590014
Mo 12.998516927027056 10.000826714930563 10.330470182691972
Mo 13.413375739467067 8.141964649567855 8.790633749503742
Mo 11.125208424470838 13.691896917985265 10.01026743219136
Mo 10.507340730383927 12.403115934114009 7.846321363147976
Mo 12.421221040773188 12.112786108161329 11.83172255435289
Mo 13.016230804110934 11.660504973469944 14.442427796095904
Mo 13.386564651003217 9.302969629448512 13.061142535796867
Mo 12.007432361502444 10.441991816356442 7.8030537621394425
Mo 10.127071766926257 15.13728257856793 12.069058747238671
Mo 11.260445465359949 13.413778187280334 13.863593471962794
Mo 8.865563612256393 15.362408830624746 9.897695823713304
Mo 13.676694063293622 6.578139846109536 12.128575299274159
Mo 10.89635658468439 9.866894208487706 12.672767321925566
Mo 7.75514998160879 14.376354924074484 11.524888812520462
Mo 11.712059736399672 7.818557395876943 11.229907041137716
Mo 11.663364176254293 9.2622232923253 15.284253702216702
Mo 12.511222827331268 8.156348014752789 6.109144760257723
Mo 8.674667484969627 12.807334316854433 9.415514370203168
Mo 9.576035915179485 12.489645252424571 12.013395075420817
Mo 10.381949976041511 10.705856286318 10.049125196585692
Mo 11.765296410078578 7.59691812026604 14.145891712307106
Mo 9.874719444723215 11.41174676218641 14.534465543615179
Mo 11.116157410906666 8.158154083400422 8.705447198906473
Mo 8.981597347726343 10.083303285985481 7.802642290815814
Mo 8.57969204115346 13.920215131463296 14.250872682530709
Mo 8.966161780926509 8.724286721879498 14.37281066270199
Mo 10.746053924157094 8.511998150629138 5.936963881490569
Mo 9.326226346798949 7.484687302867898 12.778546917062675
Mo 6.618487704955752 11.831978527005043 11.050990869158731
Mo 6.900482183890209 10.46391275036071 9.852585153259575
Mo 8.300690661642804 10.107596354715445 12.338615159188098
Mo 7.5507916307491065 12.233158263927274 14.080851517915455
Mo 9.063546982998345 8.687663474370709 10.380419701249783
Mo 8.288833625751696 8.280502151748621 7.874890574986916
