43
Energy = -397.17689846 eV
Mo 16.35370176831466 12.692680262689393 8.795286361768646
Mo 15.421512555059158 14.1172659798745 10.792004582505196
Mo 14.332271497819836 12.708341465598682 13.18727130107825
Mo 11.994554484614461 13.362510575448486 14.624416409326903
Mo 15.91666170781896 12.07150522338477 11.41272319442767
Mo 14.492150342287395 13.315877475064127 8.1216745451354
Mo 12.722364983435966 14.695170017429014 12.161321071219447
Mo 13.091695894771712 11.149382675129962 15.253728872909942
Mo 12.990678632145585 15.026358178711856 9.797389999920778
Mo 15.01999521090143 10.717985331113667 13.96349633434225
Mo 9.9437848568705 14.372481068228831 13.094239806674038
Mo 14.882856719809018 10.698929354395675 9.173713892512305
Mo 9.453401633556028 12.206070743277463 14.416467944471592
Mo 10.90297421373424 15.95674692679918 11.546572160702064
Mo 13.274455705043685 12.487640300176977 10.473732707035534
Mo 13.85303750100166 10.193234212257684 11.609605458079336
Mo 10.738382822372252 11.729705317251753 16.54870259270116
Mo 11.65539070492732 11.949338020352767 12.829671291611097
Mo 12.30624018702057 9.508726950555067 13.53890450909065
Mo 10.181749474937753 15.69931139746094 8.889191362852094
Mo 11.63219687753385 13.488746603695265 8.10538228879841
Mo 12.992413616919952 8.827817241909852 9.460001940807024
Mo 8.924128703801625 14.29403914147515 8.58426134124454
Mo 10.537566259791483 9.981374679513273 15.746315519434592
Mo 10.741512433560104 13.479192764949618 10.541241310084725
Mo 12.587309541654243 11.17685749516872 8.282416725666355
Mo 8.296294735050658 14.318103816593776 11.365600749185978
Mo 13.788336919431076 7.477550622952775 11.850388795504491
Mo 8.924726290630018 12.06494423736774 11.808221387129546
Mo 9.896754581868771 11.669234098860725 8.786500550505652
Mo 11.045225394668398 7.893672838026164 11.78664537433049
Mo 11.269263380249784 10.405326742810141 10.636914352571292
Mo 10.639883716099918 9.454879041730965 7.809098172499443
Mo 9.556756343058295 9.871606317759056 13.117355295083122
Mo 7.195211183413881 11.887649087957806 9.679903788668387
Mo 12.887099465822041 6.402575043517235 10.53209439704065
Mo 9.911384563365113 7.753098873650827 14.024375031997382
Mo 6.170542617315297 12.273013526945375 11.248412486745776
Mo 8.876928264409951 9.509496419433923 10.211733902921212
Mo 10.619985985058149 7.788986767333753 9.193258032834715
Mo 7.233448937188736 9.908744825726258 11.932916736331686
Mo 8.589550168002914 7.289118276113243 11.513957156125839
Mo 7.55453300561211 7.85136355183959 13.358003393637233
