47
Energy = -434.82940004 eV
Mo 15.806409584354924 13.187044098983408 9.63169954209218
Mo 14.902002221593404 10.938433171343378 8.148220038824308
Mo 15.14284413493424 12.715815647800232 12.176380258643764
Mo 13.63914738181141 12.761476664891594 7.374203838063675
Mo 15.469255640779432 10.469874736147215 10.953566747159224
Mo 15.515203654611256 8.433463515628931 9.285741959320928
Mo 13.86851209871716 14.656988642389035 11.23297262272307
Mo 14.459267361528505 14.806444544530942 8.993851318719372
Mo 12.722149925268319 10.861236519640395 6.389068065304396
Mo 15.427515825413765 12.328140838090178 14.839643245220437
Mo 13.740908260441905 8.88042873202434 7.3927609688120475
Mo 15.094106068040691 10.58994743189735 14.022889374879194
Mo 13.124906460193435 13.408014815068846 13.510520071138528
Mo 14.427606147631163 8.67306834933301 12.018110100788533
Mo 12.909646051431054 10.917224886937845 12.349232140722561
Mo 13.377460593946628 12.34407254412879 10.02694495120192
Mo 14.05622438840377 7.080702326142637 10.04095479623563
Mo 13.050378453253 9.670491331471561 9.743860403553064
Mo 11.268429247444491 13.387777045896568 11.456161685084432
Mo 11.275734613306563 12.086388722627555 8.498548016060306
Mo 12.770393550140314 11.74812275198243 15.24584404524981
Mo 11.722808536943681 14.489965537452598 9.30853379123657
Mo 11.055052018133434 9.529930995300338 8.04483116021509
Mo 9.56908838398102 15.392326608464069 10.314624877142007
Mo 10.952394023586466 13.99210254513931 14.539225675713114
Mo 11.746254297871197 7.384273357068555 8.620647903113868
Mo 10.729575445951737 10.679372935101135 10.66728474436433
Mo 10.66962123353828 11.723073287624727 13.569417164039615
Mo 10.612704961679189 12.255738001966662 16.325917563964477
Mo 11.865285112843205 8.059158855527249 11.479997997536728
Mo 9.09303601284417 13.294227541839415 9.644989677851385
Mo 12.25330722726852 9.274002499616369 14.284328527156838
Mo 11.548620720079906 9.702217485878963 16.50276966030931
Mo 8.617850908768379 10.475727822651354 9.053840981800986
Mo 9.076061303325453 14.129592308315416 12.510207961410089
Mo 9.958727083304492 7.934949830660945 10.105838339244823
Mo 8.552687465096598 11.806493558384535 11.769787422681986
Mo 10.061702468636643 9.28351759538267 12.805996960657826
Mo 8.483561757576544 12.379365279467082 14.738708572726459
Mo 6.734224774863636 14.449661967898859 10.794472384566054
Mo 9.651128454250275 9.8508258301721 15.39410252758646
Mo 6.799196079065848 11.751161921812859 9.845901132067379
Mo 8.032894754704103 9.321541819669571 11.017161940594917
Mo 6.472000408876136 12.90465215129057 13.292014076815871
Mo 7.585022866165672 10.31718885651675 13.75048250287982
Mo 5.1138665673371495 13.600158811980535 10.906763619965682
Mo 5.914724747645408 11.000063439270612 12.256276796405684
