47
Energy = -435.42100657 eV
Mo 6.70326028511234 10.5999342769358 8.83909593933272
Mo 10.04228790578058 6.978248709367283 8.95997955284261
Mo 11.673873614506343 5.414246944641967 9.748491687773614
Mo 11.531563622558467 11.572195341546461 10.260551310955044
Mo 12.543824429300429 7.515177749797249 10.381172769905474
Mo 7.506413254899171 12.970632761888611 8.852886346689557
Mo 12.564965250335094 6.6906928387486255 12.939355258793611
Mo 9.58859008533299 13.634482687385853 10.899974584636348
Mo 12.457684349195475 6.709970120183966 7.739937276326186
Mo 7.870242905513452 8.32753820222378 10.558371053247262
Mo 7.8454706863002395 8.762665160935823 5.723562064223956
Mo 10.037665288741689 6.656104671749326 11.676666473836853
Mo 10.350115092212732 11.614375771891018 12.919703729481876
Mo 6.5177487863904675 9.709210467497131 12.188489919538252
Mo 8.368663755122109 11.935915012360168 13.20196286037729
Mo 11.577658868211165 9.34342192736778 8.240593590847515
Mo 6.490658114078743 8.01215550595346 8.215243221682053
Mo 10.515301647844117 9.1565224363364 10.633817439649771
Mo 5.406659107587115 6.95997791321044 10.741271996924823
Mo 10.680862227797206 7.528905937452185 6.167198103949323
Mo 5.041256256345773 9.29995399936139 10.444171001946597
Mo 11.57549342737704 13.933887753603543 8.696937071498336
Mo 5.694981584099367 9.456936299606298 6.2915798848862385
Mo 7.837303720539876 6.656105484782867 12.361820385372203
Mo 12.427581997142209 8.711811617146676 5.854997411749319
Mo 12.255081485085348 9.611636986227108 12.401282115679015
Mo 7.9273389225393505 11.2932696950989 6.318749546997049
Mo 8.904140729702641 9.201009631498552 8.036952337452325
Mo 6.421785077107332 6.359675126353994 6.012473117939596
Mo 12.402961914057022 11.588827846720063 7.550744766201075
Mo 7.7326284879874425 5.816097006037383 9.943358883110664
Mo 9.381179061333807 9.147667842027184 12.869405957127494
Mo 13.79049291402405 10.051807891902442 9.935551885597857
Mo 4.202028641249461 6.802008105856868 8.838726179787889
Mo 11.287412471206931 14.075448037289743 11.571885816708852
Mo 11.191895377744494 7.440583803320538 13.984691212550358
Mo 10.669580702099587 12.548405909159271 6.149297269999831
Mo 5.782368722903407 11.822281269038166 6.939210902430582
Mo 8.636944334549517 10.933048369073505 10.751477809385854
Mo 14.129088364155608 8.83547648162451 8.426035150406012
Mo 9.574215874214184 11.751823237987004 8.350355488504881
Mo 5.80538643264489 5.365397784751388 8.368626588678103
Mo 13.326945535615291 13.312448319548261 9.42626502766172
Mo 13.072404295233403 11.785293417258297 12.088423960063599
Mo 6.570730594965702 11.99566711485585 11.104606240393641
Mo 8.194166279938454 6.279402478976834 6.972338271680695
Mo 10.359922342894968 10.300478876998984 5.890535358755032
