45
Energy = -416.32721669 eV
Mo 13.762204298333067 15.864448039753798 10.47531973682216
Mo 11.748813527303422 15.4522621408158 8.316683356810945
Mo 14.618876055398262 13.271424041881646 11.439419860648773
Mo 13.529663550873723 13.564836913298018 9.046123603915493
Mo 12.205486213463384 16.443186134429823 11.61167743300999
Mo 14.838634426413075 12.615485614639528 14.355442629416311
Mo 13.362597653698787 14.687669436992993 13.099709226823977
Mo 15.624808529721813 10.636041601082887 14.882411293986289
Mo 14.719643168758708 10.846002416608641 12.35139794684593
Mo 14.635091918161214 8.586276650488454 13.319991598526268
Mo 14.948075292289726 11.605879946755447 9.615678666723783
Mo 12.072960878843194 13.82583044272633 6.8961263225692235
Mo 11.851112776752057 13.860501641710508 10.954637419118784
Mo 13.024404876412124 11.529441001897961 15.611790416972763
Mo 10.375417533518082 14.12660382481773 13.20099311417298
Mo 13.843499121071577 8.90733972707762 10.574178538131372
Mo 13.766936648293203 9.057218448877325 15.646137447289242
Mo 12.934864201798908 11.13808276373308 7.825375135278481
Mo 12.522668488397821 12.229941037360852 13.017933480487569
Mo 9.927686778181432 15.452619486571754 10.045838741420702
Mo 11.913401429989024 13.616190031901183 15.12343773911061
Mo 11.207134226133304 9.894743130778835 16.495978310831408
Mo 8.187987230955095 11.792926539971576 9.405394310287562
Mo 8.632663266455642 11.549683188001628 7.288687898258392
Mo 8.497949488861739 9.548104042507243 10.878614420698264
Mo 10.358839244438423 10.135335478602206 9.08551671633393
Mo 8.548212794602383 14.327026386984976 8.11306196957357
Mo 7.802923122692914 10.604009662606988 13.49419623233233
Mo 7.121895683598313 11.629246197493371 12.024878563153647
Mo 9.650102639039625 9.081992515562344 15.44964266378475
Mo 9.765258845271791 8.776238441855138 12.878920767794146
Mo 12.596082200413163 7.237712995224554 12.586470702465894
Mo 12.57556307356732 11.156237175274994 10.470275092264762
Mo 11.101183384372526 11.08737820887999 6.6981576332176225
Mo 10.675757294277144 12.83704651745629 8.823925045734045
Mo 10.230346504743464 11.514525952311844 14.530600073644399
Mo 8.912320902632231 13.68890828729973 11.049027073062396
Mo 11.29065458400214 8.682475315537223 11.012261612449164
Mo 11.82072970895392 7.415473028382424 14.97729859269535
Mo 12.559851849178086 8.788381864020677 8.706876368086919
Mo 10.060264911517761 11.347232175001672 11.790278230672811
Mo 9.527883660347229 13.809704996008582 6.403457197103549
Mo 8.519761005659618 13.318537545549358 13.95246806236669
Mo 12.13355951822733 9.718397316830787 13.61845011089904
Mo 13.865401414931336 6.610575616980787 14.724432566750597
