5
Energy = -36.85973129 eV
Mo 8.770850011024748 6.611764638356842 6.643570405625912
Mo 8.277965011740033 8.205022641154791 8.334619345331513
Mo 10.286244254566766 7.7698754843019096 7.151076669187814
Mo 6.588682912594927 8.616780493492943 10.020398295524636
Mo 7.480683158871651 10.20882583443443 9.27588083654803
