55
Energy = -511.25507582 eV
Mo 13.396158951134415 14.543336973498235 9.46654318755576
Mo 14.775327252999787 12.604190107636896 10.300432105183702
Mo 16.501095142017782 16.346898355206797 11.414216281877241
Mo 15.076173273580748 16.206996225007792 9.04507594216875
Mo 16.22651039573606 14.347914931958972 9.11585567284434
Mo 13.483369864924065 10.639631817865467 11.317647788345647
Mo 12.233552599636775 10.944213815763465 12.913603414462642
Mo 12.387359860829557 13.203708246822522 11.843022300162012
Mo 12.62750200109621 16.98630154703312 10.780217190971655
Mo 14.424542723744185 15.050711026474454 11.585939647595065
Mo 16.997519251459476 13.727169654655281 11.476733078404468
Mo 16.257659184697843 18.515861028813326 12.98472376915843
Mo 16.45071093473864 11.10269918608243 12.056078154482794
Mo 11.602868287179737 15.633624121897135 12.744452469242123
Mo 14.148577781944125 16.990261796572714 13.425698302772556
Mo 18.729987648388178 12.249367691331203 12.079801372457831
Mo 9.79509369611122 13.923450766611387 12.52516577459954
Mo 18.618544923121707 14.887978676191858 13.346186111980673
Mo 14.862968984404969 12.53346366000392 13.075500937280353
Mo 14.316140632892173 18.143747341928584 10.926269855480411
Mo 13.402203633375516 11.545068454735535 15.393150361427045
Mo 12.318398890258479 18.55584021691642 13.199781195691303
Mo 15.952564767797137 18.19854929632277 15.294322315110866
Mo 16.352096561514863 15.510519269765185 13.786080082193225
Mo 14.660042934108164 9.737070795319989 13.87702440416813
Mo 14.200727135269787 19.767187110153177 13.234947272344005
Mo 10.851864744398993 10.840919991464776 15.479036403694002
Mo 9.235665232747747 15.224551375952895 14.199289719143474
Mo 17.559805116080394 12.792702119021444 14.082112530420094
Mo 11.154426849524423 13.179423110820425 14.594947414500371
Mo 13.509359102362978 14.393196702347902 14.190140137839155
Mo 18.35052144476468 17.141259263865372 14.909773567740215
Mo 13.476339144337718 18.31225887201766 15.616845018990396
Mo 18.754127215640104 18.35547140835406 17.00571836414048
Mo 16.775854861678088 16.955098686542826 17.471771930840738
Mo 17.485703610893673 14.806174424850434 16.164818725997446
Mo 12.789436357206718 13.76698697702487 16.971122664794017
Mo 15.351050651638444 13.265242054497541 15.689592518498067
Mo 14.934114416341453 11.262211669089362 17.564091291659643
Mo 7.813066489037248 13.933626230073491 16.63401589771961
Mo 8.38297290910115 12.914246105546853 15.049258375259306
Mo 14.651876216724142 15.988364266036077 16.13943172273754
Mo 11.895249314420745 16.220864869329535 15.29705656319304
Mo 16.158837221086014 10.593303292896657 14.901754036029589
Mo 19.80681021471609 15.833592662043937 16.25798469445018
Mo 10.278849951332953 14.623412506368533 16.54979134360165
Mo 19.551337869117397 16.862117922844742 18.371551039784016
Mo 12.643742936542925 16.154583348235647 17.576754179041107
Mo 17.378386191058578 12.187164233836416 17.31081705040218
Mo 13.702770880208945 12.776159543599638 19.167757288770616
Mo 12.453746617953204 11.190747285895542 17.78489390036125
Mo 15.343550945936666 14.194898270225968 18.042524829124947
Mo 10.184994259695552 12.189869095758887 17.127960538061725
Mo 17.979726756873283 14.799087458425495 18.41236775133907
Mo 16.797211523655246 12.395800496498453 19.277447871942382
