5
Energy = -38.73670914 eV
Mo 7.637357533018739 8.962760547523027 6.8384888849524135
Mo 9.085267082555196 8.767752169006009 8.36587628353284
Mo 6.558093104083144 7.956535256904908 8.670832279997127
Mo 6.662939078479531 6.4943110629320495 7.147865786254899
Mo 8.838865701863387 6.601163463634121 7.759459265262502
