53
Energy = -494.77707021 eV
Mo 8.952457646539457 12.504857782946555 15.230839835558852
Mo 11.359618430049746 14.170999854717158 14.919307361455848
Mo 9.685348609912923 14.15955372193985 13.146685919418777
Mo 7.646510801765691 10.115205099253293 13.853451593583921
Mo 7.043549374409921 11.065645820190129 11.622083114079924
Mo 10.281679216158404 11.887124937928697 16.567170008288436
Mo 9.355911496311393 11.65871225283269 12.540888633861572
Mo 9.788932043757766 9.78429417986005 14.816448939001761
Mo 12.363522052129145 15.593375291710672 13.131741430039643
Mo 13.784060988490511 13.169878144617835 14.686587962865776
Mo 10.454159809299123 15.396998083504064 10.70981609867412
Mo 13.117310368096097 12.25099999727848 16.396275646239637
Mo 7.978233430429955 13.925531931621324 10.934653967505993
Mo 11.550937342532405 11.674494251712126 14.16896342702116
Mo 7.15814709314 8.692291290452447 11.251343253943793
Mo 8.72592644900781 14.868401257398274 8.957809624884405
Mo 7.496888540191773 12.136119006705174 9.228422220379423
Mo 12.188353759670028 9.550623681218845 15.785045123279412
Mo 9.209730256820531 10.349783055274077 10.02170176853921
Mo 9.708589198525356 8.841551710395906 12.176598058718474
Mo 11.96863108105312 13.440038240684588 12.24805860773772
Mo 10.177747087189271 12.810320708102015 10.284355269610742
Mo 6.7497135507667405 9.361451468955849 9.226560331738053
Mo 8.395704131840148 7.340776893965689 14.060226550203568
Mo 11.572623876867665 16.3828883643072 8.952887936728839
Mo 13.21673995324749 15.608827419810913 10.564353937103322
Mo 11.786115207251006 10.815258180300349 11.375064028699146
Mo 14.568535379757273 14.005156792897845 12.180104656379209
Mo 11.21458114744544 13.997760316246787 8.275083135531023
Mo 13.740720030590166 14.699937493960702 8.325738626015973
Mo 10.311787331152978 7.093506807558521 14.383282001557848
Mo 13.968417241985327 10.24531966181452 14.800154362343395
Mo 15.800326316695422 14.061623853108951 10.05294982129926
Mo 9.168107083033332 12.330648866331698 7.625415565971217
Mo 13.198785142667695 12.921687152719652 9.903154203294093
Mo 9.357719656123598 6.31885538617984 11.727458636607137
Mo 14.080373473833934 11.438262504207607 12.471047269917188
Mo 8.969651421606365 7.724827116029735 9.385819504113067
Mo 12.134177823212552 9.060007369450197 13.12841830469767
Mo 8.820357985202637 9.934402197326037 7.389405818186982
Mo 11.60195236591726 8.549647919030654 10.035549797243771
Mo 11.363164808719215 10.846884171277365 8.474365204614871
Mo 15.05417198012642 12.156517633652298 7.821249389176198
Mo 15.846353454525712 11.997112974754804 10.579861678814915
Mo 11.745153446140675 6.803051548334492 11.882746474053413
Mo 13.271364839783287 12.135605726020103 7.084111697119683
Mo 13.909985268335417 10.33344941094742 9.581192860625077
Mo 10.544794324876953 6.124045368718373 9.596316237240092
Mo 10.736637822053238 10.059442744533314 6.220612612194067
Mo 14.19699263475126 8.899683561769699 11.515619947059632
Mo 11.078540558106043 8.04368544976575 7.522453596036607
Mo 13.762944163573186 7.502801679328483 9.55487627352592
Mo 13.299729634891326 8.958916661364116 7.646162283653703
