51
Energy = -475.34822794 eV
Mo 15.378324863939323 12.064043664134923 7.78641858989471
Mo 12.438624955206057 14.48495936370154 6.631023773509683
Mo 13.68072307443074 12.210850184331376 6.250618774981539
Mo 13.4974123508077 15.124501322113307 9.657133395058057
Mo 14.851984943163464 13.663775728311398 10.30275174505346
Mo 14.221673610148203 10.216972889306902 8.304949335765478
Mo 15.669747649621929 10.187353719396414 10.321264789380367
Mo 10.846656313159666 13.203623651897358 6.615240990829512
Mo 12.4280944229822 7.940693772507613 7.97897666923791
Mo 12.860425057407065 12.67644020833516 8.596543871930495
Mo 13.66715977113289 8.479798997014731 10.488526976601444
Mo 10.815681633542791 14.816875782023649 8.861321989907204
Mo 11.859373232990873 10.54554611730719 7.0630544248119085
Mo 15.391609046264811 12.185013898830892 13.235747221380487
Mo 13.525507266960705 14.15199139514235 12.507993251074405
Mo 13.810825577413874 11.276445864000259 10.955361687790546
Mo 14.610062341661463 9.427998440801662 12.952198075029052
Mo 11.353728614960405 15.465486365255174 11.319455895174979
Mo 11.65114435738639 10.15295009800976 9.52393070880387
Mo 9.996120257259864 12.211387951271501 9.041338432147313
Mo 11.11106657339866 7.46973312167963 10.492789929228083
Mo 10.410735683727358 8.0914595972507 8.013688147138971
Mo 9.125975142779101 10.414458868836078 7.421471874675904
Mo 8.522267618391231 14.266147612893523 8.819404811099645
Mo 11.89426231312355 13.143359838184745 10.989080006957145
Mo 7.425060390519072 11.487303202264572 8.431906644624918
Mo 7.213418489899244 8.59002443320765 8.446328899327016
Mo 14.928222692709925 11.603830510430518 14.994172102171014
Mo 12.624159689401244 11.680463652811765 13.493257664371482
Mo 9.007272662312205 9.575532775746606 10.0715602260254
Mo 9.941433480890263 11.494690838676554 11.62723847296531
Mo 9.203670036521011 14.172951964696495 11.156317562726645
Mo 8.457021849489983 6.840715834444647 10.059471913642524
Mo 11.751742870252775 9.590389995024827 12.220237227840807
Mo 13.453144768814317 9.18321491783219 14.520408648500839
Mo 12.522147589284423 7.324628632001169 12.439865661656846
Mo 10.732150411535203 13.64365666894941 13.510359250230183
Mo 7.576039430102964 12.36796063702337 10.843912958867403
Mo 12.587528056353806 13.591539090734061 14.921090674209331
Mo 6.244116144269269 9.903574442707459 9.890550923254883
Mo 9.533837703774932 8.172013268351252 12.351374767497616
Mo 7.197094024307646 7.773239180630093 11.357469285214755
Mo 9.941494189443311 10.859613931667605 14.055116335537853
Mo 11.657133915170599 10.866399627595067 16.026771974271508
Mo 7.94997182835238 12.954610732693675 13.554882669173546
Mo 10.644274381849883 8.342712637335199 14.743791590621973
Mo 7.606282228793033 10.439618683682388 12.391079569746317
Mo 9.933798965153107 12.785284598721857 15.773743501970028
Mo 8.549924683740349 8.797817910545566 14.758149166933064
Mo 9.746457994628962 10.166811242670407 16.75620310616311
Mo 7.743615690390416 11.742954461462823 15.19648672084452
