54
Energy = -503.78474078 eV
Mo 9.01225178021632 10.811198276712695 14.14302270343314
Mo 9.863064258101552 7.594250806744123 9.470858300638804
Mo 8.96188426990878 12.128704234576855 15.955768944668831
Mo 9.38604601493761 8.73336772352393 12.156077210803621
Mo 11.402444866407626 9.227094760937177 13.6123925604648
Mo 10.870447187097783 7.113571017778929 11.758614553527089
Mo 8.255886647032597 11.52620643644442 11.475514803601683
Mo 11.275359244132991 10.745461347945133 15.829703345392396
Mo 8.694280802545412 9.807595786256242 9.706495596294948
Mo 11.569755492905355 12.80942759222326 17.572087141244054
Mo 8.460196948465232 13.322580539364433 13.266076925685983
Mo 10.07414772060688 7.190238983662399 6.8614299666951775
Mo 13.348243977725462 7.257540595220761 13.457199527230255
Mo 13.602845608801234 8.984391981192928 15.234343438176465
Mo 10.834985756683148 11.61783718889799 12.555361892814194
Mo 7.83156276300012 12.648716938360641 9.534647972622695
Mo 8.802306849790117 8.520035886792726 6.842519829513245
Mo 13.626014522540387 10.811125208930909 16.897674107556387
Mo 11.130259321901484 9.676533329136358 7.926834625018984
Mo 8.288291053585468 15.204352005623091 8.779726557858105
Mo 10.638261145514369 13.265056648110559 14.755447254579583
Mo 13.416071878373751 13.07221506524494 18.055606097636787
Mo 9.108174881727031 11.213785720263537 7.630727790816297
Mo 11.495172313196438 9.517125624269472 10.660819949846507
Mo 7.413711624764693 14.596969181302562 11.568844475565102
Mo 12.187279126652468 7.198652843374023 9.025979787220699
Mo 10.593670050918778 11.659846443132889 9.747883436022066
Mo 13.50525953628354 7.850908786509224 10.863756978864743
Mo 9.828736504805079 13.942384381198645 10.897960928214388
Mo 13.580791914233558 10.043103102389438 12.454118035897727
Mo 10.133214265780818 13.440310343091944 7.967104633750438
Mo 9.894070363725314 15.51969420989283 13.09110628743878
Mo 12.983430690906582 11.800483796584572 14.383603056721203
Mo 13.498478230314278 9.52508807548667 8.85045544939913
Mo 8.882935799874062 16.495121775427677 11.320341850818487
Mo 15.28840717280013 8.054528251514778 13.148801075518685
Mo 12.950619116675288 14.278520342313733 15.637950895855267
Mo 12.30877172996239 11.923773130981163 7.694123107025463
Mo 15.444388276523611 10.277948807140753 14.374706049144308
Mo 12.447178288416534 13.956203684133438 12.628114340624137
Mo 13.28568242094369 11.788430244769213 10.290886217097125
Mo 14.99034951189861 12.428684883232929 15.661098036209388
Mo 10.119388417785345 16.021614561198593 8.998502830630299
Mo 12.325910090170709 16.20458554074748 14.11328848894622
Mo 12.224391974396276 14.146913862657719 9.529636661240053
Mo 15.436653994046685 10.133211978733481 10.606783404037227
Mo 11.791738001251643 16.02053658837642 11.291644465381811
Mo 15.04778479955374 12.330964412331697 12.588751071022537
Mo 14.656078947652327 14.45802243756095 13.950748666350743
Mo 15.03349805566637 11.503245361851944 7.979432410193255
Mo 14.588027210093951 13.404087076409867 8.250271534597674
Mo 14.267785277655614 14.336710342896192 10.983737470171238
Mo 13.922660402057401 16.44913432345758 12.512978061525056
Mo 16.129168873187044 12.227302548872137 10.368369182168358
