54
Energy = -505.03060718 eV
Mo 15.220642691542869 11.508757192392812 14.668810296195158
Mo 16.416630564597153 9.75075994944311 12.772526064552165
Mo 15.757061290159198 9.756207926794985 10.416177332202395
Mo 16.533499719276925 12.465213950947344 12.110634269560784
Mo 16.339831282414593 13.985842504881875 13.395369755711394
Mo 13.527208984631693 12.95874652571669 15.549858952301442
Mo 14.648665372670898 8.375388628263456 13.921942099230515
Mo 11.627199233803747 14.785336581691569 16.21446428305537
Mo 13.771631139883256 15.300002990846675 14.279197603512921
Mo 14.791650626481022 14.704850757452503 11.271751192200558
Mo 14.689198156608917 12.31394456199798 10.117514251443653
Mo 13.19105909252947 10.121060665005583 14.948220806608806
Mo 14.673410126681153 10.2164224590949 7.897173213441562
Mo 14.133791948667916 10.671199848849922 12.413612792731652
Mo 14.463050776485403 7.956681200600976 11.35342804298657
Mo 12.630790434998675 15.661361008145265 12.114745920446405
Mo 14.33357859798498 8.325290003544874 8.46500463140903
Mo 14.154721586500772 14.716475190960557 8.502976349634546
Mo 12.923712331941704 10.152143776637184 10.138808513404694
Mo 13.841742280674001 13.10944576437922 12.94903160789062
Mo 11.363237512387173 13.770107514863655 13.66923233192289
Mo 9.403267770295113 14.58290446532207 15.213313110270345
Mo 11.338328800024957 11.807833936170269 15.588203403433251
Mo 13.1965525994057 6.18224380640494 13.816097448312291
Mo 11.675682101024035 16.411234189300338 14.792820209729834
Mo 13.057025996303839 16.023741801693962 9.411268848138747
Mo 11.453587745946452 11.179462283738326 12.665545406526926
Mo 12.309115275422341 8.57354020623427 12.653475071741163
Mo 12.271193112863571 13.145946625742026 10.793500297658012
Mo 12.245438148277115 7.281275183490784 15.086281457807651
Mo 11.962501444199356 7.8188583766966255 9.774927583470095
Mo 11.933902136832021 9.751790846305243 7.79847925129515
Mo 10.568199015373505 9.459630743035103 14.495353557193942
Mo 11.402522388803238 13.974076772072829 8.53486901431588
Mo 10.475037999050123 15.254785899044162 10.57850470736951
Mo 9.737665123409919 15.615293016366241 12.834156577807944
Mo 10.556625088417954 11.446924684822285 9.629564442862407
Mo 13.006421154054834 12.261668145421845 8.107346652794298
Mo 11.104517137797826 6.422550290815289 11.845986692098005
Mo 9.146866519022128 12.25891882103119 14.397387591529654
Mo 9.75989570471413 7.442064373195729 13.070075755455427
Mo 9.44469020556243 13.001564006026648 11.7844358691645
Mo 8.8161459923921 13.4372375948868 9.156037766145923
Mo 9.717671032184514 9.197060153963653 8.343477614222191
Mo 10.277532579725664 9.005261901423454 10.976503024185428
Mo 10.263781746150586 11.750291698422853 7.033088614614016
Mo 8.909721815062952 10.276317403737615 12.85957226526579
Mo 7.771086974587477 15.043440944825717 10.697251396312572
Mo 7.703716546352394 14.141046579956729 13.158540919675273
Mo 8.112233918420511 10.908218132790687 10.386849559472338
Mo 8.354595799387313 11.16769016352128 7.71348780579313
Mo 6.895310658449839 11.787179633909185 12.329252708390094
Mo 6.3726814713566355 12.774827090728822 9.68484836427136
Mo 5.687337627249163 13.795742340621956 11.354456944427032
