51
Energy = -475.41889275 eV
Mo 8.456152427906249 9.924632444066646 5.431457836918127
Mo 12.788015889150435 9.0264003635099 6.407398492043087
Mo 11.989897872429735 11.916235123610234 6.261965387951428
Mo 7.315526559890616 8.129313472357161 6.204054518235817
Mo 14.291421248280402 10.076266596480593 6.606935155018735
Mo 7.053736105137688 10.619748985963353 7.340620997811582
Mo 6.792320949834245 13.562165965387418 7.996210981899704
Mo 9.4918864815483 7.646853119972016 6.9278307709050795
Mo 10.14734675650719 10.374136118302657 7.22322918691339
Mo 8.881541240710327 12.657490407132817 6.446631104398407
Mo 12.663217019499065 6.428471962584716 8.3903127929831
Mo 10.474080078108557 14.1736598860407 6.392207227615603
Mo 14.063475056926807 8.322465428323783 9.270278007467212
Mo 8.420995402175917 8.984142846947545 8.779428549581397
Mo 8.474024358461893 11.90003249556532 9.245321561662243
Mo 13.434744036211523 12.915336228889068 7.7155978910193665
Mo 15.260804506328002 11.17664635357302 9.219574277117545
Mo 11.25373384955127 8.336093302255232 8.750842016887049
Mo 5.830247064694492 8.336524912435536 8.600708057167903
Mo 6.041372366832893 11.038529250760801 9.847373913210294
Mo 10.804320715805334 12.819787377872373 8.404192283129222
Mo 7.740757646117663 6.20671281382273 8.354562430200778
Mo 12.665091330563095 10.55741517383262 8.72733401209311
Mo 8.44272960375494 14.598382732586659 8.494140133128282
Mo 9.85609547148073 6.0339592457933495 9.36987733812836
Mo 11.505314450566077 15.001614256255282 9.625167009484622
Mo 7.796742202714811 4.602211940477486 10.76855366616019
Mo 10.254242360864188 13.989438529305744 10.816502149979174
Mo 7.531898174485342 7.219231063203995 10.706685969559365
Mo 10.494548122208164 10.796544467169202 10.377555433467595
Mo 7.873242937025339 9.908350937712878 11.30899673075173
Mo 5.4036041134365025 6.05585886236473 11.80007122274968
Mo 14.102564746128918 7.702831192098742 11.678755732865326
Mo 7.127856088476862 13.389047436035076 10.83954039619054
Mo 5.315921265268701 8.747761422368335 10.670027554972545
Mo 9.37702377907253 5.280102970954426 11.829119486438207
Mo 12.377655123508186 9.258774949869474 11.250864739746088
Mo 14.571502210316055 10.789791744059196 10.956484149297708
Mo 12.824471834528882 12.768272382117763 10.188596030431306
Mo 8.76363969669909 12.281096406367283 12.190205544468116
Mo 12.204766916223699 6.448675834660334 10.690481277141396
Mo 11.668126265896806 11.760958402957076 12.302259998590156
Mo 5.850687288064628 11.697464337854603 12.137932983656011
Mo 6.7535047301481645 5.732082658485053 13.147874236011624
Mo 10.064500962747685 8.075634917739707 11.089974105696683
Mo 6.317251956599321 8.568081420963358 13.116759489297941
Mo 12.733342241405994 9.347771453275582 13.823362346293989
Mo 11.603288162602373 7.731574776604153 13.533709767990675
Mo 7.549993425673846 10.68798322299798 13.672610164253499
Mo 10.096754666684689 9.913655762331635 13.126604910228947
Mo 8.50837461342833 7.788138416385623 13.247572353473597
