50
Energy = -465.38114955 eV
Mo 13.460613216815942 12.495251395891204 7.0299724750440555
Mo 10.974722128499506 11.962211255960064 8.256017077453807
Mo 12.473977333724074 10.005361656515033 8.189322298761859
Mo 15.111322959607625 11.532578467026475 7.395035969060524
Mo 11.976516710104596 13.804586985799965 9.622891068579627
Mo 9.452527501542239 14.221610201259933 9.325281640911056
Mo 14.881743438089863 14.07752326217643 8.885426858371844
Mo 14.674138671522368 9.193568771456432 9.354222876515676
Mo 8.809758843393576 11.37642746487934 9.880519012157038
Mo 9.681454658540947 9.28444860254137 8.768191565266838
Mo 16.934728788052286 13.325583038476378 9.261989526293638
Mo 12.24206838656328 8.459999996608458 10.23551519195702
Mo 13.720289311154312 11.7242279103768 9.627807362588957
Mo 11.446332227666 11.026610677598228 10.568325519677812
Mo 16.69252521131461 14.684500764910613 11.051851861642435
Mo 14.07988703802143 15.069754353843106 11.139623234117293
Mo 16.310160097767046 10.618035070124508 10.152829446808257
Mo 7.755989894120751 8.797756385547292 9.63095942314216
Mo 11.28558568022278 15.56665196982175 11.205102838971763
Mo 7.467815195773923 13.349035852160066 11.149602488892494
Mo 6.772716486705556 10.680886417730978 11.07855749697717
Mo 18.103443488068454 12.208016524316285 11.72261327613007
Mo 9.983886399592617 8.919640658761226 11.299557981728077
Mo 13.83001362956339 10.001042568246493 11.641211242307081
Mo 15.256752853165453 12.63745482623374 11.486375579173762
Mo 16.248604057045707 10.365944074158591 12.59745066771493
Mo 12.195509362934148 8.194315343690807 12.7416074673793
Mo 6.159944843105511 9.953317567158486 13.992166143928623
Mo 12.692172310954856 13.109027098506697 12.348550074524184
Mo 6.389371351382284 12.64056576027621 12.970280803257536
Mo 10.104833414515891 13.174842794513902 11.733789197920286
Mo 7.778326110437466 8.640597781486129 12.410167536050562
Mo 8.884413151019908 15.655724918374077 10.916701264082228
Mo 12.98916516843305 15.821312567804528 13.606356635128865
Mo 8.773770005145913 11.032067754395326 12.744515436016039
Mo 11.6970218654632 10.654340963895239 13.219869335627207
Mo 14.88629518521626 14.680817402560814 13.467383213514513
Mo 17.247449798963576 12.998650599989585 13.264433984639684
Mo 10.415066089806006 15.203560460423729 13.607490993824078
Mo 14.282529174832483 9.374654549322807 14.228993707905708
Mo 12.278776698746084 8.815402522207314 15.250214522061146
Mo 12.7322046547859 13.809104604948475 14.932324195184654
Mo 9.657134696764857 8.564002991909957 14.081657563381917
Mo 7.871095731328004 11.906942497561026 14.873861331540315
Mo 8.38931090527164 14.38891043201674 13.480810956603271
Mo 7.219776273652944 9.040661729447933 15.269406561904319
Mo 10.43418353553292 12.809920241994323 14.448395659832078
Mo 14.308334929814448 11.8087412691404 14.032928902676405
Mo 9.765510661381306 10.367404686085107 15.432201694447858
Mo 12.43536635616795 11.181540792164952 15.604775320619314
