53
Energy = -495.38810627 eV
Mo 7.8970814598321 10.198105488565217 15.912080485898528
Mo 7.691929764071509 7.935434207164854 13.955975950001736
Mo 6.259926630043229 9.235542099412811 13.900231222305068
Mo 9.931974127149568 9.067479020721352 15.504503094221162
Mo 6.3431395996149025 12.2184769697285 14.058730777398162
Mo 10.472073524261214 11.32572948617036 15.807916859395572
Mo 7.6976212147980165 9.189779740442177 11.287248840642661
Mo 11.775375286125227 6.423066142125763 11.17953836071986
Mo 8.706942743391926 10.564665849496942 13.574155216701033
Mo 10.06281240259475 8.14375914222478 12.577180656455873
Mo 6.511859667496866 10.93698218272168 11.696620305138484
Mo 8.257413416680935 12.633352191454497 15.302269106429598
Mo 12.275320258234757 6.996500809675275 13.054534671815604
Mo 6.822132321840615 14.378141123578544 13.342346872465132
Mo 11.706967403048212 9.96072958633057 13.705394412305566
Mo 14.375175808015275 7.363805137773874 10.829559775030507
Mo 8.307663116121134 12.837401204366973 12.081974878664944
Mo 11.843077578864866 7.844571240663427 8.664979608576932
Mo 9.918464689625178 8.441654307510559 9.827996278184456
Mo 8.65210623184714 11.184774898302837 9.738533045053073
Mo 10.66055251549058 12.867890004886549 13.44691464482937
Mo 12.41687355963929 9.00902545646923 11.09146099331784
Mo 10.2080902021866 10.598384409711825 11.527801884023003
Mo 11.376717847639648 14.14956014418058 15.692832256947513
Mo 14.245645607993303 9.35157929745809 12.736384057452245
Mo 12.923382342679837 11.721255307054735 14.965642102995039
Mo 9.073938068760112 14.744770296136775 14.195628473954981
Mo 12.721727165707309 11.826708277226627 12.09308554897903
Mo 11.600413287066663 10.670114054748396 9.170248625434374
Mo 10.743589167589091 13.018020533502323 10.64640613030123
Mo 11.74850695787599 15.472208444826908 14.267491354036524
Mo 9.768706444432961 9.972441742144891 7.708048331162672
Mo 13.593743710455062 13.553561058754449 13.733990455192433
Mo 15.63230485539081 11.721880273315723 12.738292696708612
Mo 12.103182678054903 9.500210818851121 6.79827478867595
Mo 16.032953564416793 9.153726929462017 11.136856185907854
Mo 14.242214972369776 8.855742538344874 8.951670792823924
Mo 10.212574296958776 12.856168543007998 8.073431288498828
Mo 8.743844650141018 14.294810403886029 9.99448858099103
Mo 9.864180748065019 15.345687883770914 11.825289955068635
Mo 14.405120210772456 11.006277903786618 10.347071045336934
Mo 12.409386525717437 14.769713192421753 11.673347136924702
Mo 12.950248858420776 13.06670646612424 9.11548165409727
Mo 12.064911464864108 11.828696216747531 6.660700765188015
Mo 14.86219422154885 13.753414467181127 11.149219128460581
Mo 11.343579941842776 15.292401551988734 9.2219756110163
Mo 16.936536002322526 11.702417261954485 11.141016983660828
Mo 14.456406214685662 11.08565853346521 7.496594900834909
Mo 16.337026946925025 10.409539705617554 8.453018599446578
Mo 11.754982507741177 14.413880021626253 6.994019002840626
Mo 15.80520575862405 12.977814106753021 9.00391440783227
Mo 13.812001904403346 15.394090569122103 9.560785847102084
Mo 14.327986080974291 13.791832681493386 7.280192750036064
