51
Energy = -474.92578437 eV
Mo 6.337930869536744 8.421587151740429 13.69518368134499
Mo 5.380638319739717 9.930204769061547 12.756592916635343
Mo 6.524423945551886 11.05894725278884 14.923278260156533
Mo 7.583386339970138 8.354937992856378 11.445061984683608
Mo 8.12595696330346 9.484371487342026 15.453895516360342
Mo 6.8153877302634065 10.401196563006106 10.385059407147432
Mo 9.372643650479668 7.720779675827473 13.15023586592742
Mo 6.522615084418403 12.62943852290398 12.216922622388031
Mo 8.813945413031655 9.435494500201623 9.25401141250898
Mo 8.08372941504316 10.512783570892674 12.947457185265563
Mo 10.64559564794343 7.287964278726177 10.316076766755273
Mo 8.717238203855857 14.377529821526204 9.221846561820021
Mo 7.81524792576598 13.079859315056217 13.94430111643765
Mo 8.691777302902883 12.052155304143701 10.520411242120103
Mo 9.453517436136229 11.350689932987832 15.384430001141391
Mo 10.780381873396033 9.606968964018018 14.395532143831685
Mo 11.122047700907375 11.170659704965749 10.010334768131582
Mo 10.126468891017996 9.484653875325575 11.597028545659086
Mo 9.148333950581208 11.499311099652365 8.01121566261153
Mo 11.75156748019365 7.508600116279619 12.550028962447113
Mo 8.039203513336787 14.579653971422706 11.531717245235203
Mo 12.772220872795 6.470719690174298 8.793341015285
Mo 13.188388617713043 6.05224461224841 10.658638586905191
Mo 11.004351008510445 8.96203689661681 8.305990759896828
Mo 10.445022413787491 12.078324330672727 12.971935528235173
Mo 9.974671524350425 16.5792599390235 10.692768302045229
Mo 13.532865846949758 8.5785919633008 14.314426663420337
Mo 14.509294392246629 8.144510072337951 12.743977203826997
Mo 10.722148703685617 13.88314740077296 11.027959049051034
Mo 11.727809444476584 11.096052284066985 7.005871092569381
Mo 9.853078911399018 14.74690270089866 13.144341720533324
Mo 13.594283290641386 9.0288179482593 7.619161747794057
Mo 10.841236527601435 13.24371131732073 8.468917589386075
Mo 15.06177238281593 7.917395763296479 9.867230210044845
Mo 12.439595029491441 11.502379968931118 14.455575839037028
Mo 12.847322922926736 8.845306194387188 10.291738116590883
Mo 12.734005586135753 10.286555847273219 12.429821498826277
Mo 13.368902484573477 11.461477024616093 9.074708500958762
Mo 11.0872300742385 16.044768424102877 9.245165298537831
Mo 13.052306479868129 12.692475875089103 11.617382220385796
Mo 12.43558955401247 15.527396901215829 11.837398430464985
Mo 15.142033766644337 10.543964375918474 11.242227727069105
Mo 13.926203795531164 10.913969535975458 6.339484890126423
Mo 13.358243830008144 14.281212245633846 9.495633485182484
Mo 13.225183176918653 13.66407106655811 7.242173199502005
Mo 12.339719238396812 14.074618389199022 13.651608208977141
Mo 15.569039527979763 9.978766847982111 8.954137652698734
Mo 15.029654756133482 12.708280197832318 13.32621923454113
Mo 15.426566428617567 12.844335423917743 10.428185377514465
Mo 15.209312122739663 12.744484826722747 7.8336161685762615
Mo 15.03780813874307 14.489117006624449 12.44058944356689
