52
Energy = -486.07205089 eV
Mo 13.01620372703631 14.555192222560496 14.356884481025196
Mo 14.97337213870108 13.971859782710414 12.355816684880425
Mo 11.216790725245966 16.931693723165246 13.830675167754372
Mo 11.662764492715834 15.424337058382568 16.465119195387143
Mo 11.802706561313402 16.07147386224381 9.676197691219842
Mo 10.888539023245844 17.545766411239505 12.010992894791759
Mo 15.317273120007055 11.166756227411986 11.772968727038544
Mo 15.819403193376406 13.068166511749535 10.50112829937555
Mo 12.568744837922289 15.357720251182972 12.052011045666756
Mo 13.667802661688441 14.474339689817626 9.844867338330822
Mo 13.950656783524211 12.087665636149415 14.017612168673551
Mo 14.077319418121919 11.692084599850187 8.917542142737345
Mo 15.717670104471615 9.870818211870537 9.559579696959219
Mo 11.370794879939984 12.959375844704292 13.386419158237908
Mo 15.577607134281573 8.01267192476387 11.634776393231046
Mo 13.032173736628184 12.37279200526308 11.295539845721992
Mo 11.985716153193357 13.486502515486182 8.194215851867847
Mo 10.134940887712428 15.02990554788368 8.070676320495593
Mo 10.196866159780269 14.538499951122127 15.561244958381659
Mo 12.318085493615033 12.868256435739367 16.212692967050703
Mo 9.775487317565718 15.07030289657191 12.801046857390805
Mo 9.259312498284956 15.672769275067088 10.51188281332408
Mo 14.496098103112617 9.632067636984319 13.77141565915785
Mo 14.371976895835706 9.063929834605567 7.903959508985168
Mo 10.907529197294188 13.77214090915591 10.584623403823201
Mo 13.358310724972975 9.535071362258499 10.637879802648438
Mo 7.962564920592431 13.529099196330085 11.296582117040082
Mo 12.899040147760223 8.306616125639035 15.100949322891626
Mo 11.86794162928661 10.312669793890313 13.310292646419363
Mo 9.08429534349248 12.940850164074087 9.030554224705527
Mo 12.701230665990659 10.60550603967008 15.829521937491544
Mo 14.662649695327854 7.183368805529644 10.089603409991886
Mo 12.706962819821428 10.734489333475702 7.102248359456716
Mo 11.336776887345431 11.061193180083011 9.268787851663985
Mo 10.291607767925377 11.472341994067627 15.301784673927415
Mo 10.708997016671699 9.141684441910641 11.14300438052631
Mo 8.715874993193884 12.767767764559702 13.764605751262158
Mo 9.58895383638603 11.572598184086416 11.640539745289717
Mo 10.233422853911138 11.886702153722384 7.021601391858848
Mo 13.107819730302188 7.794282688139677 12.499532904263882
Mo 10.54889360585244 7.756388659078566 13.411371178016738
Mo 6.832746445479326 11.415933974771164 10.489897119521743
Mo 11.991203107679507 8.490884204381427 8.62142195397514
Mo 9.08415987122165 9.943903617521746 13.647692705849755
Mo 6.8215829245556785 11.166601174367129 12.503780402281649
Mo 10.550860193767058 8.652641645578655 15.511332189176365
Mo 8.892943119345968 10.186301034625723 9.095534160248508
Mo 11.817760395459976 6.915635953457919 10.59997867540238
Mo 10.16400436375071 9.558756218988206 7.061621201187809
Mo 9.396998635707897 7.585626847808051 9.173830573371923
Mo 8.238812667553455 9.03124422824742 11.405172750317838
Mo 9.239529886544021 6.653802223770293 11.017280433352218
