5
Energy = -34.82649694 eV
Mo 12.874363504325169 10.214054410324406 12.53693020808473
Mo 9.038103206972748 10.638789360195947 9.234951650402053
Mo 10.296558723216114 10.246854508477362 7.214374413479218
Mo 8.999370714040024 10.689694675451074 11.050221511756092
Mo 11.000300553716913 10.59553142732582 12.335124280875773
