55
Energy = -511.00915522 eV
Mo 10.614748448116826 11.007583416707062 8.843683029793494
Mo 16.494373184534318 13.54907464929344 9.477931933740543
Mo 14.223824809496067 11.154979566712415 9.3569800155867
Mo 13.994342120756132 13.35739181620221 10.48151890209848
Mo 14.001921973051449 19.541850239173787 12.577586428514824
Mo 13.632463374870277 15.560057360517984 9.110243391097796
Mo 12.000190951696963 11.352818859556459 10.74754437827784
Mo 11.637029880246699 13.595120941962803 9.490970605713459
Mo 9.31743073328893 12.282446218547499 9.97270104839686
Mo 15.65554902053876 15.676315445446702 10.492683686404412
Mo 18.0227464669274 14.075628706874978 10.983320144162702
Mo 11.813418453603658 15.15882879025961 11.430178865868198
Mo 15.39269331717066 18.227078338231436 12.21006712218186
Mo 14.180679114080496 10.871410897153826 12.186801305135063
Mo 13.334735684705 17.063589290481662 10.874755551505803
Mo 16.111295436785163 11.211498011579664 10.463738050029677
Mo 9.28591598214342 15.178386327866962 12.80843380180013
Mo 10.59243494720213 13.00065336696668 12.256483914012197
Mo 15.83571242524471 19.591766064794722 14.758761279937714
Mo 9.684644203573137 10.531624686732599 11.585088392884987
Mo 14.313124379153194 15.536769472880325 12.789540129475334
Mo 16.02152957672321 13.123377829909954 12.314873408277045
Mo 18.270706799714233 13.712806690277521 13.97497852783169
Mo 17.054810844253897 15.851352603893453 12.777632873824357
Mo 14.192856230254622 19.479094756849708 15.580043692193453
Mo 16.353977891183277 10.515306070336955 13.699739390662334
Mo 14.521320242470749 11.942722649888768 14.923556508327616
Mo 15.655390567191624 10.78300119739057 16.854346638310965
Mo 8.021799286658622 12.388997763304967 12.739587934730364
Mo 18.00646740522005 11.630191528929906 12.604366292487857
Mo 17.762399530540776 16.37508688908509 14.92448446805763
Mo 9.143979021018023 11.247455677381126 13.992491620975674
Mo 11.382613895485566 15.41170718006593 14.102158746060883
Mo 11.472775198700223 12.581562313056653 14.885471832213069
Mo 12.130890690543614 10.668947927774374 13.467499456102416
Mo 12.747897265647387 17.422847638419515 13.501004643329539
Mo 15.27895773551294 16.9853489061714 14.828351398047426
Mo 13.157073899128719 13.209151221606035 13.023779345994324
Mo 9.291392953474094 14.023336571153708 14.679223331118381
Mo 12.937682859956785 17.020429952263367 16.004537008784016
Mo 15.889462334233725 14.202776225295969 14.797906497171578
Mo 17.380207425380767 11.969003741641083 15.427815953431233
Mo 13.456934309267314 14.581409138268441 15.659228019978382
Mo 12.59584291089797 12.323829322527633 17.235753315515947
Mo 15.717559067708365 15.89700579847736 17.174847059636118
Mo 11.41634268883868 14.377729215293229 16.96612269041682
Mo 16.958212136895987 11.88342547466616 18.20727309533684
Mo 13.115925693833075 15.736818371310028 18.266553763670117
Mo 17.094959373806272 14.53146077966232 19.346873156513343
Mo 17.602535698419878 14.418810152670877 16.655040036085477
Mo 13.092636620348989 13.671922842293704 19.31718235092259
Mo 15.001681545975169 13.453700082841769 17.582861549594952
Mo 15.379636887578263 15.372422098461069 19.75379263388056
Mo 14.497654449120363 11.213484641738457 19.408276109728472
Mo 15.335647370777092 12.547639593094027 20.502369988116314
