50
Energy = -467.07002607 eV
Mo 12.495105301907254 14.14050203014274 6.093821149098799
Mo 9.710407855200904 13.367315377781614 6.430591356826619
Mo 11.678186594204373 11.34714410623996 6.527692217547573
Mo 13.956272692959619 10.197416553940421 7.377679850859902
Mo 9.858931738769858 10.53777384785057 7.58667295430834
Mo 13.013990055689124 15.229194205505122 7.579534907325284
Mo 14.018661716990014 12.481063640717135 7.77979816989398
Mo 11.913114712716734 9.481556910233985 8.738172304254483
Mo 8.588929989187223 12.855224498094515 8.209391012589855
Mo 10.312000252133515 15.091132581583734 7.958522263476422
Mo 11.485740010406028 12.920933798888502 8.539573865813452
Mo 15.454535426740497 9.505448424225385 9.21190234991996
Mo 14.126134521186943 7.8344706761333915 8.719858534346782
Mo 7.531751527340439 10.45745552620137 9.502792290853334
Mo 9.50176813511406 8.449359551055009 9.794028684012842
Mo 13.862957367223453 13.951506810176186 9.934150690555036
Mo 13.377684242520065 11.122820266651322 10.057135981340684
Mo 9.983862601435678 11.384059450710073 10.084429624396343
Mo 11.724295739930168 15.387469441415933 10.241926148409803
Mo 15.875350736920733 12.138031792354656 10.03459818826728
Mo 11.305334418901321 7.378019386686972 10.243551666491866
Mo 9.531971614128935 14.138432647471157 10.500100456923109
Mo 13.623447631015297 8.524033281965286 11.053078326973836
Mo 11.954349578240743 12.893029800104822 11.524365578806659
Mo 7.445465701536746 12.333122970962492 10.651794176513912
Mo 8.307291161835138 9.940132773614007 11.973949485645107
Mo 15.229152542844105 10.142514423209345 11.95375535874454
Mo 14.947702628880007 12.808913335057438 11.897772028065718
Mo 9.489715668246792 7.51822373220884 12.601752527941262
Mo 7.7572422390287565 14.391591867088145 12.747301656383481
Mo 13.01850879640135 15.484493935377811 12.136476344785804
Mo 11.138240466801829 9.714491252981169 11.518097622116587
Mo 13.003820880577885 10.819080517481442 12.943310430729067
Mo 9.55466926392022 12.166275317393527 12.645397587733763
Mo 7.20205394466052 11.81204750517622 13.34707118138164
Mo 12.319359668415641 7.8906398001854825 13.230948273043582
Mo 8.028997569944515 9.233987545625963 14.47262005465696
Mo 14.13645651927219 8.900076330207666 14.161486342907972
Mo 9.761136586652839 7.171012060033903 14.48086590099101
Mo 10.758151111844613 14.696132906927893 12.838432919150932
Mo 14.974881002258828 11.846949737281376 14.598414667997229
Mo 10.41790901277135 9.93853388549546 14.133743566644817
Mo 13.36464650344554 13.519112905579101 13.917331588266553
Mo 8.53265889491342 14.134358860648103 14.527615230096368
Mo 11.918045113955372 8.649689641044471 15.682156332559256
Mo 13.004971899508378 11.10355722820375 15.516960462473445
Mo 8.675510339687804 11.51916717780201 15.304661322808053
Mo 11.173399637865192 12.74434447495381 14.60976762840913
Mo 9.582959304133148 9.194407756478691 16.753690701769006
Mo 10.696665448673485 10.838143821788835 16.955654403828927
