50
Energy = -465.51548092 eV
Mo 15.476780434787445 8.831959578141191 12.12417511845498
Mo 13.458771926736068 6.795536690691849 12.384266279325947
Mo 14.858389019581367 8.933932134171599 10.301561196797554
Mo 12.750707648116276 7.071484090670475 9.781701156527463
Mo 10.368812967988346 5.624719150317071 9.577926080753443
Mo 16.548366926758217 11.585252391203186 11.320567596820586
Mo 11.46012188090611 6.304997143266115 12.043820384843604
Mo 10.961503006039534 7.459444454668533 7.315910141192555
Mo 15.673334189073246 10.815854197573604 14.23973461524115
Mo 14.074860202593309 9.869997123500953 14.458609423384532
Mo 12.902240239042044 9.340217888250768 8.203019950014141
Mo 14.52483286617421 11.582489891195433 9.197313116064377
Mo 12.484210125556277 9.032314962475521 11.856323062380504
Mo 11.543343461678532 8.226221410909972 14.110232950362459
Mo 14.132433775902623 11.300238252811779 11.915725112699132
Mo 10.773549868945077 8.400041206135137 10.015768085425345
Mo 8.91407481946389 6.476908827851714 10.497280827594322
Mo 9.15563954188055 7.754699237835865 7.800705376552591
Mo 10.374063328689548 10.178413051572319 8.230760863495329
Mo 14.595217413108916 13.698271961751635 10.806809108513255
Mo 16.11735124727977 13.16856513192601 12.642523357906487
Mo 9.737024228143065 8.55707018840349 12.623297484506402
Mo 12.787731709270249 11.26956511639637 7.153306760416944
Mo 13.539982756267609 12.77483948870291 13.909839945290921
Mo 11.732788034648769 10.944939622741607 13.429462970364852
Mo 8.069124863118427 9.26796588989785 10.191086818760471
Mo 9.512020218226782 10.27646291720185 14.280884932778287
Mo 12.194320291063214 11.13375710131557 10.060645488620175
Mo 9.826270776729151 10.899077732906662 11.24425665135931
Mo 12.788399300246313 13.511802136641478 9.00785605233007
Mo 10.913949699806249 12.644343296145847 15.37304920320733
Mo 13.55644951568771 15.368239296398396 12.38346192594903
Mo 12.106530988559367 13.223849019401541 11.852554480496014
Mo 7.572091826183879 10.728094402775397 12.526221484901281
Mo 10.736739045189964 12.68139150015798 7.804673453641561
Mo 11.526877279970904 14.438205867172298 14.535074755714346
Mo 8.270925849312322 11.47374669589213 8.949470330022521
Mo 9.589262428631235 12.86504279800129 13.008148686177133
Mo 12.553681618489676 15.733932228122923 10.529576816884404
Mo 7.733501601346403 12.375763157914186 15.057642086275647
Mo 10.13668739095565 13.539314618590694 10.168546552562534
Mo 6.183701900710603 10.65258633735969 10.504706660746951
Mo 10.868104711050835 15.513939297166042 8.186022863839712
Mo 8.936193255803184 14.676174624885718 14.568195954156192
Mo 10.508507070316275 15.55446916299174 12.28835210919075
Mo 6.7377473639658705 13.162836985504315 13.542702414522582
Mo 7.514238854237108 12.755931948510971 10.903706820363375
Mo 8.383314073524307 14.023696651170733 8.735787525697264
Mo 9.77758301490145 16.23723152142123 9.592310286086365
Mo 8.39365018264203 15.132077340431307 12.109712096968199
