53
Energy = -495.5794078 eV
Mo 8.0929004714525 11.727576409611073 7.226103630326111
Mo 10.373473155287327 12.072612753952706 8.148167623120555
Mo 10.553729894406132 6.806308868901355 12.86644741586927
Mo 10.500635887665895 13.418942502136535 10.93398057952981
Mo 9.345048310742705 8.012917246221296 10.57433984642479
Mo 11.821688168424966 15.791235346667625 10.69375823767324
Mo 11.49375017206183 14.662201309726642 8.588343574564433
Mo 8.133992640790604 7.951881794724726 13.610371000984502
Mo 11.757713280468673 12.01492769705963 16.120332528176185
Mo 12.564979501980158 9.714363236287113 14.136845055140025
Mo 9.695342777544033 13.763806768722963 6.202018890877035
Mo 7.797528340963736 9.411134731237611 11.337555152651149
Mo 12.662588682235011 12.199401924933523 9.422183538441537
Mo 14.168706864721477 15.216403401887368 13.847519470402052
Mo 10.943802472817794 7.705232391435434 14.93803336678705
Mo 11.6942978127926 13.84920531077597 15.551558914024355
Mo 12.636186108995016 11.01774046665253 6.856183471810008
Mo 12.13158802095601 8.45213291496343 11.2793107879679
Mo 14.535895887268188 8.709525509530843 11.319860555440684
Mo 11.052514025716311 12.088224759852901 13.392252923076668
Mo 10.133018571437074 9.463865584266367 12.84986705049794
Mo 9.183703075378123 15.756361682504666 11.393491137828336
Mo 13.698082238507217 12.465433502276246 14.103997148519873
Mo 13.403394942823697 13.48245618413174 11.636072399713129
Mo 8.560254824922724 11.894173359706437 12.562182692501308
Mo 8.940599866916958 14.266329122690056 9.04444877648121
Mo 13.056437686651952 7.2842450212764405 13.3985283568452
Mo 15.261488421012716 11.460702382081244 10.449639181200629
Mo 8.08941611240619 12.126353674275887 9.720783122413545
Mo 12.672259069381756 10.894785404834629 11.64771555142392
Mo 10.207912935586377 10.744517600508566 10.596087679778305
Mo 14.347478995716367 10.436471714018548 15.716812226178035
Mo 13.322272718943209 7.778264457927875 16.263126666963547
Mo 16.008168194135397 13.28026998613716 12.600854818364427
Mo 15.015189925952194 10.721503204195137 12.919608426951172
Mo 12.629249636061123 13.139564205990757 6.7474012648321295
Mo 9.868523534385032 10.111505903540847 15.281377237726177
Mo 15.026706217554405 8.63634502941084 14.416507738759488
Mo 12.187069097234085 9.291051857342314 16.93401295279228
Mo 11.247047768163162 9.557674182009706 8.735358766672347
Mo 9.04828484348935 12.443643536772157 15.029236619337004
Mo 7.749531455670306 14.270665746854963 11.538367045999113
Mo 14.264238386956984 15.972411601531697 12.017669374653062
Mo 11.728619088815604 14.901181886975309 13.003623203547816
Mo 7.618791968934418 9.88579817928112 14.175466088064134
Mo 9.367981519133474 14.3602902536225 13.689650438145561
Mo 14.791138283367024 12.546696668634663 8.239050480057202
Mo 13.949174531110623 9.770288346459555 9.269580034609842
Mo 15.957599948022176 13.959106809489464 10.675910507481149
Mo 13.906398293177775 14.63691065790805 9.134530057733492
Mo 10.366672063327258 12.135515264944448 5.353127267552237
Mo 9.595257818066028 9.845821094320362 6.725529723730956
Mo 8.468820662050843 9.521165721382534 8.712364571940853
