51
Energy = -475.25959303 eV
Mo 13.88034837973565 14.254895271669902 7.319885886733377
Mo 13.777143787819426 12.424838940830266 6.1043981366371804
Mo 11.218523003399604 13.581392140285033 6.45572654834981
Mo 11.40762859567569 15.077303944476606 7.794944301179674
Mo 15.279167006484116 11.755900904839217 7.880962385797712
Mo 13.062986075021866 14.926625537039165 10.139872023369525
Mo 14.879089185868528 13.428207379688217 9.65215314465141
Mo 12.531666380807362 12.4607741421552 8.62947314832977
Mo 14.027136107491552 14.261172224834704 12.57798003950765
Mo 13.19669308644906 10.254882852818872 7.429163474424344
Mo 9.155918292455842 13.246353062149002 8.344718455577706
Mo 10.56313004801519 11.055792005097889 7.506286594909062
Mo 10.617733812288469 14.413461893120191 10.384874180155899
Mo 11.901731359576347 14.882772624370334 12.738909097008536
Mo 12.621829927787948 12.437920646430294 11.259333305851547
Mo 14.487050010340225 10.61385777196768 10.05925429673744
Mo 15.27695281264929 11.918627397810221 12.088880807579502
Mo 15.122149593640131 12.463089929628874 14.719532325496404
Mo 13.1570797708489 14.204706008180887 15.616988392505966
Mo 10.843037930481843 8.588036919776407 7.937683600440916
Mo 9.112655765029501 15.035239682462759 12.713904243758865
Mo 8.23270662710551 10.234152946491832 8.56124148534506
Mo 13.237576597452952 8.276505231533843 9.060146427561566
Mo 12.523865264150249 12.154810953960078 13.810180895248028
Mo 11.908532812766229 10.042890139534135 9.967523190637765
Mo 8.139095218840191 13.888099871066506 11.163268656724094
Mo 9.990484623943415 11.826561927106354 10.026669328859377
Mo 13.17990000243899 9.859597279139384 12.444312515500588
Mo 15.511931937385853 9.645787499208641 12.249961563974043
Mo 14.563885381401429 10.580679623387821 14.906390067137396
Mo 12.571282825492194 12.561648735080745 16.481652612757614
Mo 7.168083219581787 12.117945314575174 9.415860784464888
Mo 10.605812882060164 13.93136161524821 14.847645653834789
Mo 10.12273234016523 12.632657008442465 12.545666421483663
Mo 8.043141975247458 11.015808632935526 11.614571403405828
Mo 12.105915130010354 7.6379228114203235 11.266378323238875
Mo 9.619474737392053 8.880984260165226 10.411893903594992
Mo 8.314243947703408 7.393316029861826 8.377270345769492
Mo 11.941418039889628 9.998302860623049 15.21254532100504
Mo 7.8220173916438975 12.703151319946736 13.874676631848091
Mo 10.418085110016847 9.938576844921212 12.820069736941843
Mo 10.884828717085705 6.703835465930682 9.442016655798895
Mo 12.189926527746186 8.045639046208287 14.09455216382611
Mo 6.884254419204276 8.967968358806386 10.218066115104909
Mo 9.905528805856653 11.74993138644775 15.082871600032213
Mo 6.420704010000291 10.902957427680262 13.411539546582938
Mo 8.271559077833961 9.904916406816067 14.406941458547658
Mo 9.884070907184936 6.9985884592915335 12.339301610259318
Mo 8.209691919080612 6.44509069052391 10.105953945437395
Mo 7.791927808364416 8.318695651237276 12.366568752375949
Mo 9.8950842958572 7.851231448543868 14.527969200841385
