5
Energy = -38.41866827 eV
Mo 8.241515714434598 8.85185700352211 8.449579949037583
Mo 9.117107903454873 10.305122453493002 10.523330634121763
Mo 11.03074152827214 12.02570538974711 11.031903083399333
Mo 11.536973048510893 10.286943634506278 11.21243219710746
Mo 10.008091920729008 8.675997989753862 8.838398172472283
