50
Energy = -465.09704561 eV
Mo 8.223225989362668 12.064559507329196 7.974207734921211
Mo 9.313829020144729 9.219900047677005 12.66300944672194
Mo 14.473021506849683 8.181444415869898 11.480428877923691
Mo 15.158130054825957 7.768975613253915 8.848222482858777
Mo 9.789228290829803 11.144110746523786 14.78733889870688
Mo 8.1434956194815 11.517632887924705 11.886592850099102
Mo 12.577262630770774 6.857341619201773 12.472897573805698
Mo 14.034463010525643 13.98858387844023 9.83586846698816
Mo 12.677105460868473 7.042057189249931 9.718200415698528
Mo 11.339412872099373 8.767986457362177 14.361922760954691
Mo 8.607640280547153 7.89287366636994 8.531677692201606
Mo 14.318897610596272 10.66220877638538 11.9809728693267
Mo 7.6699301807384375 14.09911882340614 11.66298753734756
Mo 13.187840371331427 12.227397716240993 7.735828224010646
Mo 11.346865916774291 8.21525583537972 8.32077050330437
Mo 10.396165114296496 7.458560712180557 10.802542631125622
Mo 9.488605506539441 12.795777725473926 9.887042005895003
Mo 7.66175875686922 10.284551928959539 14.420060939369714
Mo 15.914057552814135 9.441429786377247 9.667328974958691
Mo 7.997725435021294 14.554688099153735 6.646350245344819
Mo 8.61200586363118 13.073152993697548 13.811175583913085
Mo 7.533855034098293 14.555590891106117 9.012717682203432
Mo 6.573678989824188 9.39097956033725 12.004672595502743
Mo 12.645632274673856 10.970554611395508 13.962023854492156
Mo 13.504759250291453 12.825314603473357 12.422241957443704
Mo 9.312082164249432 15.536733782911057 12.664591540123713
Mo 14.139164794663206 8.606194307735286 14.095363988236686
Mo 7.209360091911988 10.00714957680558 9.642421623578352
Mo 8.905249412729786 9.374050080701549 7.308583711232563
Mo 8.878413614294054 8.414596888323905 15.276686044796806
Mo 10.344751628548908 13.170519405398467 6.82827449253653
Mo 9.980404689556678 6.736528595725239 13.258941454995181
Mo 11.55800797539142 14.31939259878217 11.371717861795265
Mo 11.516333665011718 14.067820642930156 8.571686151199541
Mo 14.972716475409957 12.242432572536925 9.812293242451638
Mo 12.944383782328384 7.019962519941467 14.892249955386296
Mo 13.299326999230905 9.742927142666716 9.305532477743455
Mo 9.84473975538049 10.03797165525922 10.02161900085686
Mo 10.74943654051531 11.757841636849186 12.421399535326524
Mo 9.65038558689713 15.344718255474131 10.18509683170182
Mo 14.909851677941711 10.34092775518109 7.133737363522879
Mo 6.553894282681505 12.192678784412989 9.906294770758882
Mo 7.648835138449567 7.200580735072784 13.792325177503427
Mo 10.974035027401815 13.997636747955992 13.64722132604079
Mo 9.4646444700276 15.694975241767724 7.476436235996101
Mo 12.006815668724787 9.330021989916249 11.810080797594535
Mo 11.045796878483925 11.038866945968445 7.876245042107255
Mo 7.813904372481201 7.640803035819617 11.244036624906057
Mo 12.237340897200422 11.87859852274309 10.28802580233454
Mo 13.180579838799282 9.63507050846869 6.601104164271878
