51
Energy = -474.51558647 eV
Mo 15.636741051243739 12.443430248714176 7.885827720555206
Mo 15.731830925882385 13.054543918092717 10.666330613669514
Mo 14.66937728941348 14.840744260246733 9.47784976346743
Mo 15.418419219933 8.290866520372845 11.503937820382879
Mo 14.709788639276082 10.178468085555183 9.62712067873846
Mo 13.667039491572082 8.096482313373006 9.132710818608208
Mo 14.127296586340867 13.710376872615841 7.13828676473929
Mo 14.132012902125838 13.640232536183241 12.07173410142427
Mo 13.998609155847586 10.770109598385998 7.364732954269903
Mo 13.340555449211998 12.703678342196197 9.506279711829658
Mo 14.268331221421317 11.0284368900206 12.430359304010723
Mo 14.43982804884241 6.655982146826935 11.408475976964523
Mo 13.815045568037945 8.536849206595281 13.919920322787565
Mo 12.342288672837245 14.836724436510698 10.549031185437446
Mo 11.023618660930863 8.237223749979584 9.120509855678133
Mo 11.653909489732865 14.54442034218686 8.238694761930272
Mo 11.760527246333588 9.89252524525361 13.691812566231228
Mo 12.691469930595666 8.87791823195685 11.370311761151266
Mo 12.108059213334075 10.520721654142307 9.361517917946122
Mo 13.380989989185807 11.805709772398473 14.312199557175921
Mo 11.690144487379992 12.180816736869504 7.2754044969086635
Mo 11.609103422561578 6.641392451922077 10.80386425246374
Mo 11.908164989376798 12.048276197320073 11.892490397401229
Mo 11.242402716755944 9.899446781671298 6.892688353398506
Mo 12.340212751377516 7.055735321002276 13.486331101490924
Mo 10.042133939841706 10.35922648674208 11.06666975138064
Mo 11.516424991412364 14.527956097175446 13.19613358026678
Mo 9.397746071782061 10.624244602290377 8.548148899494217
Mo 9.10574313184138 12.808421422350229 6.731480701935265
Mo 10.886308629689934 12.491026789514711 14.631634910505257
Mo 10.05930568183973 8.062551141429084 12.230017307671151
Mo 10.306828491752533 8.30191296945349 15.066811530356773
Mo 9.618083264883996 15.38407276058457 10.827758761210253
Mo 8.76690560502967 8.219702968501867 7.173042485597196
Mo 8.45192232429418 8.266701034569573 10.060880378312199
Mo 10.278948563599242 12.991573763159113 9.592049495105742
Mo 10.468722100779761 10.606930086068004 15.97179173538858
Mo 9.42421575826794 12.809844160162948 12.265749332128484
Mo 9.09415612900515 10.397881224740127 13.590742561827824
Mo 8.16242265139608 9.841573235008388 6.3271289918592934
Mo 7.704306435602538 11.638080715055697 10.477441286459518
Mo 9.501633879944238 14.916593930259234 13.68275223552475
Mo 7.3596022356777615 9.487827837021289 11.713325679663015
Mo 7.719122145516741 12.805996268860445 7.91980201596741
Mo 8.180214530704546 7.97875274923478 13.824665327274218
Mo 7.0159588467519445 9.774032529612827 8.757833303283313
Mo 7.97238439777699 14.442021737090906 10.714102183284675
Mo 7.81649028255748 9.905848592298556 16.003437418940788
Mo 8.317628058782265 12.486317344258024 14.877450261859009
Mo 7.05279436005839 12.298999003930861 12.913859616146834
Mo 6.527856732381159 10.13253018399407 14.583985308196706
