50
Energy = -465.42502743 eV
Mo 13.170171282184958 8.029712556042842 12.87140197693452
Mo 10.95002074449611 6.867287350968717 11.998328839856399
Mo 12.164146048842653 8.836880880255778 15.137720922803862
Mo 12.786000481986358 8.244252024658758 10.29865869746196
Mo 8.910414076707925 7.866000792258972 11.589487292562673
Mo 10.320722326333682 7.674178237043854 14.235604465749958
Mo 14.936260824512805 10.472526699728737 16.14718095096275
Mo 14.91793379709227 8.789233492684623 14.788777849738722
Mo 10.297270446522475 8.567578460997703 9.689933171671282
Mo 15.124222861761504 8.70084518369361 11.530174237687602
Mo 10.515982083492657 10.569600350092813 14.772375136989247
Mo 12.361001802843225 11.282641363841668 16.943829019956574
Mo 11.240235846908122 9.582125155319439 12.392391627623946
Mo 14.146301903510432 10.246841480718192 9.194279812031018
Mo 12.52456852967673 8.596658947629084 7.769883952491142
Mo 10.326286409831384 10.078536908290149 7.431342300749746
Mo 8.143670563854881 9.665695468759253 9.114353682955983
Mo 9.222374503402214 10.783998676901742 11.16254515673002
Mo 6.633211130056498 9.66908896999199 11.394204533363903
Mo 11.673726192291198 10.811903660295819 9.686867333696922
Mo 13.247758226217165 11.220235344853387 14.26682737840968
Mo 8.561287780678752 9.629138910244718 13.387792008188228
Mo 15.796754928233124 10.439698593210736 13.408837922818298
Mo 13.471451527846982 12.86210370015428 16.62527680501887
Mo 15.532805711272983 12.52992794816725 14.66567124318049
Mo 6.573002541133497 11.40780433831858 12.411099198736427
Mo 13.694728174947265 10.667233656459283 11.689325402623915
Mo 14.566056379396464 13.022694103666712 12.476555613222061
Mo 15.87994631415034 12.073839295468215 10.150885746422043
Mo 9.076042895657734 12.025317834108264 8.565189429641672
Mo 11.100357271767761 13.207497362379126 15.176437660967192
Mo 15.014267321349184 12.543794999879896 8.398709384639277
Mo 12.813279943480044 10.555914643295953 6.890958203150665
Mo 8.252922297397141 11.537113004198943 6.159162821768225
Mo 8.960798064958853 12.281422890540213 13.699850969519735
Mo 11.298880186120817 12.36239420319119 12.499005275320302
Mo 13.047495425557429 14.0084152821734 14.191589546643085
Mo 6.961343952344745 12.030242431023794 9.868388991558186
Mo 10.597835275275953 13.397481475410776 10.162519426824073
Mo 10.183364229165983 14.841471727605487 13.398744681411927
Mo 13.295297123155331 13.021584046780589 10.233388108180247
Mo 7.055857928208191 13.754540481549498 7.781620679974957
Mo 11.912758833487159 12.719552315686778 7.919959627358315
Mo 8.583612985926983 13.39756880966917 11.589911868421776
Mo 12.098972026871422 14.900620182150433 12.003456661171153
Mo 10.05477891615546 12.14936430656466 5.8629809777321205
Mo 7.870592155568107 14.681276892292956 9.168366557408541
Mo 10.00730407362833 15.675981047257993 10.923658640385769
Mo 10.64541755287011 15.147230365156641 8.050147694291132
Mo 12.287795019237494 15.380240066733693 9.031627431362159
