55
Energy = -510.83161777 eV
Mo 10.17172796386216 9.05605454758367 13.376826977713314
Mo 14.418813665278954 6.598371712737554 13.173499925124181
Mo 14.943000401109483 10.90614156100143 10.898239321057456
Mo 15.252084191880382 17.639952683371146 16.135280200646324
Mo 12.704867330322495 13.00884531596782 14.513765224825189
Mo 11.788219180946056 15.108780098037919 15.749050610724384
Mo 14.573895495116748 15.314132395449084 14.789148869942778
Mo 13.61115528542234 15.729660174342504 17.48149168848044
Mo 13.896421983358522 8.85504535784322 11.568359243631622
Mo 10.504938590528003 16.094900494398875 13.831776056818654
Mo 17.95552622045122 11.723583289447925 13.622128811028421
Mo 12.127450563916979 14.993677425027164 9.872145425751139
Mo 12.810707497365799 11.553022074532299 17.93253705932413
Mo 16.81546964110199 16.349075914538847 14.46945225688388
Mo 8.982541609629543 12.467386524749728 11.507450985155973
Mo 14.769883091277714 17.702928616743012 13.218796433106967
Mo 14.651442245188502 14.892732690205307 10.299178154895742
Mo 10.579794216885455 11.669415907548146 13.491088516899516
Mo 16.962199717135526 13.933160627465634 15.428599626254341
Mo 15.939965851322295 10.07128223430574 13.317691353930483
Mo 14.491178832883914 8.812486951808364 15.127812492149044
Mo 10.41626611100263 16.47455462899984 11.281544704556504
Mo 18.76422221111949 11.88432164642238 11.486070252955637
Mo 14.567376145429852 11.126259157458536 15.706599805444753
Mo 8.417932647734444 14.693350402569285 12.069473916451209
Mo 12.77651281830883 17.284019104080595 15.305885736198979
Mo 11.831887120800971 10.347724800172934 15.623680045275337
Mo 13.34357577262521 10.528159219415397 13.318232077622644
Mo 14.29101357775961 13.512606225372743 16.61820570025252
Mo 12.500701083263417 8.195368625907092 14.054211234367294
Mo 12.294544804476583 13.327929547601473 18.445642968243412
Mo 16.0224346426838 15.952117583715099 17.229284225070973
Mo 13.627880300057658 12.294795935482345 9.327301305093162
Mo 18.023923464910418 14.131923606270428 13.434416343569305
Mo 16.033041288321982 7.515646371074942 12.895600181145488
Mo 17.37949294668392 10.16366139827988 11.225933530088538
Mo 11.000010507008202 13.93584055400225 12.040410893450874
Mo 13.46860421413189 13.07709968802515 11.721023051087904
Mo 11.28463174300518 17.506078744105025 8.95781307183569
Mo 9.544097167597267 14.525351932044561 9.579156547816197
Mo 10.86252562092587 12.661301438666678 16.2243445193034
Mo 11.818791127375562 10.986431265107825 11.197365083983131
Mo 12.709972042543548 10.112428418666992 9.322692554286572
Mo 12.875607409372108 15.62040007707591 12.740989743761189
Mo 13.670250834331988 19.35258803726689 14.295369759234294
Mo 15.453734998651445 12.765891183825284 13.724685373962433
Mo 15.754386627831225 15.393981218724404 12.27624558685986
Mo 12.096061000491138 18.17031019929224 12.753722115401333
Mo 10.739682825799127 12.726666573929904 9.541759869896111
Mo 11.30846908064988 18.88745884569487 10.21110920738631
Mo 13.487079262440394 17.154248245733037 10.86297877982769
Mo 16.47666732770257 12.909552327755373 11.408965645258936
Mo 9.187081070560659 11.182497697588095 15.199392482216686
Mo 9.356755857989617 14.002213964726325 14.183680540523003
Mo 10.06203641587542 8.51511838228757 15.330427557674502
