54
Energy = -502.44412048 eV
Mo 12.020162895709854 8.598474648752987 15.185448342435704
Mo 13.637843316423826 16.941483916148385 15.85007093447627
Mo 9.041487454371543 14.165095302259163 11.241413003048317
Mo 10.382110261835683 16.00075360461148 13.74513924577467
Mo 13.872102226993139 8.487696044510143 13.267735306261976
Mo 8.16546306146774 12.827070860501172 12.129248741082824
Mo 16.950973219975108 10.70650921540512 10.353142154269769
Mo 12.646685683196512 16.92794745043199 10.563368890283948
Mo 15.205784198462984 16.875643599875776 10.688483139923576
Mo 11.012480016643856 16.587896254033122 15.817857443401799
Mo 18.08637778710548 12.459240224042684 10.364419676549694
Mo 15.762714302839955 13.117670157315727 9.12038994374267
Mo 12.78757190218088 14.923005014136953 14.373730479298688
Mo 14.683725957282276 12.849667238449957 17.15778109261495
Mo 10.973589412581319 13.526297107831711 18.64747221735968
Mo 10.442578196454685 11.263357981316764 16.91981221535484
Mo 16.64797054369501 15.1810035887142 13.50692391030356
Mo 10.42489169244824 13.325557195527741 13.633231952695349
Mo 15.042665085091937 17.22122234424305 13.617532606757072
Mo 15.404836885671454 15.023129408602678 18.5799998559429
Mo 11.211479850203915 13.686883933531092 8.989711591817542
Mo 15.027062298401667 13.205433091687931 14.375104623637505
Mo 12.972000839498069 10.069193732512959 16.709810099920514
Mo 12.610990610455406 13.056176335847663 7.898687360733059
Mo 12.79302783528445 14.729366496414547 17.232592954770368
Mo 12.976867906154931 12.404208805063595 12.975162831092883
Mo 16.595981909856423 11.51619586169336 15.678987619602582
Mo 12.029646761110298 10.68861813264825 9.841480265254276
Mo 11.774105102215549 14.806824731453665 11.54111105028707
Mo 12.397684546800404 12.61372617782802 15.786324047129076
Mo 16.994614980569285 14.887754306623522 10.982491312741148
Mo 15.2634524882295 15.34530924769033 15.808391501343985
Mo 13.449459402069866 12.74311280674279 10.444995507855916
Mo 17.72336738736107 12.908425000619737 13.40444133106717
Mo 10.247474906835349 14.127951812104387 15.936316856105295
Mo 12.23271689676566 9.753941433609322 12.387185383085523
Mo 8.496693655790956 12.594301675116043 16.973868598641225
Mo 14.27666011425919 15.082289028931 12.11067374916016
Mo 17.20914859545925 13.446848969361163 16.08131130516791
Mo 8.661081494007773 11.872950020852656 14.904832318345488
Mo 13.893804967355639 19.119198769345736 11.9051517069572
Mo 15.753848264894714 12.91295281706556 11.79221545644214
Mo 15.887878235274542 18.95502246294293 12.018069675004739
Mo 13.999204612552425 10.512442061676616 14.659281580703302
Mo 18.2992537400746 10.613787279839213 12.425045467325747
Mo 16.133705435539273 10.603243259686131 13.144529345701566
Mo 13.745113864875627 15.095264146329386 9.221260374226423
Mo 14.084400674844977 14.273711828940673 19.603779629730777
Mo 12.536213391117426 17.1434329109699 13.175397759559203
Mo 10.89143115467948 11.955963528054927 11.349881327913302
Mo 16.13969525304755 15.335700281165025 8.651188368901993
Mo 10.986760031939692 10.698323369794421 14.558445358198107
Mo 14.316077518091058 10.444867419601048 11.258033737478325
Mo 12.418641365018 12.155461121505262 18.678007581522586
