5
Energy = -38.04172546 eV
Mo 7.1028606817451445 8.040100060298874 8.125422391634507
Mo 10.474249722404824 9.246111594892358 9.109176294000573
Mo 8.057375980037309 10.312708772257265 9.525477931245462
Mo 9.911021158783505 8.735823596040133 7.491350879174456
Mo 8.12074240164072 7.255835577864171 9.348784501032942
