50
Energy = -465.90413244 eV
Mo 10.796511265654427 8.164885992215028 8.528109994299077
Mo 9.768036034210365 9.365260167117746 6.744446622562123
Mo 12.080795218136933 9.786577434501334 6.4668185979086665
Mo 9.565247218922137 6.963728946975643 11.068045098660717
Mo 6.3364439934982375 9.458212816884956 8.182503408972293
Mo 12.143327581614972 7.216165159091872 10.669001068706141
Mo 8.252731850075298 8.010275898600744 9.278812405860833
Mo 7.588924907844651 11.107999336959695 6.590418271435645
Mo 13.32301682522033 8.932628193341502 9.030587816077366
Mo 15.015886811575644 7.720016793939462 10.97909115822084
Mo 9.905079928788805 12.069038434801032 6.700386296465369
Mo 11.508960887245433 11.060464600375527 8.505783595182928
Mo 10.803631501818337 9.606079190332272 10.774861992097971
Mo 14.037525237238658 10.908194184252265 7.910908767814903
Mo 8.926334988240441 10.373332377413549 8.970929438201484
Mo 10.879726996437126 7.794313266747493 13.053182458401194
Mo 7.052740925514301 12.191595620220893 8.634126899256962
Mo 12.413214032675091 12.734022468100369 6.4222544891283055
Mo 13.11287600247625 6.833436401052772 12.884673152416454
Mo 8.472062016150087 9.129933355929023 11.656432761258872
Mo 15.527661980022149 9.561579504434269 10.322211185815611
Mo 6.360991213767673 10.147921191841675 10.121984057070488
Mo 13.147243513156267 9.453725296583848 11.94705327534459
Mo 8.154984192285811 14.227796613952 7.291157832176224
Mo 15.283903490423773 9.164671652578425 13.292337358986448
Mo 13.580189441760798 11.520102831740047 10.364575158407321
Mo 12.693824208890888 13.433111567607455 8.941309746729265
Mo 9.780026446449433 13.088703604351794 9.232444168802525
Mo 12.873979717440386 8.99996011046933 14.379948773554677
Mo 11.156887936707646 14.378044082719267 7.236102879426164
Mo 8.545034461210474 11.847030902151044 11.299344717864367
Mo 10.376141617332765 10.35178098818722 13.386957039461109
Mo 7.5827886572152865 14.031885221205238 10.180306193527136
Mo 8.600026906352848 8.325016175624881 14.497302846465388
Mo 7.616722436633668 10.984099558705214 13.834298672565847
Mo 11.297350067151147 12.369840052933185 11.28851991339978
Mo 14.67575705874751 11.213461165505583 15.224383451638626
Mo 9.050981789988404 15.57324971080457 8.503006516181015
Mo 10.106645917495948 8.557018319531089 15.618305021898033
Mo 15.133009534744122 11.376618029934102 12.61839682452216
Mo 12.644885819078869 11.663953527896213 13.409331924140696
Mo 11.35061551408577 15.123780824862752 10.388074765499189
Mo 13.644762688716435 13.888482950349031 12.034733467611488
Mo 9.64853068419406 14.767511641706742 11.535071732553753
Mo 9.721951252664036 12.815668705697977 13.367290427216405
Mo 11.813345034306957 10.942076103627988 16.037461790931737
Mo 8.710981995339434 11.178973323242593 15.419618441309689
Mo 12.128188726674603 14.44509267213086 13.150295650038553
Mo 14.169728452425689 13.0608736972189 15.04920383322564
Mo 11.24514280946979 12.75032637361236 15.586427796353776
