51
Energy = -474.83744714 eV
Mo 6.743919501351883 9.225825489991603 6.402138477712788
Mo 9.33282574738626 10.202203637522004 5.90827365965877
Mo 9.785189247543968 12.809049377604389 7.218108450776142
Mo 7.635201020200153 11.682374958933034 6.404176046694485
Mo 11.412323738090643 11.004873546928486 6.817487475127012
Mo 13.5798969012986 11.573857845467794 7.992018736612329
Mo 11.09991248300615 8.436814823350948 7.453461984629444
Mo 12.151838064780222 14.143114851372546 7.848913918368727
Mo 8.460606575414516 8.041278833442334 7.587573796409802
Mo 14.033699240438379 8.636035994310008 7.865552767178886
Mo 6.434459415973363 9.839678896741558 8.391813736915902
Mo 9.109118584093855 14.267804391811746 9.189057968173275
Mo 9.217107268714676 10.418950535223766 8.576752702848864
Mo 7.497652397879578 12.345162751313437 8.80029231568621
Mo 15.149995421553642 10.732547271590363 9.450788306668384
Mo 13.593262388321543 13.88891499271164 9.194268230911556
Mo 14.178192639383168 8.72386238789961 10.729490575771639
Mo 9.11134995197411 12.466405324365583 11.053122741648174
Mo 13.227505294663377 7.09665866980744 8.75478413981777
Mo 12.000071160014771 9.637697351276032 9.321407936440465
Mo 7.075760229074961 10.664951695455064 10.968326631713765
Mo 10.361796073215535 7.258527749659471 9.48734435821564
Mo 11.319231594216305 14.543773446988471 10.618702742827908
Mo 11.14710829308541 12.214804089539511 9.436629094628703
Mo 8.181311693160204 8.362556750702963 10.093467168878108
Mo 6.632857580995891 13.641991057391106 11.21074358820373
Mo 13.325952565582856 11.57644425414763 10.86160683365727
Mo 13.172438172257316 14.314708435254595 12.3765730932493
Mo 11.915552835481275 7.691118912886082 11.449300363164093
Mo 12.649086800073974 9.786552902229856 12.804178608310938
Mo 10.030089234184569 9.80254154058187 11.244955656491332
Mo 9.276171257266617 7.207350531712929 12.246897767333538
Mo 15.561324846860433 10.23327929354093 12.32231551033948
Mo 9.302881180112436 14.927775962793413 11.897623558685325
Mo 7.718297582605767 8.51662079123567 12.802378028297051
Mo 11.304298516774704 12.443836766741804 12.488575740014978
Mo 15.14842288577638 12.891268097691801 11.635948624017097
Mo 6.24054384122767 11.07045569610793 12.903129846318278
Mo 14.259999238535709 7.69945023191437 13.25473051298464
Mo 7.119442932257747 13.6329999747688 13.077190560625361
Mo 11.307175966978624 15.20611435736727 13.383674860581193
Mo 13.8411253593451 11.916537285509817 13.62651623281571
Mo 12.229551708381058 7.163246928092038 13.968597400604919
Mo 10.305008081850644 8.945017736573488 13.803925409908476
Mo 8.723156625328242 11.007938637815787 13.358314009679324
Mo 9.692450346450194 13.285028422242021 14.025055495018128
Mo 15.184723433751628 9.786568153467053 14.479885775287427
Mo 12.427174367571627 13.333043547239136 15.375614535347234
Mo 12.90639986262811 9.356918507785116 15.315310970965415
Mo 11.15046584237401 11.1082032022532 14.864468057784899
Mo 13.373600833917868 11.874789932052147 16.29606181940456
