54
Energy = -504.94497593 eV
Mo 13.883766368681066 8.95739229638329 13.141239953711773
Mo 14.531429436460607 11.654038358803811 11.621940856166372
Mo 12.204982742079908 8.560988197791458 15.57140030896196
Mo 15.991960591223759 11.026993074243451 9.21516037973774
Mo 13.375680351770411 10.824680915690495 14.044899503930441
Mo 14.582512491828238 9.38796350952203 10.536040853960086
Mo 15.478106475795112 13.12534259716053 9.95972645187268
Mo 13.82134466273533 14.690369406662047 11.86505765317824
Mo 12.016240017391894 7.086630887782854 14.313620224562005
Mo 13.874031053969514 7.054885265094431 9.257325849056878
Mo 12.410494568009618 7.727482040906246 11.512374157775188
Mo 14.409481448577049 8.526538580514485 7.948944544204515
Mo 10.850297839670406 10.953654215116906 15.116332996431808
Mo 13.579881768669482 11.237923536373193 8.701107917234918
Mo 10.992455665825947 13.727551287703914 15.088065869266082
Mo 9.433157891202818 8.419696087252747 15.040531767898141
Mo 13.900490514736077 13.92021627854954 7.83408821014026
Mo 12.146486013144514 10.775280488184665 11.254983688849423
Mo 11.364444690456734 14.941998006351394 12.165403699943479
Mo 11.075361060846145 9.314985830955425 13.090798814353104
Mo 14.512579423949633 12.017593521684487 6.617387335513027
Mo 12.95694864128846 15.865034502684722 9.882775961650538
Mo 12.339870400026296 12.884010880484642 13.038028076164435
Mo 12.72991517956883 13.312562777040815 10.01914076158894
Mo 11.978549119296668 9.03150792514121 9.257976957102679
Mo 11.108724120487716 6.4899784696227485 8.754836432334223
Mo 11.921793491314094 7.095047698716464 7.12263635458287
Mo 9.698817776396725 8.854831166076002 7.980895490938633
Mo 12.174813475888767 9.770709029334258 6.729409314140248
Mo 9.217962922840767 13.042940860175525 15.84470095277243
Mo 9.338971614572651 6.987743333302953 13.256697751770302
Mo 9.745370053041494 12.063604303513028 13.149472319380013
Mo 9.785379220934846 7.7230855184111356 10.949225219656595
Mo 10.276156503498198 12.925254095588606 10.73377439718175
Mo 8.795376312149761 14.870402387705935 13.732733166654327
Mo 8.414451466168694 9.68167142635145 12.78470839317592
Mo 6.481050298118798 8.528628188780159 14.398399540870406
Mo 12.177634036642077 12.200753280155329 6.3350767335244225
Mo 10.758755675670319 11.559037606117311 8.509424182733794
Mo 9.65542102962462 10.219513933298044 10.54507116152498
Mo 10.658933602899115 15.472728475417782 9.771147403938478
Mo 8.055834212512064 10.743948486472322 15.082258814918209
Mo 11.190810907613248 14.131998673739487 7.8918658555640135
Mo 7.1438082675030365 7.805745600988992 11.96885038035028
Mo 7.867162783165073 8.156035696159035 9.275555563906376
Mo 7.321178051798905 12.518564822873193 13.585326559703644
Mo 9.718090892488135 10.89472816357799 5.898662673046032
Mo 8.398211323705505 14.701808576413988 11.90641583714613
Mo 7.684158814136006 12.103725179927574 11.086994168003596
Mo 8.63344715665656 13.448700153844243 8.971573860077934
Mo 5.798844431825324 10.073799624351846 13.328763325180411
Mo 9.251826307336112 12.74650573340314 6.316867923904437
Mo 8.25757751573299 11.024662101743399 8.346860076442185
Mo 6.78628112899245 9.890807024416533 10.483816252832106
