53
Energy = -493.36209852 eV
Mo 9.399369301605818 7.326351553461564 5.564754557143378
Mo 11.022860825631636 9.809157360050474 6.110884817533648
Mo 13.381844456167446 11.38828472454865 5.947470233172133
Mo 10.76882456703451 12.741469939313424 6.37623464943014
Mo 7.765314038486155 13.29867256086616 6.5204371307319935
Mo 11.53924290193493 7.3373952952981005 6.525576524338887
Mo 7.067858717495669 6.894165763384938 7.26325290330469
Mo 13.669766491396613 9.611857058989608 6.537506403919109
Mo 6.278089184349673 11.03822851920874 7.737714147155828
Mo 9.170346037710114 8.692278275182051 7.462948635597226
Mo 9.002486079817055 5.759176282207171 7.40172843239437
Mo 12.2636459628967 13.578031922265163 7.60277396465686
Mo 9.211860411842592 14.193977230476106 7.906786476762708
Mo 11.95428279009938 10.988012015040418 8.301451529460543
Mo 8.784513876741105 11.320724246131409 7.711324645502996
Mo 13.898036690511757 7.22232124205359 8.244907204413913
Mo 14.500524671486547 11.81626033790813 8.91236643455759
Mo 4.940561491018614 7.662702015500574 9.077177541597958
Mo 6.547840865378098 13.185492254764121 8.702001571395117
Mo 11.521821282960662 8.481368279349805 8.709944467215038
Mo 11.339698741806327 5.908680103948672 9.145392057837087
Mo 6.93355731704087 9.050772616914449 9.13711794915774
Mo 6.423245200081591 6.1939138402642095 9.519372862038269
Mo 14.146027802174796 9.205871426782956 9.419234337025044
Mo 11.37150412916719 14.9760773223956 9.801282104827802
Mo 10.258303922385693 12.485419958031356 9.464841889097361
Mo 8.999326757412465 7.132798993381854 9.602131148842304
Mo 8.901914331163496 4.782812521239679 10.474548700498925
Mo 5.072831070703088 11.131336864565874 10.178130887894412
Mo 12.439738148573868 10.695128455992416 10.781466756379793
Mo 12.746464762847753 13.493698129496929 10.377431952635412
Mo 7.792153541148036 11.39434587315665 10.241781291222535
Mo 8.393110568403952 13.889083190489323 10.666275910638094
Mo 13.156235552211227 6.790569875369964 10.40344640222943
Mo 14.775416045876504 11.520182114522509 10.91969380674577
Mo 5.730364712922132 8.156408142097675 11.653724998294187
Mo 5.5407248143685335 12.839602659614178 11.224060004051013
Mo 10.946823030563566 8.301600494613432 11.25746920463922
Mo 10.559767308870294 5.7467939699911 11.615670112684692
Mo 8.307152626326175 8.941975189357542 11.474314316562669
Mo 7.787667861810762 6.405215156897408 12.146294844554246
Mo 9.981806235591893 11.055487908836312 11.746957431252644
Mo 10.495753516173743 13.638884207527669 11.933624556405928
Mo 13.553981330238964 8.726102249400348 12.480028873115053
Mo 6.419516543084739 10.49998365765629 12.437478676480362
Mo 12.291669155348153 12.095762351470963 13.208720153407612
Mo 8.140082697487612 12.475611247315726 12.747139379239808
Mo 12.621293795324963 7.139782751298946 13.181216380867836
Mo 9.562526313184442 7.631095546087533 13.375596296870341
Mo 6.638779183749066 8.040640764991874 13.725149790294827
Mo 11.291400172475145 9.634167764772481 13.5315213156128
Mo 8.63883153954017 10.074033319786512 13.763761726289502
Mo 10.648297632386287 12.195291460739098 14.342938617031612
