54
Energy = -502.05768815 eV
Mo 14.412105138356017 10.131010860211614 15.795328208091037
Mo 11.481313921869658 13.480085691550785 8.182409532786883
Mo 7.885324351059558 15.408802980191473 13.828289728788679
Mo 15.827811823519548 13.391013610297387 12.860194666330457
Mo 13.261091072820689 16.531167281862476 11.02585771571147
Mo 10.041951774752144 11.664014516542169 8.477219375170813
Mo 15.251869017353737 13.183563206828238 9.878000132829008
Mo 12.153457505988724 9.154565636470291 14.288156561662516
Mo 12.96035001482571 9.591095493165492 11.594700493494008
Mo 14.861294010404915 11.26538785879139 11.707885727446623
Mo 11.83403225980901 11.17913508983917 6.629647285500585
Mo 16.121908033850247 8.674010182971413 11.3076610734506
Mo 15.715857097412268 6.9969576205251 12.084001466332396
Mo 8.313047699538544 12.975715876351645 12.617055029224893
Mo 11.859132157722504 13.334567127841021 14.870225420138082
Mo 12.522167528304996 16.000570362271375 13.743557626804586
Mo 14.428974621836337 14.164082644035224 14.629861748332969
Mo 12.362385929419071 18.16693992367811 12.580141647785318
Mo 13.691908471717902 11.632112954218194 13.896652821375767
Mo 8.607329105044617 8.623091781515674 9.896037197127773
Mo 11.295400650070986 7.5828645644458 10.215094690532997
Mo 10.568635381816472 14.629058983442649 13.028340427601224
Mo 10.672237889716426 15.350600654456237 15.83994933365425
Mo 11.33395591653029 15.181528655253267 10.370866108253725
Mo 12.524550434154879 15.598153136703397 16.334391216569507
Mo 10.262100507444485 8.555692799615018 12.41264949149819
Mo 13.933809831383527 14.536639682547833 9.216976999196223
Mo 13.637084836222158 12.136595922133955 7.452298019329962
Mo 13.331756353424959 5.810406543039443 10.984468965342629
Mo 7.489065883193992 9.330085685003247 13.678452088013884
Mo 9.766286192477953 8.54183700876019 8.342209929728584
Mo 11.86366350304103 10.819259770887427 15.840100680531677
Mo 10.711106225901432 10.184445831049441 10.395247670742275
Mo 10.952984437537824 11.457635525697386 12.964894326383584
Mo 9.572182462907085 10.091918909535545 14.687882062857135
Mo 13.882369086758219 7.843516393970205 10.01985599014403
Mo 8.629868407198416 15.291104279769387 10.83449344770156
Mo 10.615625515166617 17.12944679068629 11.999468692684657
Mo 14.636880486809806 8.952022628715028 13.648296697224346
Mo 15.937825984352235 12.08803779685779 15.502658954383612
Mo 12.591755643759962 12.186444301306537 10.10380355782562
Mo 8.542015187471282 10.614761529530854 11.94939904618811
Mo 14.616140723264511 10.403157074064996 9.282762075424086
Mo 15.176948471484033 16.192925843597127 12.961485038983172
Mo 8.745529358929096 14.24558347383612 9.225354630195932
Mo 12.444582459431812 9.77677289153094 8.466270207708739
Mo 9.408939950081153 12.572296581043593 14.916938414745575
Mo 13.288215338227348 13.939635070419811 12.05263607908311
Mo 12.721198554840116 7.183090344672647 12.583053027508207
Mo 7.126800902649884 11.427031299243358 14.227218944575203
Mo 16.514859813492972 10.886685640427933 13.932626004192063
Mo 6.472974543986965 15.091578106081972 12.726130204077094
Mo 10.258070104331942 12.888611070542526 10.871479796456514
Mo 15.883049571162234 15.551454969866318 11.272474260940214
