50
Energy = -466.75917644 eV
Mo 14.960951351935536 7.341865954259777 10.205591346702176
Mo 13.32855561968952 5.81051348295861 11.656371491532987
Mo 14.481079974341975 8.370760850976376 12.486122568770991
Mo 15.983288052065605 9.924352710987664 11.163310352333253
Mo 12.625148359823228 6.8087156425222375 8.530368082126111
Mo 14.809123582439161 10.51685291901238 13.769443873139815
Mo 14.604429776627889 9.338375804359563 9.017271213925152
Mo 12.178029383342215 6.77725950495363 12.913505700685672
Mo 12.628119542916554 8.326171545102984 10.599088525943818
Mo 10.927816257724873 6.248116385733846 10.180459872056712
Mo 12.042766031019141 9.711595889626242 13.074232976702936
Mo 15.903420261996445 11.9607476865214 12.347012865417579
Mo 15.30689500636162 12.083432206595637 9.37110548635484
Mo 13.599460401851283 10.787646234984397 11.138804636017545
Mo 12.320522150887886 9.011706015551471 7.909020726111895
Mo 8.323594338837115 7.949939294239606 13.388310513077109
Mo 10.130734447372427 8.077235630578365 8.83935146498433
Mo 10.031586440713292 8.980360425249858 14.547105181651485
Mo 10.05265280223875 8.171799547011625 11.744815279694967
Mo 13.489834052210565 12.614550059079074 13.376475402316686
Mo 13.009298498636383 11.520413718073176 8.460201883292456
Mo 11.2317311947508 11.562858380980412 14.629197403778992
Mo 11.07118858565796 10.435032651361276 10.264718306614562
Mo 13.995106684017392 13.378913009529327 10.678592546959514
Mo 8.110852715752932 7.523432707851597 10.337119760018712
Mo 9.228498414172584 10.57853225730432 12.693826308972424
Mo 13.507451456663135 14.156845304466653 7.787589578579614
Mo 11.641789192729561 13.916398983237771 14.601093106323383
Mo 11.298009699783963 12.37036360060649 12.141810181502546
Mo 8.543925476116007 11.540987541039081 15.241760049926858
Mo 10.002745844261817 11.177696296609328 8.061793993170086
Mo 7.230151126015093 10.239682390598968 14.724015741724672
Mo 7.5598781821078695 8.992742670865656 7.832907482631851
Mo 12.073397843482386 14.72313572864619 12.239910226102456
Mo 11.990767426769025 13.4760207622936 6.84677608800746
Mo 8.42861410296115 9.959306286650186 10.149194445756676
Mo 6.840224699341436 9.602413257068143 11.98354739662926
Mo 11.521033290648127 13.240316399796795 9.625483039900475
Mo 6.073501648290501 9.005069677361353 9.045729777680732
Mo 12.380786428337863 15.882174567452381 9.810049522049887
Mo 9.39812611511881 13.519749600755198 13.24730263764414
Mo 7.231542025764069 12.203040028262667 12.792268884308738
Mo 8.996961798984751 12.536223041715234 10.561834476552255
Mo 9.43247928010864 13.354469994535217 7.908419523985834
Mo 7.099932810384486 11.885646935989202 8.497052833886674
Mo 10.735374576151766 15.691256313436115 8.653480192461869
Mo 6.240411957809938 11.774190464157755 10.262786703842462
Mo 9.90701392358847 14.962547627966353 10.990074254095331
Mo 7.121277358392383 14.471802115311199 11.378856477141253
Mo 7.672192425615111 14.70605241989349 9.514500695444543
