53
Energy = -494.58689893 eV
Mo 12.572018068604747 9.611540567253241 6.389887937447214
Mo 12.255961031767676 13.413015643853544 6.334782267649769
Mo 13.934120314598422 12.319376651427868 6.387635992354744
Mo 11.153643832080048 10.830479625025974 5.731683107105519
Mo 9.984972369080369 9.680829461228676 7.758141128877914
Mo 9.473287336737258 12.399165361503343 7.959600467542176
Mo 14.39974882216829 10.643917655025616 8.70467460168402
Mo 12.044183555500739 8.752013745705383 8.855821889009906
Mo 15.804462357118167 12.287696098259548 9.714647031802558
Mo 12.057701139892245 11.519547488883585 8.295221297238239
Mo 13.870895136531624 13.45038530088771 8.646997849129912
Mo 11.456665639202896 14.57420694743646 8.645393780630608
Mo 8.108162770159964 8.753769892829158 9.516221757358812
Mo 7.770552398577593 11.476782311316386 8.734716946692705
Mo 12.558878361599696 7.319260253198146 11.391354524069849
Mo 9.954351419780853 10.708922171687231 10.12512894971402
Mo 14.22396391706411 8.266122034405226 10.243534478338404
Mo 14.949863659477227 10.633038334072577 11.456095382778221
Mo 9.116661227602087 13.394032505819602 10.396442832742354
Mo 16.925844926477247 12.476729738468476 12.584849113259846
Mo 10.096072730567649 8.007170842388861 10.36169799973699
Mo 13.098579331736651 15.472365841443503 10.443304112168317
Mo 12.535784114462466 10.361247765108688 10.853927917053449
Mo 11.663346364953044 12.94224706098707 10.428702488294398
Mo 14.126411914012147 13.263658511791736 11.499238911661072
Mo 10.33794524438641 15.664527385844567 10.84725180931653
Mo 10.012314761188652 6.780822706517334 12.977883172893028
Mo 13.70108186915901 8.81638434475994 12.96489875039373
Mo 7.354516482614759 6.9694087869557135 11.677701726818723
Mo 17.39099200199382 12.078751935851175 14.294281626570287
Mo 8.271660128631813 9.586163559227977 12.002484634126915
Mo 11.01164790270046 9.380371464108281 12.703156243701963
Mo 14.723563947252392 13.321297404091723 14.032368252220598
Mo 11.41550166588034 14.250115672401208 12.66033091080791
Mo 12.729264648749975 11.684412657212487 13.206941504204018
Mo 15.047414965986045 10.723361068037736 14.220846632288021
Mo 8.505697337424364 13.959936550339078 12.699892942894301
Mo 7.357762166339294 11.743155435019627 11.434576754391276
Mo 13.652445645042869 15.394134750587204 13.195816500033652
Mo 9.64090995480044 16.35621409333692 13.605603864537565
Mo 12.470313662387802 9.54911522220475 15.096744733268661
Mo 9.961466194623474 11.789201793862468 12.600835407838938
Mo 12.122801434949707 16.889484750307542 12.017576580388303
Mo 12.44196513677156 13.527041697093244 15.017224459723625
Mo 11.372635229468742 7.135506443689759 14.233118151545701
Mo 7.266040963522806 7.406842909891191 13.44827924556929
Mo 6.386365434087564 10.229349875742137 13.828458074908767
Mo 11.17713253960485 16.20639438773962 14.675341890648662
Mo 13.586040350240197 11.407417728350842 15.986400606720084
Mo 9.719425504388328 13.686048266789552 14.727212687994294
Mo 9.331757235110029 9.339599211779376 14.459718070916217
Mo 10.774317202676299 11.37988513586794 15.10296707947816
Mo 7.637463978740847 11.566992574535975 14.284588242300954
