51
Energy = -475.50486124 eV
Mo 7.697200897551536 15.003794534198626 9.656687034507454
Mo 7.9312051060645175 13.212754724347077 13.23268384343166
Mo 10.572461508937778 7.325698844404659 14.460080433002503
Mo 9.583258853822365 7.317442392800838 9.9415995070745
Mo 10.407554031246683 15.524091670812323 10.57573870418469
Mo 13.932797553612422 12.871280747503462 11.21103164978581
Mo 14.370936367458045 10.04649234451332 12.277795116952118
Mo 9.377528988651296 10.19098219247489 9.670046739193284
Mo 13.741536406309535 12.750843520823087 8.032733016758165
Mo 11.810146542041426 11.261586890134916 11.212553570948293
Mo 11.950442835169445 11.563129767260103 15.804722220723923
Mo 9.907652626150448 12.823750540543084 6.507309909253068
Mo 7.920885217306106 8.268280925244461 13.541351579598391
Mo 12.18469276639523 12.22845622574896 5.735151111598424
Mo 12.972772949851239 8.283449376390125 11.19305095010183
Mo 11.913410218003685 6.513192085889917 9.00976627609372
Mo 13.956657648657798 10.675903693124885 9.953419665737936
Mo 10.368522833476359 11.873669055692588 13.365706611464333
Mo 9.60891252212771 13.094746542972254 10.839664764265722
Mo 8.183193763565361 12.49129180794379 8.560068041110029
Mo 10.708967214709512 9.956194155252568 6.4709351922532585
Mo 7.407066944645774 8.715541708526144 8.304536250180723
Mo 12.636546174473335 7.191835789497321 13.621056132676143
Mo 11.693313394732552 9.106711001206467 9.166835708115256
Mo 9.174267718084677 12.425954043397226 15.562980251483108
Mo 13.266603036932077 5.829323154007885 10.710490127429399
Mo 14.20452893674582 6.3368255061539545 7.897623496417284
Mo 11.147540872630168 6.154013159294756 11.767995887011525
Mo 11.06928652808698 11.795879594295824 8.42581421328819
Mo 12.621778809538975 8.11237178058131 6.731277100926189
Mo 7.65358284979011 11.163692685133894 14.686331224161616
Mo 8.002843488454348 15.430111873215113 11.545671567188393
Mo 8.369459735610608 10.658170344692651 7.075437422202972
Mo 12.294907136213366 13.784634746911376 9.678917977457557
Mo 11.897099302059228 14.167900579301271 12.418052402586316
Mo 13.260346481444913 10.277958396616544 7.287079445275299
Mo 10.143378665357178 14.524574697595439 8.442839708399918
Mo 8.371859470243576 10.685346128839479 12.080919518493642
Mo 10.400790427242494 8.711408430079867 12.01934208969727
Mo 14.48287040240293 8.123579522726677 8.74217590759981
Mo 10.019023372812043 14.607923953389772 13.385707065642668
Mo 9.752151168437308 8.084445874452552 7.52269430751492
Mo 6.796695239673701 10.755572981262427 9.682384315317778
Mo 9.886374789112665 9.80301996186036 14.69675224564117
Mo 7.6460335127831325 8.390281778468355 10.852003308983187
Mo 6.924183135087797 12.6835211885863 11.078615606976355
Mo 11.879478741467585 13.450913866732149 15.312875393981267
Mo 13.244659442404847 12.05121121461746 13.421881804598236
Mo 12.434081399205853 14.199819580362647 6.796006905375031
Mo 8.609511841732408 6.581388378696287 12.72702142492069
Mo 12.259455929121701 9.569491839060168 13.757041050055584
