52
Energy = -484.57880585 eV
Mo 7.85169920768577 10.54492595961646 15.537631692167961
Mo 6.7197209105923426 10.565697002826187 11.351796446505462
Mo 7.680578762012599 12.38472793911482 10.12336803410374
Mo 6.941938093530747 9.502445917025591 14.313463761227988
Mo 7.101593512897386 9.562439219684634 9.287558687408524
Mo 7.504991723472598 13.369568290830598 12.624447206678571
Mo 9.393610867099277 13.102079606070308 14.559795627021261
Mo 8.941935993983106 15.069829837590586 12.780984141208688
Mo 8.857336148756515 11.318176315389502 7.732406998345454
Mo 8.71307243508582 14.695732620419284 10.291379979133922
Mo 9.888612303691868 17.217924983388684 11.227361512505901
Mo 10.751578998982012 10.687959734296747 15.014901146443105
Mo 8.350352862756104 8.601594431124756 11.814761689887652
Mo 8.847422453958583 11.054435497770555 13.053248715091799
Mo 9.385198421837998 10.480502515411576 10.270272009285556
Mo 9.461661770705467 8.34137420075886 14.329266322425307
Mo 9.50612008490725 9.20930145659266 7.635345174166515
Mo 10.116094714677976 12.84612670007888 11.756059695121067
Mo 11.589434821942485 14.267461373417078 13.271160161488279
Mo 11.229415029605022 17.00519698866743 12.470614049726139
Mo 10.246050385240897 13.086626572719457 9.054828637570498
Mo 11.108931919264537 9.778437821112801 12.455811551391896
Mo 11.56622512339954 12.964065458811001 15.569211478055585
Mo 11.4024231858963 15.125466277906893 10.404315422479836
Mo 8.667407468648657 7.7572146036765615 9.56818912741395
Mo 10.243672781725055 7.075332110997639 12.379491367941728
Mo 11.809973093660373 8.234510901713648 14.637963357820066
Mo 12.67614813644279 11.798495185291689 13.35814286351134
Mo 11.964032565482873 10.683734253482378 6.049234149765004
Mo 12.596668179209587 12.680901409353044 10.61292280502184
Mo 13.130929045537112 10.164396047253488 15.563534073740955
Mo 11.17778371261425 12.378501028540093 6.406927492755226
Mo 11.14696985782614 8.443120318709111 10.073934307652612
Mo 12.35951910026109 14.659448312437812 8.268586206159034
Mo 11.584559768546583 10.778546862747229 8.750009605627948
Mo 12.626852391100515 7.555770348573415 12.197653379594989
Mo 13.922505680956295 14.194828875794872 14.292972851061931
Mo 13.421767941333703 10.061876152420394 10.772793462805721
Mo 12.001239085853397 8.385808932078186 7.719484197992436
Mo 14.09507465509336 12.583064091951258 15.812629631943583
Mo 13.635019719160118 15.308455992159443 11.654266466834747
Mo 13.389618556039977 12.509811360999855 7.884269461299931
Mo 14.020156036327252 9.453989243137043 13.359041589049491
Mo 15.322192368240076 11.579863893898525 13.953140930952587
Mo 14.77273460885177 13.132443637812377 12.033696049062456
Mo 14.008856159633073 9.935484626668723 8.17142081452634
Mo 15.285634269886698 7.872130516014964 11.322288681813193
Mo 14.386723279231273 14.745795937178281 9.566072961846228
Mo 13.67449104661219 7.741306004948404 9.512166111610036
Mo 15.00837032886768 11.8946156720839 9.744697477579823
Mo 15.92101776983951 10.562122153508968 11.802079649426434
Mo 16.08941469441701 9.170264045120003 9.757358180499581
