53
Energy = -494.63033317 eV
Mo 12.31030474863636 6.842952449462627 12.369887282301038
Mo 10.735105376028084 7.0808259492585295 11.347184170776899
Mo 10.364372757255637 7.417461717885898 14.474239296172506
Mo 12.712352175859438 8.956750984435237 10.621832791976983
Mo 14.549070331798312 8.594139592345956 12.619529096488145
Mo 12.981047250110196 8.714051095332735 14.53825147731131
Mo 15.071839285266574 10.493262245234877 14.867337261811883
Mo 11.220448468824294 9.522936788735738 12.791905851465815
Mo 16.06030663799296 11.131345564167498 12.233188686657478
Mo 13.722092173666802 9.493057795575972 8.206403458117002
Mo 15.384539741561968 9.500504401394675 10.545320690368891
Mo 9.993948965460088 9.574803596248831 10.233574011450376
Mo 8.915202177685588 8.776186086978251 12.821852706640886
Mo 17.2675350453145 12.118675004398927 14.646165223399327
Mo 14.097355165046038 12.175197653356765 7.53394635689217
Mo 14.088310601106086 11.52217060890309 9.996969869892343
Mo 15.699150281460854 13.445452610788166 10.994855491745907
Mo 10.18179086203026 9.113109351656892 15.415906583479744
Mo 17.620598434974493 13.315444295342376 13.090267435670132
Mo 13.536524976290503 10.843839638123116 12.553815153506276
Mo 12.33273711588688 11.034633350588273 15.130309134938289
Mo 11.843097534702869 10.446047213275165 8.432157697163507
Mo 14.617518814619514 12.024342450014382 16.262786893324257
Mo 14.726948184675726 13.116258599125747 13.5673466604639
Mo 9.145353141645797 11.64025966589939 8.906131273625206
Mo 8.363805031754966 10.86475328956381 11.556180511153041
Mo 10.142074511197977 11.580122425628995 16.823334436072955
Mo 11.124145369233716 11.677142023335186 11.038946223524949
Mo 16.1738628336908 14.371773044768801 15.306020232441972
Mo 12.116446264551225 12.988881571957178 8.561027130140282
Mo 13.081061381792509 13.643190017187152 11.2443786321421
Mo 9.6669651710819 11.375263068146081 13.830144513981516
Mo 11.416755807954617 12.999960862671664 16.778054513978738
Mo 13.688529904050895 14.283777374542023 15.732514915364376
Mo 15.966216629733335 15.446171502073222 13.03151853108863
Mo 11.686922744195822 13.062310780692922 13.64064968327381
Mo 14.772098996981736 13.996404950903592 8.654080512636005
Mo 7.532643687504907 12.653427847650496 10.274048092532205
Mo 13.405769941736244 15.65211596769556 13.248499363138365
Mo 9.164329291691372 13.515164974120417 15.100753822039547
Mo 10.058301353323536 13.648664878739456 9.876049600893747
Mo 8.998210991565896 13.479579063353045 12.280815986229749
Mo 14.530653731769698 15.827584252279397 10.74974590488697
Mo 10.997425203950668 15.177551224668207 12.026103787975133
Mo 15.01276598823005 16.743669250725496 15.331282386452664
Mo 11.05623222177304 15.110805340764252 14.930946022218826
Mo 12.365463835239643 15.337314865362137 9.522990297487203
Mo 8.58315900359317 15.429255481962016 13.626529995317803
Mo 12.56343621993602 17.213554705202384 11.332845075204588
Mo 12.9786193446873 16.854330787299137 15.652047632402818
Mo 15.021297131709694 17.95192582898505 12.597635724453383
Mo 10.616812831469705 16.998117835571048 13.493860730788795
Mo 13.32821307781747 18.478274295839068 13.433090296673836
