52
Energy = -484.08419454 eV
Mo 6.637644809452713 11.842663801723344 6.379308261616152
Mo 10.387914166369992 10.388257392099858 6.796493423592684
Mo 8.113582089148904 6.974972980955847 6.760259136529227
Mo 12.788440368693788 9.822451079912762 6.474292491744933
Mo 9.429118455835253 12.683476591727675 5.979253204603293
Mo 11.289050921269522 5.489738227699884 6.756692688754265
Mo 12.03093418350649 12.388075475920502 6.731583448085275
Mo 7.730498034742168 9.370833117026026 7.315590838331384
Mo 8.591517413843357 11.970678045220154 8.303265129626816
Mo 9.636787643694058 9.701751443566788 9.322186283553625
Mo 10.226497493995467 14.022345706034635 7.78261012750307
Mo 9.156733518351553 5.413137529442532 8.653633213671489
Mo 12.20895523105551 9.219076184897315 8.882899291095685
Mo 14.818222574082805 8.599377625140514 8.068569297467114
Mo 10.264065663922416 7.695351122567043 7.481224855412789
Mo 7.142842357831145 13.790852747626921 6.780420113271606
Mo 13.754734434611406 11.292972833420215 8.260326302819932
Mo 13.448911396678708 7.327560504498739 7.307865225657896
Mo 11.26716081037225 11.888234465811502 9.088626981985996
Mo 5.9227501017674 7.473825694217287 8.158937275214601
Mo 5.435045155273289 9.951798942492616 8.253679236653072
Mo 11.72217323363766 5.426926466649305 8.75113608552159
Mo 8.012306545971635 7.613587931366629 9.482615113067752
Mo 12.96336278758607 14.167029046893763 8.881616733150995
Mo 5.973834037642547 12.481811346147303 8.920384189226342
Mo 8.066383234428882 14.134303409443586 9.518152430384331
Mo 7.135769460353189 10.345830100162742 10.049546244075213
Mo 13.554242827131304 7.161865978244701 10.115726307144165
Mo 5.537587800032177 8.28032802051127 10.464697866586828
Mo 6.812558207141156 5.5079409009461004 10.44463744380754
Mo 4.532483436483505 10.914589512917964 11.00010596941729
Mo 10.983473409015266 14.230182623459887 10.281342563609547
Mo 10.700133319564427 7.415123873119719 10.431159896686108
Mo 14.229559432635225 9.82641149419559 10.717628697486433
Mo 9.243523318492361 12.010738802791291 11.062685379205318
Mo 13.387042190719695 12.543332808606289 10.521595625888322
Mo 9.230605333043512 5.266099851305988 10.923524339198897
Mo 11.44612222718355 10.179804471315883 11.306820971129662
Mo 6.413732596161255 12.520756733313176 11.38632691129418
Mo 8.873740841643503 9.16428148961904 11.840162712109686
Mo 8.557356020347973 14.158055648654104 11.788180158734935
Mo 12.376994698159871 5.9340079951652385 11.558259566999286
Mo 7.165514929642536 6.970457837999973 12.056947017164067
Mo 5.889408946763932 9.844334937409029 12.45209309987816
Mo 12.548313786140346 8.236124680560295 12.588274550874706
Mo 11.462850765902916 12.55458001134394 12.140630060643934
Mo 13.703111483417043 10.549688979688018 12.675887906774781
Mo 10.024414056168306 6.871445496888086 13.052117035523692
Mo 7.928077037379594 11.203445318815637 13.02706334357643
Mo 10.692252540508358 10.101793032052159 13.787797848695597
Mo 8.685683610205585 8.568887956171086 14.090479251757504
Mo 11.42823234132711 8.071053011566454 14.706939132522024
