52
Energy = -484.35514297 eV
Mo 14.892039586944053 13.840982633496367 12.460753543877214
Mo 13.420398394881179 15.457065982297058 14.089678272694032
Mo 15.242719636761587 10.57245884431473 12.287987980490836
Mo 14.636945323494258 11.910399034025392 14.606393426517018
Mo 14.335092171465558 15.988922564601646 11.873387273571025
Mo 15.392083060560273 13.979038902082824 9.864201818441638
Mo 14.57954782312242 10.07361147510252 15.201030390623666
Mo 11.599632929499055 15.687994792324488 12.72855934589517
Mo 12.474895488188945 13.092305332282592 13.272946191949668
Mo 13.614812354660712 11.99242562514379 10.774393978317914
Mo 11.096241221129977 13.720014343604289 15.200978584490066
Mo 14.227164223657786 15.683285134830665 9.196434177692726
Mo 15.330349738976842 11.019174640197908 9.297515702570884
Mo 11.773970411921026 16.92258867514092 10.149507137636128
Mo 14.318631938424714 8.071173186231718 13.017676860761295
Mo 13.554006774534335 13.300558128766903 8.19694634198582
Mo 11.957250245716379 10.997331313115335 15.435979529002706
Mo 12.599486621223534 14.416716464873916 10.707741750124962
Mo 9.72583291521818 14.060400017207717 13.530435692339749
Mo 12.305903427682692 8.468521154791013 14.621011579171673
Mo 11.197291877976966 12.920584774148763 8.80495562816594
Mo 14.235754359875413 9.238410785415946 10.487089210234215
Mo 12.848628908391202 10.347075243201145 12.899886581622354
Mo 11.08167082977974 15.710970717729435 8.732997915376306
Mo 13.04138010005842 10.801878158725739 8.317896998514337
Mo 10.641854821554398 12.485184594519842 11.244818841102505
Mo 11.573189871105756 10.165480570006926 10.645959822780318
Mo 11.088541078434023 11.909174016019914 6.378991287657979
Mo 10.297944551527431 11.354807931853038 13.487670525732785
Mo 10.825291542902788 6.249140280444482 13.83579500621004
Mo 12.430310239229467 7.597035754703073 11.815252528887303
Mo 8.83531860758439 11.921839020937767 15.172611291476837
Mo 9.821668255460827 14.822512686479792 10.725737093299283
Mo 12.087374872354173 8.280107966690723 8.89215780682715
Mo 11.599003365218342 9.1537225083387 6.823998703626656
Mo 10.30955560504624 8.759406559204407 12.8728183195732
Mo 10.079885518089432 9.488392186983289 15.426239142350164
Mo 9.245659392897059 12.30982025334499 6.796401586608212
Mo 7.757244462924336 12.615658282343324 12.187955391876148
Mo 10.078158295335193 10.339721087716539 8.569001134073083
Mo 8.584396699945788 12.864085690775847 9.546684448311385
Mo 8.820080997393 10.353959793753258 11.04540251649843
Mo 8.1837991212154 7.737881995124216 14.110577435753191
Mo 7.811569293329303 10.207673063028219 13.593943615021445
Mo 9.914864429739618 7.888106943853564 10.213309339312541
Mo 9.88976538888914 5.979735798598886 12.224965641622862
Mo 8.650644977273497 9.247483700050628 6.631984837925063
Mo 9.419024460526188 7.7114489653205744 7.551881334370075
Mo 7.405347585308843 10.874713025150186 8.568044347569938
Mo 7.707043785274724 7.947304388404752 12.127558663872087
Mo 6.518656276782663 11.386363142058565 11.168187065596744
Mo 7.565390526870345 8.794667972215468 9.36190332130721
