55
Energy = -512.76192504 eV
Mo 12.580855826591414 12.92968110785181 8.570649304801117
Mo 9.879358765391558 12.001416852542341 8.334177014448919
Mo 13.805485618843768 11.686343871732333 10.799240192093153
Mo 10.532180150430023 14.644469186831383 9.423314526430682
Mo 16.70033010078609 14.76858360032803 9.730750201102412
Mo 15.063031978258824 9.8041766336643 10.036463728949625
Mo 11.558215269509052 10.782491296959446 10.251816844204656
Mo 15.762102926142353 13.355976155170065 11.43856717870328
Mo 16.562507500976654 11.272307533489718 10.012888705654056
Mo 13.568444017310778 14.359278789175574 9.573269246178107
Mo 11.43972463135798 13.245589354674479 11.071540962305479
Mo 8.658701303165552 13.286440240204149 10.706710035182667
Mo 14.92376057325593 16.112453778884134 11.14766924472532
Mo 8.9665119222018 10.851637948131735 9.450373007285831
Mo 12.128140316500993 11.111445424561909 12.918440743719701
Mo 9.684023221896464 11.703274059087297 12.1392234237715
Mo 16.366195612291346 10.66664404604958 12.424663456234555
Mo 18.176771453003383 13.136306665416564 12.097656919047036
Mo 13.427959394749896 18.020351733009488 10.847845982944126
Mo 11.8630267172591 16.18973133271283 11.136790109161367
Mo 14.313515362057037 12.27139695117221 13.620495198473613
Mo 17.613928863621123 15.507318274870821 11.692393732910476
Mo 13.345317265197778 14.467433832342504 12.506376201518378
Mo 15.930458280832283 14.980015503354274 13.66785997872066
Mo 9.64804784868515 14.745298402206503 12.353605275201742
Mo 9.976074440222302 17.382535494226655 12.607000757487864
Mo 14.330139034650175 9.570859667442281 12.699824625657927
Mo 11.737187381275445 18.583190883573817 12.621268924372345
Mo 13.77032859917091 17.14844032012978 13.437338969938857
Mo 11.484470989795366 16.13903488820686 14.10561375656928
Mo 12.462343490639642 9.329717729065333 14.85820514818187
Mo 16.074392643327176 17.559318053732017 12.770852451537014
Mo 11.387982458005874 13.405922134409243 14.000936255248362
Mo 15.199325783568343 10.281539473153654 15.123887585947152
Mo 18.473528452667168 14.999703619389068 14.456753863925847
Mo 8.574002987284922 13.306983944926642 14.115779437493261
Mo 17.05386153818696 12.431861715758659 14.09922071802272
Mo 10.076416201421775 11.087614779379653 14.989515178923309
Mo 14.689501892012077 7.828159443631897 15.101376838302226
Mo 13.83197518532194 14.776157198051651 15.210965093713225
Mo 13.016532785566755 17.291469878025193 16.169262710141805
Mo 15.769678169784864 16.925790862838518 15.285167882668755
Mo 11.741124503848095 14.7037578258559 16.553309385315888
Mo 15.556454753029657 12.939759338112053 16.077555184324307
Mo 12.845788163547361 11.878228440707545 15.805461246677954
Mo 18.526332709899396 13.799348058668434 15.940264851882658
Mo 9.289785379109837 14.857869403757459 15.288418282685797
Mo 14.04534379922622 8.385726756346221 16.873838852259826
Mo 11.419317071806383 9.644775619005028 16.714221926735323
Mo 16.22596439042469 15.128565664366644 16.653302940644675
Mo 13.837276270288585 16.308781083808594 17.623092773850527
Mo 13.628148819120655 13.448148757629484 17.676352909806393
Mo 10.236443686084419 12.571291792202413 16.545948306151963
Mo 14.827936569325152 10.877973736158806 17.717268692864558
Mo 12.887637869263934 10.981301801211075 18.39910417309285
