54
Energy = -505.4577574 eV
Mo 15.50566696725256 9.907803348606276 12.462505220425017
Mo 14.25166479701495 12.131089963607383 14.132315356423172
Mo 14.232170254359435 12.625521459748636 11.68600709681782
Mo 14.853714658862184 9.349930430975675 14.148536647484638
Mo 13.737531667678667 12.576358296689579 7.901289558149607
Mo 14.289145156978762 10.928317493619122 9.803654638366186
Mo 12.668499630667046 14.8257925375534 6.8358406797510085
Mo 13.242535052138946 14.13383207781213 13.927856761821777
Mo 14.77002445664883 8.088464853234463 10.012268015372946
Mo 13.82534909450264 14.134062142285181 9.6129174896041
Mo 13.817922763569385 9.628950915020939 7.502652850029039
Mo 12.890703094718447 10.117286099628425 12.272289492532293
Mo 11.711989778592514 12.980728523680728 15.361197701548296
Mo 12.36270608891059 10.520943240586282 15.015822960648105
Mo 13.249488503367637 7.796110253688109 12.366073675395715
Mo 11.969936690222056 16.33175423901019 9.165760489328058
Mo 13.930154600817346 6.921991708082396 8.644485342698456
Mo 12.013118715678846 11.891733190562606 10.27091273864546
Mo 11.641846131167405 13.242421881338815 6.128381054917446
Mo 11.67163028316786 10.979949848115465 7.883209097570494
Mo 12.367239974080915 7.8139886302512584 15.13263987401125
Mo 12.204693957422185 14.557522634066629 11.360428225763313
Mo 10.459385697153342 15.069203849020276 13.421490197341022
Mo 11.117209069371658 13.762275199815896 8.754843712939103
Mo 12.162791209885413 8.858465844579575 9.835799945745913
Mo 9.690371696815243 15.285710618445787 7.194704567108144
Mo 12.255405159521187 8.353779969042234 7.080262470181656
Mo 12.29823697209149 6.4149348983240575 10.557585392604665
Mo 11.493668383997141 12.235303981729238 13.016069620968937
Mo 9.73140892235747 13.329100905660962 11.302428169303667
Mo 9.169889688292301 11.698808163821429 8.871164157301688
Mo 10.263046642031437 15.987407581056022 10.081310973327136
Mo 10.65586461554073 6.64717811396841 8.687349795412585
Mo 10.586130839054583 9.139400237226413 13.188635648163917
Mo 9.850350498035969 8.84617124261564 8.319640759866259
Mo 9.579796986443037 10.553496183411402 6.229026379587974
Mo 9.325887930239812 13.760911928550781 14.211271389385121
Mo 10.103505131228639 10.256182408285524 10.888563427129217
Mo 9.80582739557742 11.029066429509406 15.326194555281152
Mo 10.818174437210109 6.363794117403514 13.036939658671585
Mo 10.757716953905602 8.348956860967252 15.890444731980814
Mo 9.036561830953787 13.433430786642882 6.7718155594645975
Mo 9.841659432685308 7.4771833342366305 10.832855777599077
Mo 8.388278534011755 13.986149147025348 9.446233293660256
Mo 8.825326169232628 11.288262426912494 12.9890824904876
Mo 7.82834472055241 9.124000529666635 9.826111703162749
Mo 7.80181763730751 10.433520812922042 7.146848622766744
Mo 7.174383802158616 13.273228584295252 12.110536809938951
Mo 9.022542530676786 6.870281227776436 13.565140956671208
Mo 6.9477652745576055 11.87727940374086 14.925870818790559
Mo 8.30777443883695 9.282871539699666 14.630782880562684
Mo 7.755129253026585 8.979922859526864 12.002900688099245
Mo 7.1859400945567 11.656023961196286 10.868956477886483
Mo 6.124304613889452 10.780371022070682 13.656611704888602
