5
Energy = -37.05505802 eV
Mo 13.65374899837062 9.849908946386677 12.199537767665621
Mo 15.090274062829545 9.037582005475668 12.589228775737649
Mo 7.791688153136771 13.994540070461353 9.75290771655683
Mo 9.137475753048202 13.20423771333143 10.409514711193797
Mo 11.13517458467173 11.364490157070584 11.554742321849998
