51
Energy = -474.79264831 eV
Mo 8.73787945237559 13.816614259395251 14.676555578559231
Mo 11.360266674234765 13.173884291581249 14.954698458802204
Mo 10.158802510418424 15.510521725385608 13.321503595706188
Mo 9.050242587438161 11.261841414310561 14.688180579149689
Mo 7.8870627027474685 13.328016226327023 12.851917236496284
Mo 13.623925958261653 12.919707760917555 15.416016730119306
Mo 12.511759271582775 14.932585203902523 13.336469989560714
Mo 11.526631092097158 10.89049976335306 16.198060385622266
Mo 11.23872865562467 16.438531436887697 11.503114209752274
Mo 9.630958782395068 14.7663249620744 10.736515365537228
Mo 10.512415030078762 12.93611447987171 12.403263214517825
Mo 9.846749974522455 9.083099970087936 15.731002721023623
Mo 6.982469890316314 9.513454112298385 13.645442942072595
Mo 8.12697396754577 12.660622525192936 10.151445295523999
Mo 14.53433803414808 15.618959030502905 11.362142926003669
Mo 13.267645315571947 12.290962018046331 13.105604789793425
Mo 15.088641990884259 14.050848332754263 12.381438097873975
Mo 12.383268034772792 14.175798402637309 10.73746359027137
Mo 13.660949043127195 10.430726094367566 15.3272823053455
Mo 9.43125388434675 8.591893193094043 13.418322995154401
Mo 11.266338451701637 10.457074434687605 13.633185705308973
Mo 12.847118477794604 16.763488597535662 9.415748695434154
Mo 8.685936936536335 10.924714151530768 12.105175651256578
Mo 12.256622604221254 8.387934108536278 14.846738825575287
Mo 10.930082547505368 15.157822349961483 8.717529731862188
Mo 13.79408330532747 15.335036330765949 8.414700207984593
Mo 6.964483010953621 8.622595846437573 11.992100359216423
Mo 8.446042617403425 9.78152776516427 9.842161983485882
Mo 15.375909755699295 8.263553654914707 14.059235494006941
Mo 15.599392050485944 11.160350065797829 13.499534663212518
Mo 11.120502356171048 9.522832558870997 10.969243495809527
Mo 6.928115385174952 11.429712607285374 8.164094261433412
Mo 11.621104516607936 7.419308491075351 12.65259506010646
Mo 13.503643304252096 9.597787524110322 12.609339648258807
Mo 10.443452651161671 11.886574550237043 9.708667835724412
Mo 9.348690173515818 13.144529165665851 7.8952917940294425
Mo 12.9688608765897 11.543619456445539 10.62064410331691
Mo 15.47691422599026 11.168637137934331 11.297567394228961
Mo 12.41186009620783 12.976874174429655 8.17509795802198
Mo 9.48451991193565 7.648018810158428 10.776520993427985
Mo 14.872523400010614 13.22754820689792 9.677009806258816
Mo 10.478852959585458 8.019532424835546 8.576351203868922
Mo 9.467723944198916 10.276587943394272 7.721166368307834
Mo 16.12923046741472 8.596798098483381 12.319501780570945
Mo 13.804932714780684 7.02361974971731 12.155021834038921
Mo 7.9497074156463645 11.685801944407768 6.370041094094143
Mo 12.378924485764736 7.258809451298333 10.04883539654121
Mo 12.122541329554723 9.896691742881913 8.51581717067817
Mo 11.188537263021074 11.71635409519241 6.6517554007191295
Mo 13.988034481409862 8.958047050417512 10.11622962299782
Mo 14.416635949093921 11.479622443488758 8.335313688921266
