52
Energy = -485.7855072 eV
Mo 15.327630193738441 10.365856947190663 8.933795569774178
Mo 13.656326448890132 9.032838928688626 7.6190845868894135
Mo 14.00201040656704 8.079626890147077 9.987936440327282
Mo 14.555936451937953 11.959031038884898 7.68629509087994
Mo 12.339534218352673 10.6726087855343 6.634849561286813
Mo 15.042966493128267 12.913637306669585 12.860787096428785
Mo 14.492063383893647 10.429810389608733 11.652830950914218
Mo 12.19751171388658 6.682613502960929 8.070609018769291
Mo 14.132218820417776 7.467717383714406 12.332290678826036
Mo 14.20861876932918 12.749139849052138 10.13452527499875
Mo 14.845287685099745 11.61164478858891 14.254928555476216
Mo 12.633363068486211 10.867714120380361 9.498131852475757
Mo 10.81118940416958 8.821090699169108 6.042305046545009
Mo 11.96537715182261 6.475262996285158 10.121589044773325
Mo 12.65373550191377 13.467099263898124 14.366519656501612
Mo 9.778140559342859 10.689312970564448 5.642433867055604
Mo 12.29095544019094 13.223861735964862 7.963302291230212
Mo 9.015148775045072 13.417263599690473 6.899336080728373
Mo 13.077514462329548 14.563725027274364 11.703536258192884
Mo 10.275308681553492 11.578346723360411 8.084387244201375
Mo 12.309897368798701 11.701939830679105 12.528622273581568
Mo 12.17064266709854 9.002477534491879 11.379372559279979
Mo 13.578728081473596 9.24101568334687 13.693639529829763
Mo 13.326442223842623 14.94752600125465 9.301484929616763
Mo 10.973071706740976 8.801233322518035 8.795836966241943
Mo 11.400307164895109 7.294980245926556 13.182603335784867
Mo 11.798879096395696 8.785002792929594 15.684527431311041
Mo 9.279434780208279 6.984513595211278 8.829387632652878
Mo 9.792835009697978 7.721403685882643 11.515605131919633
Mo 10.517959629999842 15.1295284517089 8.91456481297546
Mo 10.585957576619016 9.796463457268004 13.403973128118912
Mo 11.32562811902372 13.269162176920824 10.467475127128834
Mo 10.011184074564296 10.453268621037786 10.660092979117632
Mo 11.012181041606834 16.07106137065539 10.975563224260526
Mo 8.714920635042724 9.55405472339518 7.55939519818109
Mo 7.52678527896335 12.024043753567973 7.249672473529297
Mo 8.885797339083581 7.887639661959346 14.406235829227057
Mo 12.273044427449271 10.931705681758274 15.358549258252943
Mo 10.891996038594298 14.185781958794642 13.250089631440272
Mo 8.702313835518181 13.34544033487561 9.484304716026326
Mo 10.119592716737618 12.227580397734734 14.791541860792169
Mo 8.035325539203837 9.618765839344576 12.457311258508726
Mo 9.632891266669441 9.895695579568102 15.805595046239516
Mo 7.967274951842245 8.423478300936376 9.759372301897201
Mo 9.137558770946436 12.197941055628066 12.196874383207632
Mo 9.08029942133191 14.919922637862857 11.440543649184157
Mo 7.731787459266346 11.05880925609507 9.767348615590455
Mo 7.173043366716365 8.9726976994228 14.757081511522898
Mo 6.643066734535711 13.377903146350238 11.314283047463022
Mo 7.682766920368817 11.600151378525283 14.501320567748751
Mo 7.892626654158633 13.686681682525561 13.788390590701226
Mo 6.276460405516655 11.619382184115317 12.098038734231713
