50
Energy = -465.91480776 eV
Mo 10.919238948028461 6.011661081886299 10.781367109654399
Mo 8.21346344894957 7.818709407720179 9.139351842703002
Mo 12.789969168467552 7.622939098135987 9.433837879141167
Mo 12.798883151565951 9.9649683944291 8.086023507277456
Mo 7.875765049297122 9.257495008591711 7.5631655788642185
Mo 11.133445847948389 6.305788888354196 12.744631306768174
Mo 7.981867807333854 8.393514800252438 12.233059037794371
Mo 9.883580330119436 13.315012900360522 6.721482979272122
Mo 10.560144562232166 11.139793161057774 9.749328726096255
Mo 11.982477171938578 12.254951324547509 7.3332092692197515
Mo 10.286661660266471 13.792141189937723 9.048056994705625
Mo 16.503262668381367 13.217144859431118 11.732314115124296
Mo 13.377672468531795 7.216728767450429 11.728853198222243
Mo 8.182190790773125 10.0579634746359 10.200049833374395
Mo 15.104571133102258 8.873892403962154 12.202697653084469
Mo 15.107673473007617 8.808293098255477 9.864233625127762
Mo 12.37812279364044 8.889922887388087 13.313730919950125
Mo 10.389840903936815 8.419393200216497 11.23302912177692
Mo 7.573973741814031 10.602518418636992 12.899284011208067
Mo 12.63878920048507 9.733771078609147 10.809300666060087
Mo 10.426236983007643 8.71627276775211 8.629047268489826
Mo 14.260187593027725 10.617549600770268 14.447409401308287
Mo 11.43616619959227 10.247417019741016 15.05894291176613
Mo 14.769722593672995 11.038894398906471 8.848303557751718
Mo 8.736034557998812 11.098156522388871 15.527226371111995
Mo 9.558885185824463 8.728958179729279 13.96350114862076
Mo 10.002826717001904 11.72103788355643 16.85146091911286
Mo 12.79599624746257 12.487470621230765 9.80675900130433
Mo 12.749274000473083 11.700341249553999 12.828718603718896
Mo 13.102745468192586 12.068449518337713 15.739371134688557
Mo 8.358641568833752 11.87515953129318 8.360256129527862
Mo 9.982604442872566 10.730393373509152 12.493338578337553
Mo 14.897207132929163 13.10640832672186 13.694079211552484
Mo 10.678957776088664 12.644532095410074 14.358374410054479
Mo 14.958878207751193 11.264531138672005 11.364935820526965
Mo 10.001711023380743 10.542562413804626 7.090880705267059
Mo 10.956346118502282 13.423635454061682 11.760969706836393
Mo 8.446199866846102 13.171118983076882 13.195896591783388
Mo 8.860951462713786 14.206822798550865 15.787527621240175
Mo 15.31585100269424 13.731231222431441 9.962091415383858
Mo 8.372493439989272 12.674531202673853 10.929069086930976
Mo 13.840415564071588 14.134259918496912 11.790310520721519
Mo 10.713746861487927 14.39388125951008 16.420851542155727
Mo 12.584185429802695 14.262997550754406 14.240173467992824
Mo 11.971551600383895 15.046038895964719 6.977172404779074
Mo 9.360254908714213 15.053828159310747 11.098829467615877
Mo 10.263964976725955 15.479750277985286 13.708271730125386
Mo 13.706971563729276 14.160234252233549 7.506820139492962
Mo 11.641658857137427 15.979639331424902 12.211294954063979
Mo 12.467011141583974 14.996178857534353 9.66623164522937
