50
Energy = -466.95040697 eV
Mo 7.751757971973185 10.766604750609247 5.521602360349818
Mo 10.305063732407035 5.464183989622366 12.285269541935447
Mo 7.719477486053774 12.10054691100791 8.234718595619333
Mo 14.399416433269394 12.70376047644207 7.887997416014138
Mo 9.596748771827654 14.53619956494844 8.190956530433478
Mo 13.44104504260047 8.74829598375679 13.376052237123144
Mo 9.415775311229563 10.022048824953641 7.863548945966921
Mo 13.61390690529051 7.705613992995245 9.226135215835773
Mo 6.728717151255463 12.037775709995937 12.164372416091984
Mo 10.761631775938396 6.758412108777753 9.512094138450955
Mo 13.098280723308969 14.230787260857921 11.56155132818073
Mo 12.733215760193533 10.735961380575157 14.922578926954538
Mo 10.871169018639359 12.10127108936653 14.258350865635856
Mo 9.801522139776013 8.161949682065234 11.990990474521224
Mo 6.913039623504291 9.299932755997398 7.798945836067896
Mo 12.098351160972177 11.256682643937873 7.490777191177915
Mo 13.036186991300871 11.587337471384586 10.111517532673941
Mo 8.31524441901532 8.84170828475776 5.509794297766814
Mo 11.21305482652284 6.470369476245781 13.726749264792343
Mo 6.689518076002612 10.671569645143105 9.888650046408895
Mo 12.250248954602192 7.407889344920404 11.56019875719919
Mo 15.0026206400964 13.039989136069526 9.67307539101194
Mo 6.715842618466891 6.797121987223004 8.442464832466689
Mo 7.292480238492649 9.246676077331706 12.237242216387848
Mo 10.423144471593508 12.357736227033584 9.07445423107669
Mo 13.536077947495041 11.704654782559098 12.758968226337696
Mo 12.407814193576499 14.229096163093413 9.305502180719461
Mo 12.47856584677769 13.963286704704043 14.126238200321477
Mo 6.0276464771319045 7.768027359112743 10.122225767434045
Mo 11.672264189862144 13.615020844253989 6.837575407456287
Mo 9.091545637904801 10.913474761240844 10.887760605927395
Mo 11.379507731188463 9.409789574336127 9.736851423247494
Mo 13.9488932285561 9.420841264516042 8.371685678846138
Mo 10.851255319740535 14.893351805544354 13.39045092433114
Mo 11.546106114740326 8.345409020625846 7.350257572962001
Mo 8.149682153619725 13.290557977264289 10.303511441763366
Mo 10.885981700103835 9.124611142173643 14.566628574425708
Mo 9.716301536918968 12.407889903877603 6.33981910138008
Mo 8.873997066635818 10.467168373143112 13.545880931885707
Mo 10.57937394766204 10.089106501893278 5.6891717920260385
Mo 9.378673692847544 7.248129892900696 7.537388314188154
Mo 8.55041498993999 6.059268221375513 10.335926079523723
Mo 8.549397206678528 12.912939646017978 12.99878175014935
Mo 10.29804932923064 15.046687431053174 10.27510771811427
Mo 8.418925330817448 7.657628664895134 14.29716206813711
Mo 7.567068337606494 6.657139352979037 12.866822986987687
Mo 8.530255353285504 8.46018720245091 9.773532410268285
Mo 11.098963191420802 12.853072852266141 11.676776622822134
Mo 14.076624470218661 9.538183793322288 11.323324733304043
Mo 11.477384358451166 10.152281585124543 12.350790494041503
