5
Energy = -37.35432932 eV
Mo 6.872966142334616 11.051608861118911 9.082550666724513
Mo 8.554481042978393 10.675334952430104 9.238294648120634
Mo 10.729278320009016 8.327008126154718 9.056849988588999
Mo 12.423699632327383 8.477702587364286 9.05620771525225
Mo 7.9836010793272605 7.9880754815589565 10.09488318628201
