54
Energy = -501.82259113 eV
Mo 7.448582888415601 13.617419015142453 11.219121434116774
Mo 12.877246922461124 11.1049299716468 13.399639312379023
Mo 16.214259653345724 11.427751702231097 15.824821250290094
Mo 12.659108182732744 8.72870122474558 13.061390944684357
Mo 11.503521372170647 13.3143500573263 17.50128391517251
Mo 8.910027485466047 10.720768833660202 14.70981735839504
Mo 14.409143457024843 16.52128928795937 15.91185638046075
Mo 14.231418132565832 11.88986088700392 9.725318161114899
Mo 11.756848669440767 11.254155240993125 10.767058190041611
Mo 14.186868471321823 15.654569853241805 13.428839210973496
Mo 12.477415186003508 17.47843084098841 12.08966003028041
Mo 9.299637549419543 11.58629499979832 10.413338938919724
Mo 8.982842566190278 14.839850210501897 13.44939045677509
Mo 13.475160266766926 15.92524527389839 10.706402738622192
Mo 11.402914424012426 11.654681905430003 8.323379499251137
Mo 11.417756361743107 15.396723694157451 12.957462840645336
Mo 15.426385792461181 11.452011418846556 11.967911950330386
Mo 7.752068483319894 12.475513204402704 12.683597811090255
Mo 10.744894452119429 16.312361736959662 9.92516806218603
Mo 10.158812533051893 13.744903367119855 11.091251821808637
Mo 14.683923430523512 14.188222673624228 9.31212289842538
Mo 15.164754817719546 14.233812486770304 15.947336158524385
Mo 9.49708259809265 13.747671597099046 8.551826101875307
Mo 12.608349879406946 14.82858908902351 17.382225867799143
Mo 10.48445417027317 15.339752320195426 15.624603185158254
Mo 13.862302466772002 9.629525797922565 11.15928788423032
Mo 13.080966376180411 13.460442056809342 11.734027531507977
Mo 14.321888137530655 18.519297136580548 13.80917877832378
Mo 15.914306801153552 14.20223497268599 11.584246894436172
Mo 9.013821553094406 11.796808503616136 7.94470313311345
Mo 17.016354592312343 12.142667030799688 9.687053903144063
Mo 12.10393630388383 13.73491305498436 9.240565332496006
Mo 10.188962112985614 10.076439195030648 12.81218073864813
Mo 18.124872989298627 12.353159869047113 11.19478146923613
Mo 14.842731275915023 12.9346815102336 13.929611138020903
Mo 16.67273940263598 15.077663093855232 14.04867627681405
Mo 17.306463680028497 12.750407518846732 13.875529885571074
Mo 13.901761032697568 11.576846934127364 16.045354913937445
Mo 12.416389637258202 13.842005266057164 14.83846115736627
Mo 15.210891864014377 7.454148836527384 12.522227419831937
Mo 16.799540505416818 7.758409663805392 13.365733674275305
Mo 15.16100684086989 9.89623031651045 14.0998312603754
Mo 12.269414566394161 16.931169028161133 14.908231492088763
Mo 15.682370407237755 16.543934240258906 11.53337278983943
Mo 9.444611547033476 16.51150477045507 11.208394026052256
Mo 16.75028156772069 9.628442293932846 11.13172947725295
Mo 11.254275485019063 11.208722634774823 15.710690975555616
Mo 12.744409383370087 9.280451466224296 15.511155561865268
Mo 9.90074276232903 9.186007011139232 16.717898086552122
Mo 10.347245670488249 8.321923756730564 15.005341367296417
Mo 16.04433829511585 17.744087073692462 14.15948431462146
Mo 10.648936586257278 12.480302975321534 13.23323684336426
Mo 9.465989360013033 13.174813983067594 15.323217556247194
Mo 17.679917368891083 10.297085227485997 13.104344586563723
