53
Energy = -493.15638406 eV
Mo 12.06793273609075 11.00436280565518 7.203845422949535
Mo 12.44103201521089 8.684244810047888 8.436595495527314
Mo 15.180597616653744 9.915519912586038 7.845035277461305
Mo 9.519218193589285 9.198194862369887 7.490046387514979
Mo 9.792275941445027 7.316906462202523 9.80723646909271
Mo 16.398711240294404 11.474287410789335 7.6611791033904355
Mo 12.393318353579295 7.7727046164882525 10.568995742951708
Mo 9.41962718117054 11.06637964391762 7.182831175131046
Mo 14.08924811775843 12.4915959626168 7.156750938200077
Mo 14.50530682399141 8.892989787910059 10.682404315384758
Mo 13.44930536065636 11.149490307610007 9.381509038423756
Mo 8.21544617902525 9.644902745385442 10.658853070130878
Mo 8.335419239026795 11.58925356785487 9.638785051693645
Mo 15.94153946323145 11.215788892524106 10.367865135382308
Mo 10.188785505796403 6.175044283486907 11.399467269795236
Mo 9.102106169795306 13.715607433183395 8.030834613774925
Mo 12.9719456970292 8.150080995667524 13.324677670609223
Mo 10.808465542319974 10.009902154483951 9.689008552513796
Mo 15.080054561972393 10.303199177176037 12.619893633211682
Mo 11.481144449505594 13.36510372152408 7.014961214459122
Mo 15.547493405416349 13.222525249064839 9.631152058171317
Mo 8.332478635326185 7.617406810756045 12.396818304540567
Mo 12.55544699593003 10.430142035746437 12.073438101773313
Mo 10.43448422905863 8.860067997127993 12.143676329314129
Mo 13.55327055453335 12.633043070531363 11.487164837977382
Mo 11.0492264530244 12.564678871083549 9.449765688672496
Mo 10.11717999878025 7.493767828332866 14.46630440879828
Mo 15.914343220293333 13.077142425820895 12.598433601038696
Mo 13.647470990972272 9.461333447330196 14.670017100444042
Mo 13.148767763468811 14.059595879172514 8.943462578400583
Mo 14.368922508528716 15.267592817945445 11.307247797838485
Mo 9.05824500738668 14.172188601088797 10.453827413001276
Mo 10.830693087404315 15.546351927255738 8.79718155340177
Mo 10.040993984431955 11.746142783171443 11.917763112442163
Mo 8.270597918231022 10.047211432475267 13.446123722473999
Mo 10.976571757378517 10.084018732398748 14.44029601637575
Mo 11.67270807945126 14.538258948207032 11.452511869479144
Mo 14.517382140944115 12.371084062018012 14.068579625783086
Mo 7.684081868210505 12.299213208706668 12.04442867640229
Mo 8.027926596772671 7.52152848594297 14.936385779374923
Mo 11.629938211339697 12.890045175444554 13.707747530361027
Mo 13.865580589922967 14.945253952366075 13.222280327617765
Mo 12.294968917647992 16.571114180211527 9.861392635153102
Mo 12.663843771172397 11.78622959928766 15.904017176433078
Mo 8.860397559655894 9.644081778691685 15.749994190588412
Mo 10.069042390451001 16.33533742071353 11.4124253508703
Mo 9.184650950547892 14.272274933817584 13.053881230997787
Mo 9.116119646614695 12.231829123186289 14.630766335615377
Mo 12.634310854684609 14.148540743584231 15.632759549861461
Mo 10.314326018956038 11.598363276687467 16.811842935827343
Mo 11.027603226181858 15.623920558451152 13.730998779183013
Mo 9.910600024361452 14.2236182011006 15.763431968476965
Mo 11.259232619416878 13.523207211612592 17.58327229963617
