52
Energy = -484.23855244 eV
Mo 9.285564192920221 10.017718223042165 15.730455089858571
Mo 12.54070725392118 10.912891182236574 15.464458771966314
Mo 9.898222753130264 13.268313699951134 15.749445827263353
Mo 7.34247770573315 10.654086892172726 14.361144390201996
Mo 13.367822593907208 7.830829196005394 15.302754589146137
Mo 10.703655112064515 8.762691975768979 14.43326176305621
Mo 7.77951719252779 13.081242738086246 14.484031344157724
Mo 8.786542598389739 9.039180400441241 13.041033414802671
Mo 12.405987166525135 13.67184291210503 14.31625419249449
Mo 14.281364520223864 11.179247442395365 14.849555274210863
Mo 10.188226019502187 11.65251853566913 14.032140674995185
Mo 5.640937033571712 12.500171962511992 12.840966964137076
Mo 5.824256620249644 10.646683106764353 12.119798634000729
Mo 12.682676809419073 6.672523998519394 13.894407607099549
Mo 10.197012558194348 14.618964062043256 13.829819273322094
Mo 12.90479248222185 9.355397278788612 13.046720360103862
Mo 15.05474417591418 8.387919846994517 13.31304291658872
Mo 11.143074305054807 7.825570772302871 11.502342396140575
Mo 8.248197238100854 11.669389806880709 12.09503081846264
Mo 10.6365165055867 10.22353515708688 11.695486678367477
Mo 8.019867056722576 14.280964805879158 12.30867713143989
Mo 8.407223367061611 9.20980401624659 10.141224335296007
Mo 15.07852180583131 13.60765258184659 13.138414669369824
Mo 12.751366606049572 11.910484143015355 12.581350780688357
Mo 6.815649544299865 12.894161902653206 10.30730073668522
Mo 13.846906691109847 7.325273081332485 11.372022344083463
Mo 15.28446325301772 10.820358104519638 12.153130305834667
Mo 15.995501736115896 8.581225585371978 10.567247883916542
Mo 13.462091394496273 9.770930367282874 10.534119936268796
Mo 6.991715464342224 10.40520391659519 9.458151167028944
Mo 12.369462520565822 7.523071331294179 9.33014411705776
Mo 10.40501971731438 13.224602122818673 11.698666188271098
Mo 10.925276667073954 9.419397671329664 9.032818929375857
Mo 9.373487203137929 11.902239332967296 9.586298025060385
Mo 15.1199047230115 8.26237911374146 8.823295689520403
Mo 16.67393996109329 12.461708427696278 10.694379067985134
Mo 7.510967331353263 12.91899291995899 7.729113551970563
Mo 12.647634566482495 14.666041448450052 11.9423115531746
Mo 11.980530538037774 11.773633345304331 9.867910551022405
Mo 14.139667952979194 12.845218513591886 10.565643992705244
Mo 8.808410863813132 14.506893728960623 9.913093835879398
Mo 15.473520968571737 11.116218332339617 9.238591071765674
Mo 10.7289521769921 15.786450248926274 10.833399825256173
Mo 15.475300422892309 14.877742417543178 11.679690293580268
Mo 13.08076706065585 10.069488015728377 7.896436695473522
Mo 8.941842904019856 10.70543502366763 7.509800562509966
Mo 11.603767410986684 14.178124644041292 9.143494890690544
Mo 9.401880131481416 13.677408901253585 7.389876647936626
Mo 15.536575118480858 14.05742079722713 8.55794206684835
Mo 11.22078645305735 11.708566306202767 7.3082492991110195
Mo 13.961393631504794 15.31621112060409 9.376704704165455
Mo 13.581987584867482 12.820843833111198 7.888430556190387
