54
Energy = -504.18448575 eV
Mo 16.504817660929092 11.821560891860951 14.706281725024223
Mo 17.04562474804237 12.973096815240194 11.95588194858533
Mo 16.349849065680715 10.319078974879812 12.223159115896268
Mo 15.443183884598255 14.263931040231514 13.675318259964294
Mo 15.32779107503194 10.299516688242518 14.812744729941462
Mo 13.850493692100573 12.758318038185445 15.293812380136679
Mo 15.854448189254521 8.43120212643853 10.139419803456633
Mo 14.72956535576058 8.382044956185574 12.778203876372203
Mo 15.536737280269067 11.325154033721136 10.132555782702651
Mo 14.506531194625577 12.147534312965487 12.740063669316633
Mo 15.710188981293964 13.93037547403132 10.763863806803162
Mo 13.232616813942432 14.9246843221691 14.873752442283292
Mo 13.177009585883575 8.092916301582731 14.929383105073596
Mo 13.681807278786952 9.840833847535627 11.197384126812118
Mo 12.641909199607616 10.30634904749417 13.74534362912282
Mo 11.599911015430536 11.510151937336635 15.771217752349926
Mo 13.545110693082034 14.829598810001023 12.198077867637277
Mo 15.023207332476881 9.343316522790358 8.595873156954083
Mo 11.925447857878028 13.11082769313652 13.351901391048608
Mo 13.746090307955951 12.03755056475545 8.041062383620519
Mo 12.475708140837186 7.2896156734408475 13.172570136174608
Mo 11.077334207693097 13.683747456246147 15.712367340321133
Mo 13.13053925144728 12.7001359257948 10.425858372390495
Mo 12.920755596955766 7.878412363224574 9.77152791689546
Mo 11.049492792236425 15.758310974904207 13.341117195971403
Mo 11.265323817411723 11.232092320719701 11.578831065186982
Mo 10.518094316532329 8.968318482586081 13.819979871099594
Mo 11.1199330542697 8.565269606900594 11.133392855859524
Mo 11.228798702459725 14.453216804447457 11.070673634737275
Mo 12.189988453808196 10.114516833406945 8.83387982690573
Mo 9.330206683679235 14.245389252341623 13.482335130194395
Mo 8.725551688120197 7.608147854921693 12.614859366226668
Mo 9.795656175662002 11.54477471563879 14.047508482556266
Mo 8.701176837776172 10.0320588313218 11.947622257068204
Mo 11.975988402515679 12.061570435994875 6.6402609873936465
Mo 7.810896829396106 9.634617434946433 14.67205875026777
Mo 12.304251867434195 14.540152076410847 8.200418634250179
Mo 10.431302232596929 8.488318475699785 8.05969262180924
Mo 10.89187272238723 12.476447971212528 8.917122691610242
Mo 9.402115814450164 10.283449142505074 9.562704694946703
Mo 8.953539915738626 7.545951162078443 10.319293145233905
Mo 9.062811570663845 12.83257831734719 11.129878996328838
Mo 8.667141020946914 15.579518064175186 11.606658532032442
Mo 10.023205346066911 10.366383667471755 6.971107946221095
Mo 6.7846230722272 14.269000313420992 11.763196699010672
Mo 6.498831900312114 9.272269508867039 13.35656956071471
Mo 6.8795220496945 8.881208707382758 10.214946072358591
Mo 7.483265456049199 11.990247171516799 13.019541132076471
Mo 10.744714590830826 14.416092285260543 6.873271793539716
Mo 9.56324019336585 14.781525216547598 9.124203958051282
Mo 6.905947495704065 11.622382005501095 10.255299687367334
Mo 7.36488922534874 9.560260163924243 8.24398150472666
Mo 7.168883977650856 14.293117374045707 9.414740232189594
Mo 8.105471143453299 12.270722527284315 8.381393941374125
