54
Energy = -505.76098139 eV
Mo 8.296162734609506 9.435438877903191 15.516558003386484
Mo 9.622748563912285 9.239814154885785 13.300608351823927
Mo 10.975478058399473 8.042579325356447 15.477132299662426
Mo 6.900500350695621 9.340923797097943 12.315194932092387
Mo 8.955065328242364 10.820659146012305 10.967594983382329
Mo 10.188368791750843 9.131612994161888 17.12721034888363
Mo 11.344139911014002 9.833702852206006 10.936862798165828
Mo 8.290461231449102 11.650648488570067 16.03592466216621
Mo 11.889727307846039 8.711651921233992 7.196038423595772
Mo 10.607179636170898 10.923970406014643 15.282395537765487
Mo 6.813907132361094 12.113793110929631 11.253370505504815
Mo 12.330867009049198 9.545862862874158 13.530350463840847
Mo 12.997180184239491 14.648865700049692 14.165895083255442
Mo 12.80610894106994 9.658811309752101 15.921526895619339
Mo 13.919776073484288 10.91596548832343 11.900450060806739
Mo 10.215600149473724 13.524912577360277 14.461237207680362
Mo 8.066920937520926 11.435738483943771 8.639450193080679
Mo 13.379727393114889 11.200134567617996 7.542393369372325
Mo 11.607197822564233 12.93707126052401 16.280191595008322
Mo 16.703934730869502 10.808730869125583 11.945895987988063
Mo 10.91831882741338 10.719443195273557 8.504754525402697
Mo 6.6035433770269245 9.379732089236095 10.431419530097237
Mo 15.14239106162365 10.051716065369506 14.398156374266872
Mo 7.834335223818586 13.676505912369493 9.29426077425578
Mo 9.139053061000823 8.097860473202596 11.04586773220936
Mo 10.771075699701536 14.731032449014348 12.206257889958637
Mo 8.374223310538365 11.555095349642892 13.638580443528133
Mo 14.574927353064682 8.212401232708833 14.041998414135254
Mo 9.316530013989293 15.877165145483273 10.14520494387047
Mo 10.987948043262266 11.956000427849274 12.535247924843633
Mo 11.478848250485697 7.260246804221025 12.193855166998686
Mo 10.21642196500388 13.066839855475104 9.944247553464672
Mo 9.601910952282024 10.175781514019942 6.2188627482779735
Mo 9.073644940479452 8.85714912250105 8.862677521473607
Mo 8.386300247561369 13.548739328126592 11.91228462054726
Mo 9.864588506681116 15.416471398399748 8.316916737600833
Mo 12.882501865365423 16.55326264533286 11.976147757781849
Mo 12.776385716167841 12.158940895577631 9.903039909508324
Mo 15.922152399068148 9.14508407776998 11.427685058044988
Mo 15.270869469383008 12.83139821817878 13.53844979143507
Mo 13.15057030240897 13.72060906019199 11.935685679490081
Mo 9.598891561041833 12.777922941841181 7.187953484742988
Mo 11.99837638691399 15.127093994373098 9.843663488805182
Mo 12.942634522523793 12.151433036827658 14.439144851533902
Mo 11.481299572393558 7.885484287028902 9.164294694647811
Mo 15.300440575018605 15.019713445303172 13.147057863722761
Mo 13.313612329592193 7.8565145431708086 11.546620219315503
Mo 11.255065740909785 11.104098400094243 5.720362965329864
Mo 13.64572610191745 9.417424213874364 9.335480289572988
Mo 11.867541262703094 13.359170055452367 7.590679830932883
Mo 14.18314963540991 14.003971097275038 9.023340358634043
Mo 15.253819456715055 11.187760817915455 9.471656447214752
Mo 14.427389750971841 16.143543129458152 10.853043965861392
Mo 15.493957133928946 13.281961243681545 10.859173805030865
