55
Energy = -219.66218277 eV
Mo 11.677994222298395 11.677994222298395 11.677994222298395
Mo 11.677994222298395 13.496845071655773 14.078131613561766
Mo 11.677994222298395 13.496845071655773 9.277856831035024
Mo 11.677994222298395 9.859143372941027 14.078131613561766
Mo 11.677994222298395 9.859143372941027 9.277856831035024
Mo 13.496845071655773 14.078131613561766 11.677994222298395
Mo 9.859143372941027 14.078131613561766 11.677994222298395
Mo 13.496845071655773 9.277856831035024 11.677994222298395
Mo 9.859143372941027 9.277856831035024 11.677994222298395
Mo 14.078131613561766 11.677994222298395 13.496845071655773
Mo 14.078131613561766 11.677994222298395 9.859143372941027
Mo 9.277856831035024 11.677994222298395 13.496845071655773
Mo 9.277856831035024 11.677994222298395 9.859143372941027
Mo 6.497625179039653 11.677994222298395 9.198481893396538
Mo 11.677994222298395 14.157506551200242 16.85836326555713
Mo 11.677994222298395 14.157506551200242 6.497625179039653
Mo 11.677994222298395 9.198481893396538 16.85836326555713
Mo 11.677994222298395 9.198481893396538 6.497625179039653
Mo 14.157506551200242 16.85836326555713 11.677994222298395
Mo 9.198481893396538 16.85836326555713 11.677994222298395
Mo 14.157506551200242 6.497625179039653 11.677994222298395
Mo 9.198481893396538 6.497625179039653 11.677994222298395
Mo 16.85836326555713 11.677994222298395 14.157506551200242
Mo 16.85836326555713 11.677994222298395 9.198481893396538
Mo 6.497625179039653 11.677994222298395 14.157506551200242
Mo 11.677994222298395 17.126776032432517 11.677994222298395
Mo 11.677994222298395 6.229212412164265 11.677994222298395
Mo 6.229212412164265 11.677994222298395 11.677994222298395
Mo 17.126776032432517 11.677994222298395 11.677994222298395
Mo 11.677994222298395 11.677994222298395 6.229212412164265
Mo 11.677994222298395 11.677994222298395 17.126776032432517
Mo 13.069708039448365 7.524717935789527 13.859516903081127
Mo 10.286280405148414 7.524717935789527 13.859516903081127
Mo 13.069708039448365 7.524717935789527 9.496471541515664
Mo 10.286280405148414 7.524717935789527 9.496471541515664
Mo 15.831270508807265 9.496471541515664 10.286280405148414
Mo 15.831270508807265 9.496471541515664 13.069708039448365
Mo 7.524717935789527 9.496471541515664 10.286280405148414
Mo 7.524717935789527 9.496471541515664 13.069708039448365
Mo 13.069708039448365 15.831270508807265 9.496471541515664
Mo 13.069708039448365 15.831270508807265 13.859516903081127
Mo 10.286280405148414 15.831270508807265 9.496471541515664
Mo 10.286280405148414 15.831270508807265 13.859516903081127
Mo 9.496471541515664 13.069708039448365 7.524717935789527
Mo 13.859516903081127 13.069708039448365 7.524717935789527
Mo 9.496471541515664 10.286280405148414 7.524717935789527
Mo 13.859516903081127 10.286280405148414 7.524717935789527
Mo 7.524717935789527 13.859516903081127 13.069708039448365
Mo 7.524717935789527 13.859516903081127 10.286280405148414
Mo 9.496471541515664 10.286280405148414 15.831270508807265
Mo 13.859516903081127 10.286280405148414 15.831270508807265
Mo 13.859516903081127 13.069708039448365 15.831270508807265
Mo 9.496471541515664 13.069708039448365 15.831270508807265
Mo 15.831270508807265 13.859516903081127 10.286280405148414
Mo 15.831270508807265 13.859516903081127 13.069708039448365
