53
Energy = -495.12578478 eV
Mo 14.87565037078288 11.048158293369507 10.008497605361503
Mo 14.560834778860007 9.61804241759454 7.793118119945141
Mo 16.036252070728715 9.09976849329656 11.806061335696212
Mo 15.051670117245854 8.200304483439151 10.302602957459934
Mo 14.292427059869267 13.461343008392689 10.876113446803998
Mo 12.327676670275926 8.93811786619847 6.652607458386975
Mo 14.030649551628567 7.527704921376399 12.947335622968355
Mo 15.13353255455157 11.43378373977431 12.701333917577967
Mo 14.318855527559892 9.5877083654777 14.387652652727736
Mo 15.18250196854292 13.993744988217939 13.48510417512634
Mo 12.630262690820356 9.442651794498499 9.379231153109366
Mo 15.116732055598806 12.79633385619433 8.311910865209468
Mo 12.676409562934479 7.159287684551188 10.844391272714143
Mo 13.802012638641154 12.07374624468303 15.23075866012972
Mo 12.17456247435537 12.00236996883272 10.174446341589146
Mo 12.39543840925798 8.044515529114276 14.75734060732365
Mo 13.257878653600262 9.8130399782873 11.943690559750513
Mo 12.427568087214032 7.280107716213843 7.855774569871984
Mo 13.21487862375747 11.640682768096289 7.696233656795158
Mo 12.765185005801678 12.485126232527497 12.755558337728369
Mo 9.852755392738263 8.268172021608793 7.6245568371628645
Mo 11.18359354068749 7.926742076102561 12.720856310083562
Mo 11.69135875174562 10.450820293505044 14.089997322878299
Mo 12.349517278786308 10.967195997103405 16.440257818726298
Mo 13.14168455918114 14.326849390508977 8.826823095079495
Mo 13.485708999854452 14.824623336312778 13.762003598745014
Mo 10.457954030901297 10.274272561333357 11.324159887216869
Mo 9.512185856815792 11.29151344467537 15.69086296178512
Mo 10.640883438581028 14.98913555166967 13.401862530099917
Mo 11.525223288543776 13.187733272835784 15.186659577589284
Mo 9.264890411659254 9.215228969718913 13.758771791198324
Mo 10.356605429846443 8.08300196627527 9.945230430432831
Mo 11.298017028236272 14.315236119614136 11.05043838232175
Mo 8.426427909916244 8.186755040320666 11.816388488633857
Mo 9.886132131967145 12.250735883479 13.057345629568339
Mo 10.531922088160494 10.563757092059822 8.179738341754225
Mo 10.970417290033017 13.387508696419992 8.216883797096697
Mo 11.19628343906051 16.053278782996262 9.249308027880772
Mo 9.246564061764467 12.646892383879699 10.376300876546969
Mo 7.317694785206339 7.6905325061379575 9.2575606111228
Mo 8.397260121666573 10.06153488485731 9.490247682877765
Mo 8.426142970930126 14.923221875223529 11.703612863490758
Mo 7.818234897123988 11.451541517584415 14.739406922215325
Mo 9.093693435117366 14.035991149537356 14.60976606979997
Mo 7.7845690029101196 10.614366646135373 12.093757106621341
Mo 7.638909406667091 9.674690335063088 6.795014336629963
Mo 9.32173783937851 15.024495235028693 9.027012257283761
Mo 6.118928542765516 8.869942019680188 10.211468546525822
Mo 8.475716921841217 12.273728095312135 8.035584597756456
Mo 7.377060708627367 13.347456811469922 12.473242057328767
Mo 6.43472915073441 11.889582387246636 10.197903877730194
Mo 6.810263758166987 13.787844130521817 9.528801472845787
Mo 6.272772094273352 10.58063145559836 7.629260907729806
