52
Energy = -484.89125295 eV
Mo 9.820766132803723 9.97655322841732 14.749875293508275
Mo 10.719816698847108 7.458751594136976 8.98948730841595
Mo 12.362205736022347 9.813622568014486 10.093087723699117
Mo 11.207399638522219 12.477510382361933 14.001769596103646
Mo 13.343091590173552 5.594474565462214 11.972213113950225
Mo 11.991830246540287 10.212307694535603 14.870605553101347
Mo 13.575342470480347 11.648325093195993 8.657512173549678
Mo 7.490299801821371 7.611625222813438 11.263202586703528
Mo 8.47332761030722 13.319459123510613 8.76333335198058
Mo 8.596455333306027 12.340052184723694 13.518973636588617
Mo 6.342330376886828 15.130730669711133 8.844835176056856
Mo 15.212993171277239 9.477334005284261 9.153611996589216
Mo 11.373361910438875 7.5598815286236105 14.802086443480148
Mo 6.133517173315452 12.499397247071215 10.019635345154192
Mo 7.554883207098258 13.906132777423416 6.2982954149819035
Mo 8.184631319966211 8.065971648346931 8.798172894541937
Mo 13.86647806710564 12.40590803713091 13.891040401215017
Mo 11.935679112620862 11.702156375968123 6.828082391225131
Mo 7.866273793856883 10.018731282743142 12.906296362186742
Mo 9.498696856562379 9.242263930174383 10.517610862619982
Mo 6.362944974894185 12.640100775536862 12.224332960915659
Mo 6.381151829504274 12.616979735904405 7.125741605067462
Mo 13.070502423569906 14.325948825799799 13.558571822899077
Mo 8.618108762678586 11.85391939903127 11.004547067125387
Mo 12.196309101930975 5.187091793175719 14.529792477304113
Mo 10.45129843739585 9.716869767420897 7.815305074274175
Mo 14.974118608639985 10.994113463252326 10.803510266009999
Mo 14.56773531675461 8.201245690992723 11.132512115914029
Mo 10.676561930679002 10.62187422036848 12.370101086168416
Mo 10.765588465256066 11.922065658043723 9.358849078248326
Mo 12.872578800317235 9.173184904557786 7.682323856794295
Mo 13.449100110484368 7.78112250651707 13.682991137776725
Mo 12.50719849206384 13.928145270948468 8.69927280402164
Mo 8.010797087955975 14.417028500763456 11.042514230313252
Mo 7.998588325013268 10.557789046577199 8.555234009846199
Mo 9.088746971685778 11.756828263331359 6.6109687986536665
Mo 11.828625350364318 5.246815692764584 10.666511180667015
Mo 10.607085862898623 13.588802491875736 6.9154907997105575
Mo 15.080046260803718 13.783422091087514 9.967272758100263
Mo 13.13371689187594 7.275023319600214 9.50128873832749
Mo 15.312563844132745 13.789387696815586 11.833508735926292
Mo 13.388993578330703 10.029312837124339 12.675952039526099
Mo 7.96183156557687 16.04576641685401 8.689821332859804
Mo 9.270054983054473 6.344677505790221 10.906535054488534
Mo 10.436388213268813 14.834408441644328 9.591271644163202
Mo 10.477678923528453 13.643394588171363 11.76943313568985
Mo 9.516247465491407 7.790041071337418 13.111268483491571
Mo 6.696901685382241 10.071924320179745 10.761234580268566
Mo 12.715785882988301 14.946044953871644 11.063277620913288
Mo 10.713520881934452 5.237627617832107 13.298563737775698
Mo 11.683243336141837 7.821067872378168 11.84779687822881
Mo 12.754188321045417 12.514369034397669 11.382060196473518
