5
Energy = -38.74439874 eV
Mo 6.434042506925487 7.000420739135216 6.44212160190182
Mo 7.832111325292956 8.538838318820684 6.093734227441533
Mo 9.024618378660465 7.203385058797936 7.493039810011163
Mo 6.599673970257196 8.238059086774912 8.448233087736641
Mo 7.4238331969723514 6.333576174579348 8.837150651016943
