53
Energy = -494.59437546 eV
Mo 15.222220193143716 11.301624447459018 8.92977728102009
Mo 14.82642718072237 9.874377594826376 10.819504520685362
Mo 15.59349395213883 9.183364494618269 13.41018025600762
Mo 16.401191159061334 12.23595453991674 11.077508702240817
Mo 14.546922329869593 11.802518381081734 12.787582975659726
Mo 13.563614444751117 7.7556660955175465 14.78418463507328
Mo 12.814162971482284 9.912496639298128 8.778617440883021
Mo 15.079524211326113 7.59353986729593 12.36946879118145
Mo 15.226325195593184 14.543042508390664 13.11193361630193
Mo 13.516949648525136 12.914539671084922 8.452640036138865
Mo 12.97355146349797 11.147669455449979 6.694861122327062
Mo 12.947886577336524 11.799057222893332 10.709438206162734
Mo 13.414320846953627 15.951359854721334 11.200324453334177
Mo 12.870110706162977 7.896107693135144 10.724262409740666
Mo 14.086291752253986 10.954472657787168 15.120313527633586
Mo 12.803275479778295 9.374877729545734 12.764899319696273
Mo 15.006034880386418 13.766116722190157 10.595485172031278
Mo 12.687461623618862 13.930704916376488 12.25643042286563
Mo 13.611404593624838 13.306006258004919 15.047474268709962
Mo 10.869502425120118 9.275975822014924 6.8882671203986785
Mo 12.660997165645087 6.587141375418585 13.438689287573531
Mo 11.019568910586562 10.545362082727642 5.209055743831384
Mo 10.867408117324226 10.075002072030406 10.849215783388848
Mo 11.228591403355813 13.098006598170652 6.619764974674476
Mo 10.907467939551635 11.90216228968803 8.817720369320984
Mo 13.659942843989295 15.92605766402092 13.772471960718327
Mo 10.849080852815213 8.066933058985082 9.372935898983945
Mo 11.869533101187088 9.773618370272672 15.492093356111438
Mo 12.008762775122765 17.838015873837833 12.353780278170026
Mo 9.67808275773961 14.23831619478711 7.908683469935587
Mo 11.620099117293776 14.325640065134248 9.540339463955798
Mo 10.929323680069324 17.233989844403666 13.783716673952034
Mo 11.563658790096495 12.413489870112482 15.874198165688364
Mo 10.480372758710981 7.592979540091315 12.003085788500437
Mo 9.322420800926643 11.587997015931936 6.533625844139695
Mo 11.156094436562258 14.544774598112328 14.209469944574948
Mo 11.845491748975142 11.766774335770217 13.494254212814079
Mo 10.634842298576855 15.603668645968257 11.614180116308086
Mo 10.170658694285569 12.76869978798199 11.568507300044145
Mo 9.88297832100628 10.062340234837452 13.296333864997044
Mo 10.541778589246645 7.974431687559585 14.55550722575301
Mo 9.107461482071256 10.000073730676345 8.738342014935162
Mo 8.40088626251598 12.521746701375795 9.268693219573727
Mo 8.23222924117802 8.00344832161647 10.353623576003953
Mo 8.894312665690116 14.930253249911283 13.356550485435758
Mo 9.359653264174636 10.43321205640649 15.923784069692259
Mo 8.575996976381122 14.546768316269032 10.411684476732741
Mo 8.070436024491695 8.222622020233603 12.381519242366409
Mo 9.253718460631566 12.555903296076455 14.298476466531994
Mo 8.171472208595864 10.666934459364155 11.177664703216733
Mo 7.622450189183865 13.065950421483036 12.146162531351127
Mo 7.478926819329145 10.918703133261976 13.76850848188884
Mo 8.064050749381892 8.928542994248703 15.167735640682313
