50
Energy = -465.52045407 eV
Mo 6.907356449018469 7.717514422000987 11.786169697763517
Mo 7.669980753679027 9.248531099112803 10.033986999790127
Mo 6.8907691590550835 10.040493551441624 12.828947713180836
Mo 8.931265376164651 6.8750000197627 11.210041556649635
Mo 8.396497728293053 7.483339599388412 14.000376512439574
Mo 8.907150313235334 11.133311629071942 8.833079174530237
Mo 7.506123946002742 12.396630688460228 13.794928649705431
Mo 8.115835131147989 11.65915976853129 11.230983641933447
Mo 9.903383029636842 8.575383251731566 9.475721293793102
Mo 10.332383730613545 6.808970815062797 13.542531640890067
Mo 9.263988417643501 9.237479013709592 12.228263019391623
Mo 8.520084882889849 10.439086529876098 14.745495427966805
Mo 10.661462129258016 12.639794631209975 8.149571996946971
Mo 11.53365832184878 10.27824036121473 7.419075806315583
Mo 8.147521490938185 15.268497006726005 13.602322585469691
Mo 7.68938514254505 14.456838219239092 11.893119987865836
Mo 11.728528809036911 8.311381241749912 11.649499966884648
Mo 9.817449546357405 13.494665182606283 10.457252221793551
Mo 10.822096696233604 9.061706479930864 14.453851312744838
Mo 10.852841348651674 10.815956092189937 10.40798455710019
Mo 9.426567655352104 13.278645567580952 15.100787198066538
Mo 10.088835857414297 11.761677406946593 12.958099847483963
Mo 12.342137949133742 12.713654198704795 5.813366555415494
Mo 13.323862573276102 8.060000338523178 14.205342777095012
Mo 11.99273481759048 14.420976746646518 6.426265815187955
Mo 12.392514467142776 10.476936379466277 13.048628060064413
Mo 10.225820045257509 16.253877421063553 10.53134937247891
Mo 12.513074630432843 8.968555219313481 9.193715322063062
Mo 10.76029508818052 11.476942428455096 15.585077430423057
Mo 12.09029463105096 14.439566891210225 9.282535085972103
Mo 13.821851704489896 10.574953447480523 7.151183394830596
Mo 12.316253355306497 13.050955514438558 11.659248935494194
Mo 10.407412256855352 14.50921531916716 12.804702067062834
Mo 12.994066083850463 11.824177218977706 9.238224564281351
Mo 13.307788300726067 9.703718176690808 15.480818767672247
Mo 14.180750414788173 13.382259181513614 7.813878006580416
Mo 14.366779386827641 11.345831534367504 11.525164901325716
Mo 14.146929078905794 8.658359881232842 11.573105722970185
Mo 15.348020730178384 9.686056840480154 13.492405787945968
Mo 12.285520011290359 13.098209554518611 14.3246903504587
Mo 12.999608350965214 15.785675950156124 11.262816780485105
Mo 10.65336506928872 17.014008218541463 12.229262531542656
Mo 14.870687063976538 9.706544294598283 9.296580778341195
Mo 14.658330133062378 13.967742835707798 10.190916472219993
Mo 14.461788043243551 11.850848316308662 14.344651044166694
Mo 16.976134636398257 10.10590141139823 11.593820008708548
Mo 15.889335928699827 11.947324892351862 9.570545339375064
Mo 14.584888267847 13.813251537923588 12.755337158047181
Mo 16.81714295263244 11.985891856692447 12.225456193158747
Mo 12.887651663270724 15.450295304633304 13.518202174379267
