52
Energy = -484.65567687 eV
Mo 11.9219737683492 10.132498067155597 5.89210878338957
Mo 14.356015295060583 10.301402852282848 7.295239890246233
Mo 12.98240635418366 12.6507268969941 7.164635144514212
Mo 12.352590188791675 8.536952749484257 7.05952199589249
Mo 16.391214327544592 11.033122534283667 9.392306436290864
Mo 16.51865136068962 13.012639634031656 10.773710368926123
Mo 9.959067687935747 12.33350976743633 7.374542566209078
Mo 14.115606836513388 12.047645946182874 9.457024756780598
Mo 9.663135877292792 9.72587766382858 7.008694837162136
Mo 16.53379820480833 9.245493768462458 11.10009614285553
Mo 11.753384692822836 10.646681737314504 8.602902222229629
Mo 14.304399331243548 9.259978131422129 9.314291279607696
Mo 17.269903438628585 11.499321751272145 12.239382278095517
Mo 12.10029945318138 8.013116680928274 9.978905483531214
Mo 9.934723247571434 8.409131905089074 8.733204154032746
Mo 11.977018252990408 13.705966722708427 8.617768890127486
Mo 13.91068394809241 13.804807828829196 11.172814460175184
Mo 14.830533279083937 10.928893420086336 11.820725727802333
Mo 14.087288901414777 8.08946589298825 11.821151381415097
Mo 9.162572058443377 13.51033064623137 9.443378065581514
Mo 15.52436855993802 13.44105512127056 13.428504312205192
Mo 9.71444151880098 8.733255302202892 11.49587050700873
Mo 7.8236287479610125 11.548265156298822 7.849806153735233
Mo 9.587230154958709 11.043140135735968 10.023617238424809
Mo 15.54485299098025 8.692271649911111 13.33423452734679
Mo 7.704940604349429 9.589106704791572 9.309949740018585
Mo 11.521950058977907 12.699113113201228 10.984361719760905
Mo 12.274958374938011 10.165898026072767 11.179739642805183
Mo 12.968060106652805 12.318616676913654 13.133881611748508
Mo 6.771828336939226 12.37561164483672 10.369520532906764
Mo 12.836788546281042 15.17965905157887 13.206443765531027
Mo 11.570613700564518 8.11383151552962 12.971833810421176
Mo 13.169974608683416 9.73263553062278 13.894570113493625
Mo 10.555789203809256 15.07678182326155 11.677039193676933
Mo 15.408943919861313 11.536456161592072 14.390814057020634
Mo 8.706396336010226 8.831920646288241 13.719451492709721
Mo 13.52954445376158 13.728379862732252 15.143381528505746
Mo 8.972981822084652 12.770758226336422 12.134576357825747
Mo 7.5454516966435845 10.330587972226034 11.848214673446341
Mo 8.167332358688943 14.889896312137253 11.517880912835105
Mo 10.442319114693083 10.816269433746816 13.204763662617644
Mo 10.787118136002052 13.487595191270856 14.013007062765343
Mo 12.29724137070078 11.298383628891743 15.565899613809016
Mo 10.669417096733913 9.462207678444472 15.245870673431808
Mo 9.765461142946743 15.969638220791657 13.687193246777957
Mo 6.234018667889778 12.806587452391467 12.22776394240104
Mo 11.747698861296843 15.776510824542544 15.137748073498647
Mo 8.132339179329458 13.82498370776565 14.287709486768025
Mo 7.771331402486703 11.147027746141285 14.128050704285377
Mo 11.230552185800073 13.520225262567061 16.793090529406822
Mo 9.490090794987957 11.878441085657638 15.652287352902537
Mo 9.58948167479782 14.62232211770696 16.362832533731513
