50
Energy = -465.8541692 eV
Mo 16.069566485321044 12.884845312739252 12.38793060754685
Mo 15.087234557336629 10.969664241294504 10.121552664333695
Mo 16.092678808874705 10.13808801211204 12.079570539935277
Mo 14.43416530863865 13.313516862497796 10.247029415008331
Mo 13.38215671459328 11.205545711921328 7.787192510173854
Mo 15.677084259454288 12.1631392503051 14.110923267283903
Mo 11.74058935540991 8.540614182933895 6.618913735099268
Mo 13.114810434621173 9.291656174277447 9.157931501354186
Mo 13.089148049719276 14.12394724848091 8.128540060773092
Mo 13.538007812014934 13.91171937236189 13.26354371794898
Mo 14.170327287195235 8.826607581954471 11.797777179655553
Mo 13.534390389895991 11.46771243891453 12.352141163670433
Mo 12.305941218813047 11.996781975337433 9.899092997333428
Mo 11.242329351740388 11.153680736284732 6.059624111159984
Mo 12.502272163925996 6.93492903447801 10.439188305031372
Mo 12.477747557338109 14.84572324834849 10.890625308508376
Mo 14.15488963868841 9.706986341747186 14.173986457747118
Mo 10.950111964703082 12.958990364726045 7.915745946493765
Mo 10.76644439826416 10.07850221511647 8.42937553569292
Mo 10.695756783163562 7.542470660151839 8.66306204505726
Mo 9.538975154638292 8.61052481821718 6.302485491625084
Mo 11.535670510648938 9.675097654113907 11.305779891666194
Mo 12.950708560766447 12.488591217343794 14.904640566429864
Mo 11.536913336442968 15.59838423611321 8.936566598242782
Mo 11.150548595672475 12.76960850905073 12.173505634797474
Mo 9.116978460606791 11.326946609416797 6.634280019117508
Mo 9.840393772932309 12.31420318736832 14.947523660141249
Mo 10.657579527105565 6.621140500732788 11.261915425461517
Mo 9.89558397646943 13.969213878103822 10.159211670287712
Mo 12.17777122813324 7.839417014177134 13.150969158340729
Mo 8.091427845115632 13.508670029086113 8.09473620826018
Mo 11.191633256952485 14.537082873676743 13.985042280432046
Mo 10.228192766005307 15.57428487773926 12.117396517068283
Mo 11.45575276519576 10.551245885715872 13.86431434014771
Mo 9.348154098606855 11.535986697829097 9.92904463642884
Mo 9.04825598739165 8.842480384409821 10.703980939203937
Mo 8.058254331647259 6.879256357796353 9.077969202127498
Mo 12.29191409978022 8.831925447743275 15.301243886988878
Mo 8.159898369273268 9.296435617126352 8.257842250788366
Mo 8.920930901437897 11.081923399866563 12.48273838029717
Mo 6.974792005667222 11.944782180120956 8.416822539937792
Mo 9.729007496149263 8.453356294413801 13.343056382681572
Mo 7.959192037202432 6.8391201104953545 12.211696219667513
Mo 7.377030663771965 13.084180389306072 10.952013545940437
Mo 8.691972860341892 13.86954194536211 12.827818691353114
Mo 6.486485407579945 7.732452039408865 10.039692800968373
Mo 8.893378255832664 10.547899595859382 15.000974232934293
Mo 6.883818682773516 10.290849225015386 10.626881124419649
Mo 7.181819892023628 8.677294777806148 12.794697844054978
Mo 6.6319653965932215 11.63776726284882 12.752964430815116
