6
Energy = -48.68619747 eV
Mo 9.256351295917035 10.346872054469802 9.069467332001322
Mo 9.493178669556091 7.857467404550805 7.2986458027478545
Mo 9.28319043179293 7.571327702453905 10.382313108376573
Mo 9.06101317991709 9.22980917274027 6.282925656145271
Mo 7.617946256298668 9.677576836484766 8.89195716684001
Mo 8.697622871009813 8.743821605394908 11.557427881919113
