6
Energy = -43.84737549 eV
Mo 12.942678964049158 9.853923975167055 12.228608521987574
Mo 9.426961274442322 11.212929546682249 10.130329272405673
Mo 13.77362012698661 11.823486462639716 11.44819512125636
Mo 12.589976518450731 11.743712148950276 13.217622763441971
Mo 6.828433801628149 10.758530730754474 8.996766271387852
Mo 11.038509070388178 11.370338844246369 10.631406785902165
