6
Energy = -47.92940075 eV
Mo 11.542351711649045 12.183300622895949 13.246469172343277
Mo 10.727440630797775 13.247592328790985 12.131473489750222
Mo 10.168238806543622 10.539453473254195 11.102510920763459
Mo 10.476966735215298 11.483082114717673 9.645347724952048
Mo 9.995944326548639 8.2974735328908 9.108455862543545
Mo 10.107787170235945 7.339958836134887 7.7126298406099245
