6
Energy = -48.30997093 eV
Mo 8.092808228493936 8.18867680725053 9.913111890442316
Mo 6.862891479929798 9.279356376976576 7.753523377847124
Mo 6.71404803719646 7.225439318146174 7.781672930616266
Mo 9.030720574818334 6.71547494035133 8.45527558197242
Mo 9.234141318385042 9.46876331022112 8.419820259473443
Mo 9.021736361176194 8.078635247054379 6.632941959648659
