6
Energy = -48.68571095 eV
Mo 11.337818176724216 9.061557930513107 8.790153232018346
Mo 9.99010434165827 10.200283047346092 8.807243200538808
Mo 8.860351948628038 7.491513324897465 9.546179647921104
Mo 8.93493606062667 7.590641422450075 7.767844502075922
Mo 6.0872620561794495 8.10080675019155 8.538688393961174
Mo 6.896164916625354 9.66325144266493 8.658762420544805
