6
Energy = -47.27882289 eV
Mo 6.361832702382622 7.906826520249512 8.566027491595321
Mo 8.529919120185834 6.969725157878082 9.346641948230888
Mo 8.087081830745717 6.648932677279476 6.931601850440782
Mo 7.488688253988583 9.037112108511845 6.658979292770551
Mo 7.918554083488904 9.362687618405573 9.083411288045985
Mo 9.650765410730793 8.111557319198088 7.4501795304389296
