6
Energy = -48.67908223 eV
Mo 8.525540411416523 6.239087172611837 6.322423166876521
Mo 9.113547089297013 9.245888744539073 9.552102547176927
Mo 9.641358009436482 7.0314513933475045 7.434734876057351
Mo 7.5848350855528635 10.064276828451304 9.881971679688952
Mo 7.18086883984779 8.780019561229777 7.23396290379883
Mo 6.836797657457653 7.522509400140388 8.458017210270341
