7
Energy = -54.70346355 eV
Mo 9.15923269112208 10.833283639850121 10.255824045317594
Mo 10.589103228139022 9.388124291241967 12.595938410632973
Mo 11.562354806737087 9.560665516031147 11.121602218428324
Mo 12.655750745992464 12.40723806347819 11.404174718104525
Mo 12.733208780439224 11.557838814265791 12.92391822071561
Mo 10.40453960048215 11.860834966190753 9.472908605071929
Mo 8.299444190991725 10.789541135023786 7.573557825793894
