7
Energy = -56.94953082 eV
Mo 10.391861997007616 7.1027437142215115 9.823505312920405
Mo 7.631086043562177 7.471407643303259 10.264142571202916
Mo 10.990372127798857 8.225318340284524 8.452233113258883
Mo 9.279933681176962 9.387205737061548 9.786355416939843
Mo 9.747814864680679 10.845658050337008 7.586404118813413
Mo 6.955428418342217 8.73591015177475 9.109798410256461
Mo 8.119724705205309 11.313125819925835 8.115331448277638
