7
Energy = -55.67435605 eV
Mo 10.757936800832507 8.918681112633791 8.526866251018198
Mo 11.489230217749597 10.49109754319219 8.600454181829015
Mo 9.089995689771708 6.341198952103168 8.324419661733186
Mo 7.122318015977373 10.781245384074811 10.00355119939538
Mo 8.75033980575059 11.127074237822796 9.311587305282403
Mo 7.954149141572913 8.67727603492604 8.876519428686285
Mo 7.382544964502317 6.2146885889570225 8.907810291844573
