7
Energy = -54.33849664 eV
Mo 12.396423334368334 7.812073960249153 10.592441855758757
Mo 11.17208172175641 9.045381387910801 10.451105158247948
Mo 10.95275002163709 11.496404484899287 8.62735636490502
Mo 8.862553311063941 7.765673606537796 11.086021246874903
Mo 11.07332968631832 12.117836152418887 10.276613494646844
Mo 8.408653335272195 10.441818136411252 10.197468717552248
Mo 8.146058053466048 12.047232578683312 9.588013452362203
