7
Energy = -56.42732383 eV
Mo 10.059262590268977 6.974504859234912 10.059697690772836
Mo 8.362157142770661 6.448234129110818 10.300918649226443
Mo 10.115017783724877 9.09429192006581 8.14545466582958
Mo 8.762117924286795 7.792157221449188 7.531297661997971
Mo 8.126114203648246 9.049115471414714 9.604653565826908
Mo 7.588669601535869 10.326634250518996 7.112137792021159
Mo 8.064910535676402 11.473606051098033 8.405229592381009
