8
Energy = -66.00167071 eV
Mo 10.155093720846969 6.743992761084095 8.807834709140074
Mo 9.05245940190679 6.984473553690594 10.223430011577497
Mo 9.323454838436202 9.523673982444441 8.786246601634808
Mo 7.430380975598708 6.79033523064908 7.960114712577962
Mo 8.542732544263535 7.689579628384567 6.565592776272065
Mo 6.861293586591751 9.094918917497962 9.144910460881956
Mo 8.465209840999634 10.248957158625155 7.2467201127624605
Mo 6.158461764082303 8.92428519178304 7.266435717720408
