8
Energy = -64.16127484 eV
Mo 7.725270344891278 11.670284520888496 10.268708880597293
Mo 8.549469699609437 10.409488343618307 8.901650888932132
Mo 10.077142332724343 12.171449719490969 9.502088550023057
Mo 9.3658164019411 10.204623262348436 11.516939009063575
Mo 11.052827516422665 9.824759831727238 10.066968837968927
Mo 11.54756261110975 11.44206428575491 11.546858263074114
Mo 13.662654921251356 9.7396331705188 11.424621551375761
Mo 13.954701212942684 10.862661790100287 12.770208954574157
