8
Energy = -66.2824971 eV
Mo 6.620808370419976 7.4021356833618315 7.235808584714117
Mo 9.056681797905002 7.363984783246263 7.173687985463017
Mo 7.148373308665884 9.298220532849074 6.525685987001993
Mo 9.554505261398967 9.510715296789058 7.889353506631013
Mo 7.6398233576010375 7.3809799277582435 9.559137825981633
Mo 10.074635417306157 7.2883590953326225 9.496679644349443
Mo 7.259654677978317 9.564349899423817 8.882646960648211
Mo 9.650169808724533 9.195906781239087 10.241651505210685
