8
Energy = -63.97599238 eV
Mo 13.015835834745104 11.262173057334545 8.386353236823659
Mo 11.596568706593388 11.078774967933743 9.434881339918759
Mo 10.535256163668599 10.354809158243112 11.88046315383073
Mo 11.05908322366441 8.598506797382852 10.593568654064251
Mo 9.539272804459493 9.34705980596986 8.655837043810726
Mo 8.262672226839232 10.866598406778339 11.982983343453805
Mo 8.607862210809484 8.826963755448539 10.907998449160095
Mo 8.861588105728835 11.197416683614556 9.741600511125345
