8
Energy = -66.07514665 eV
Mo 7.6164160696022565 7.44812810157268 6.894759851812171
Mo 9.851683852061935 8.862886806433869 6.94650994075496
Mo 9.292536644890877 9.91065426397181 9.310732035384808
Mo 7.615591880855069 6.478648322473781 8.670159440752203
Mo 10.073284269819473 7.379959204223919 8.303866867531726
Mo 7.312976764906024 9.991421479073226 7.558639453611698
Mo 8.85877202849903 8.304478209402676 10.461983864328854
Mo 6.654142379553376 8.899228161908116 9.128752545823335
