8
Energy = -66.00828423 eV
Mo 10.778822931806017 9.579226925828587 9.849679228107652
Mo 9.194243362050988 7.222372959002572 9.650560768360776
Mo 10.13523535479556 10.913113227964503 8.916759481895086
Mo 6.357606869209948 6.501216354332253 9.606326490368055
Mo 6.9549795187547625 6.289676843587185 7.934045622789748
Mo 8.639244433300938 10.084228574533814 6.477902949905895
Mo 8.127914895268924 8.670828015911031 9.185069663892186
Mo 7.7091553346973845 8.646077408591825 6.262085844318108
