8
Energy = -65.74458871 eV
Mo 11.336196634189426 9.366199288528232 7.813985607334339
Mo 10.466700120106605 11.143864107522443 8.121177893331337
Mo 8.992503692025704 8.755642463865414 8.674781404233723
Mo 8.090127943487257 10.750156040184443 9.309819749169478
Mo 10.940912342767932 9.357508471029366 10.302902787633128
Mo 9.798633730630861 11.317286385755024 10.758176479142028
Mo 9.350767330854142 7.4911902010200215 10.887581071838133
Mo 8.326459666569194 9.120454502726643 11.433876467949181
