8
Energy = -65.40069876 eV
Mo 6.600552607942447 8.058875477941264 5.302339079026625
Mo 8.240682481891715 9.004775540459397 5.885820587709342
Mo 7.820896797665137 6.482900642950321 6.843951153311846
Mo 5.347510760095433 6.608814417825392 7.503649035173277
Mo 6.579600898684098 8.783365739449899 7.786039564908447
Mo 9.271119100277987 8.14798148115338 8.554851893906399
Mo 6.615964322810093 6.472845157438991 9.058691499320583
Mo 9.550408918127712 6.467177430276097 9.091393074138232
