8
Energy = -65.06122882 eV
Mo 10.023495897257131 12.500967699607319 10.671505296034857
Mo 12.802557556926224 11.331285115826532 10.722708606162254
Mo 11.015954371947624 15.384397718420777 10.870719352614795
Mo 12.058667099649485 7.6644985886511545 13.261055130912569
Mo 12.294715353563786 14.354955769680158 11.394735533895386
Mo 10.384979367001034 11.92143911236574 12.309181524884524
Mo 11.691853857493696 9.040701849050608 12.338007378607067
Mo 13.4732868735847 11.775277507432431 12.322303197451651
