9
Energy = -73.54458688 eV
Mo 10.496949747424196 10.780407625997737 8.573327975908853
Mo 9.120012682524578 9.205032508885163 6.320669241365956
Mo 9.744765545592612 6.169213268358502 9.105619130141893
Mo 11.082038529692559 10.826621584376685 10.255304574469301
Mo 10.259726065932448 7.797273746663215 8.724372527428134
Mo 8.659166761500222 9.579686144478266 10.401669662342613
Mo 7.35750404458462 7.684641489613775 10.140948805583074
Mo 7.90338152874504 9.544706726259582 7.531865860111478
Mo 6.33207437918573 9.399655668903828 9.952347081217688
