9
Energy = -74.46065839 eV
Mo 8.30059574479486 8.344174719862266 11.67623221139762
Mo 9.264495298396294 10.994538250329567 10.955510236413321
Mo 11.627036983742748 10.100272946628174 11.082935150100024
Mo 9.97124901800006 7.920766545829254 11.197749942896325
Mo 10.402521691719949 12.729123418212959 8.870811588453977
Mo 10.638357695516138 9.704917450198808 8.618247626248424
Mo 12.280315864133545 10.49816330721472 8.50776103269519
Mo 9.778288682564243 10.538120128104456 12.76705826939642
Mo 11.386374419139077 12.769348992895873 10.38406786039564
