9
Energy = -74.00362664 eV
Mo 8.650137980524814 10.098654737146367 10.516400654164562
Mo 8.981474354227268 11.592870930895092 8.070337538867655
Mo 10.254892737217936 10.956411238471656 7.000890986107326
Mo 10.298684311791801 11.489947698659106 12.179826158987252
Mo 10.598721390035921 9.93656238515439 9.75071211023492
Mo 9.135210869356497 8.344435294420569 7.895882054372429
Mo 11.7781617545261 10.342449530235442 12.363469962617105
Mo 10.049236052606064 8.592890799872519 11.861518526708235
Mo 9.353267766717183 7.410529564307922 9.382005454180554
