9
Energy = -74.66322671 eV
Mo 11.49045982065947 9.290226095634699 9.431324712526518
Mo 10.78359303604605 8.13811352836912 8.278594184217654
Mo 8.744189024689472 8.960564279084757 10.348384544310326
Mo 9.401567963541709 10.824185520247976 7.884442077211347
Mo 8.54208209527676 6.13471094690152 9.240883862532293
Mo 7.908848712051116 10.912270226572518 6.874004603260125
Mo 7.179063837076698 9.747944978973226 9.557329769344586
Mo 8.078003151015565 8.390112371327586 7.721967318835549
Mo 6.97129319917102 6.754944156940789 9.825532906333208
