9
Energy = -74.52438883 eV
Mo 14.928187569421254 11.142186190722857 12.27432229911709
Mo 13.798826867690995 12.389691959345914 12.858344138350013
Mo 12.933147322214614 11.264654934981682 10.359385116455789
Mo 11.21391868726163 12.792395785708088 11.623925766958422
Mo 10.168236309277347 11.359742397558483 9.47285186097904
Mo 12.145583560494698 10.096454176323359 11.751932173068141
Mo 11.062237920949462 11.678698575083923 13.806904081575773
Mo 9.663034186804772 11.143509619461215 12.479025492320451
Mo 8.925173592497483 12.539571185831875 9.954710282467364
