9
Energy = -75.36079943 eV
Mo 7.351421485696603 8.781919712968893 8.663802806926563
Mo 9.647770067040822 9.48698403171248 10.0429860650078
Mo 8.031180212758656 7.825684545219744 10.849411871559289
Mo 8.402518813207005 10.671478467555314 7.023537889247482
Mo 9.436501095961328 8.225800396329086 7.585620450142742
Mo 10.412369900871441 10.479343564338096 7.9324040101221245
Mo 10.408372237440137 7.192052150300036 9.620402358289711
Mo 8.035346429408875 11.114008372621562 9.161000990763617
Mo 8.39732125761526 6.345530258955047 9.243635057940548
