9
Energy = -73.14099954 eV
Mo 10.476036847268917 8.270942173160362 11.676236364617965
Mo 10.562316517716484 6.91463070823241 10.62165294063704
Mo 9.442213546107135 10.912718470286503 11.96392905703819
Mo 10.097320923048196 6.678368661858519 7.792467096494605
Mo 9.219744746110875 9.495724822968102 9.34068124834202
Mo 8.343216559024306 11.648894394992338 10.815223355614602
Mo 9.391415402361815 7.891895428006046 6.803407588305762
Mo 8.251347810828536 11.610566268170556 7.948094663730711
Mo 7.982976147425298 10.348853519992323 6.7550027777588415
