9
Energy = -75.01626738 eV
Mo 10.330378698246976 8.943885360436148 6.3329789567036014
Mo 8.754854505236455 10.229575675518717 8.118261045013913
Mo 10.400903401253355 9.537562331959771 9.572731456102481
Mo 9.617200710584445 7.55807450526575 8.616022070780739
Mo 9.379728210371075 9.621698383143503 11.85195475910097
Mo 8.614097545882462 8.287716007575078 6.127855480760475
Mo 7.796075214083732 10.313356852385777 10.499509048316972
Mo 7.278743151812424 8.445049259814661 8.933773878616698
Mo 8.570807204644954 7.732837464289358 10.859518207094865
