9
Energy = -75.0857239 eV
Mo 8.87041197210446 8.163952022334826 10.15563652663159
Mo 9.901770604839028 9.89218953440693 8.987218269264089
Mo 11.423763792517752 7.509215278402157 8.979757489345307
Mo 7.325263195048314 10.293833530754041 10.222966610806404
Mo 7.80874209944468 11.2970933301338 7.933738157139826
Mo 10.70509222012014 6.005588828961065 9.59987657959521
Mo 6.535211778770496 9.037209179239532 8.803387109759285
Mo 8.504217065404285 7.608582903614805 8.127925005945384
Mo 8.571061796836323 9.838170103267606 6.834633397839047
