16
Energy = -77.02398023 eV
Sc 9.832397541516524 13.306557866080418 10.922239485619116
Sc 7.819638074649934 10.750182762431875 9.441737257643641
Sc 8.059774276723353 8.388452166693991 11.72401308620584
Sc 11.12500106895448 11.828722733511569 13.39789347659838
Sc 12.735758396198511 11.21660554124875 8.709993633260009
Sc 9.101722190945358 7.702879069231168 9.05085381159688
Sc 10.256162572987693 9.792700855672686 7.4067479854783675
Sc 12.189677603734642 8.15956740847802 9.0805329073332
Sc 13.029223574424249 9.574843946414479 11.857188897428278
Sc 10.411956643885388 10.128176207138228 10.665667748587268
Sc 10.083901365080315 12.520365914256883 8.11642587883998
Sc 12.75682719240549 12.675788170229701 11.258721835227515
Sc 12.17148353771754 14.416756759295549 8.951851181032302
Sc 10.819611622449901 7.169276108271476 11.492517143802308
Sc 10.279191327287654 9.070455675691608 13.678557316932121
Sc 8.250486177525655 11.183487828670957 12.615455279228913
