12
Energy = -55.65849646 eV
Sc 10.506653399633262 11.905532969921525 12.813572160716598
Sc 12.98018333067493 10.826090990162875 11.524236293529482
Sc 11.682654432071992 9.259949729059413 13.808626643506358
Sc 10.809065930460367 12.258117740590702 9.654889125968548
Sc 8.61482476884641 9.829560112939474 13.554296853998807
Sc 8.112518150316545 11.525791515587528 10.972673399735912
Sc 10.387979183476777 9.404156823821648 11.218001273017688
Sc 8.360161705622106 12.667448361151708 7.961873312692864
Sc 12.963576236651102 7.927027360976298 11.27759874532842
Sc 12.295178033573388 9.686831954925976 8.764626389978574
Sc 9.20773870916696 10.008583437341121 8.475200680585884
Sc 10.711530399190016 11.626785316856663 6.711654472709498
