18
Energy = -87.6071342 eV
Sc 8.980955113574794 10.177962680711689 7.219908545302395
Sc 8.2872119709567 7.5024571077826065 7.441094328360864
Sc 11.237102880401547 8.602550468226703 6.7080344584942555
Sc 11.245717824939536 11.799326651663485 7.00358331345124
Sc 6.354059854465384 10.13571055753399 8.216583132947878
Sc 11.486447075822865 12.77475265784517 9.714641449580732
Sc 8.524825767907197 12.49516904479175 8.901703110121542
Sc 10.658765721224764 7.160841698649846 9.156427285954
Sc 12.92897475189697 10.120533471017476 8.785542276685248
Sc 6.706576283077003 11.192509172849869 10.965024583612438
Sc 12.660332023319471 11.028770177773794 11.727447786294631
Sc 7.67514804742188 8.469071173694537 10.237892668804971
Sc 12.609718402606418 8.053775908579308 11.169451644436277
Sc 9.47379731273878 12.01482134839719 12.062724239052173
Sc 10.256697221995381 10.013149896940751 9.990422124491314
Sc 9.62936249046954 6.928993217464879 11.875300011137835
Sc 7.838839823952581 9.440354701667204 13.068484052558837
Sc 10.694990412167941 9.338773043348521 13.005257967651973
