14
Energy = -65.90779829 eV
Sc 7.922301633501023 9.950391112997828 7.14971698465002
Sc 7.943032242978264 9.996188885348237 9.973979623598623
Sc 8.038984261262089 7.407105111463236 8.917834302354615
Sc 10.612008530082793 9.430047341831791 8.03339610996987
Sc 14.209505703352356 12.558894470973899 10.907887576855389
Sc 8.050339154724707 8.181627819275349 12.258417400724195
Sc 10.330501487125531 8.062696910213443 10.63507732234076
Sc 9.59675206087138 12.088944479757236 8.898083810826732
Sc 9.508206486301209 11.184826294953883 12.083225321335352
Sc 11.437928632182071 13.432565368308092 10.869134553335044
Sc 10.949076256192052 8.960888800621559 13.297650526967017
Sc 12.594404544300387 12.28863377507489 8.315543575162177
Sc 12.274697074017196 11.86860168083416 13.259390436281882
Sc 12.032400682111652 10.521223997775111 10.613654957648237
