19
Energy = -93.1505356 eV
Sc 11.449225039147443 8.928752092403094 14.606805448174951
Sc 12.789820201243646 7.712895949235058 12.086194200392635
Sc 14.058989416500255 10.214301673476863 13.607375942873698
Sc 11.718376737641014 8.75053468436969 9.169356886275136
Sc 11.680179141224016 12.0574268972328 14.38241332301591
Sc 9.571648847629431 8.393091793569338 11.557962739056117
Sc 14.25790106430435 9.880450281376467 10.620244975927294
Sc 9.085362623085574 10.632472543461159 13.811489596513631
Sc 11.64580864855001 10.33238835479204 12.100665508751288
Sc 7.58249394340527 10.696744763752509 11.265349430623745
Sc 12.91443328301715 12.805226926871894 11.420561369795335
Sc 9.725733208798802 12.992365972089287 11.958424509115607
Sc 10.259708632134494 11.164375769899245 9.800506655269443
Sc 8.23274658120061 9.874048540901704 8.340591745907746
Sc 12.986396192890066 11.626951379502637 8.608725023163196
Sc 7.784298873897723 12.794664396668367 9.299914071140483
Sc 10.649317511412802 13.674325937624191 8.557513407419941
Sc 10.744881801392273 10.989178493765754 6.888279004562982
Sc 8.3731066723666 12.56752757924945 6.516934200174907
