19
Energy = -92.29350022 eV
Sc 13.00094073375009 7.685583206431111 10.48299251016409
Sc 9.428441148982623 8.475192080161024 10.419337048599187
Sc 11.3211803738183 8.839350924077232 8.316885989713592
Sc 14.047167128738169 9.807789979742198 8.74197590968449
Sc 9.139793488946896 10.641948202296712 12.607065097343373
Sc 11.568102011549303 8.6829655645019 12.747772690925606
Sc 6.862826386518854 10.172173722933927 10.5175245617821
Sc 8.42400333711048 9.456843181211285 7.81321850807612
Sc 14.293058617295037 10.155542731256354 12.041338540906143
Sc 13.278765579395436 13.214018410604778 12.447570994606142
Sc 10.349673910870894 13.467476540726308 12.912089833807201
Sc 11.31985254491214 13.841642745703304 10.07557133560735
Sc 14.167393698259133 12.580092260404813 9.73742781317191
Sc 8.578261181043073 12.3332659194935 14.812460419036203
Sc 11.785075180288727 11.273841239237239 14.224861903425564
Sc 7.641028939556411 13.01837651406762 11.879861696215977
Sc 9.17225289749969 11.63988971704569 9.62198961582753
Sc 11.827209169686798 10.892366529714964 10.739382648392498
Sc 11.732168012168522 11.758834870780333 7.797867223105228
