11
Energy = -50.63685523 eV
Sc 11.378621653760632 9.604967650449536 9.472767329329873
Sc 6.006747223598234 8.137919510933433 7.144139213419181
Sc 6.458498580129868 11.117392679034156 7.832759983051143
Sc 7.498939086009779 6.490331225374839 9.147682905723553
Sc 8.847004212858485 6.47471950683339 6.47853063635955
Sc 10.492587298371538 6.7564318942374335 8.990332783339854
Sc 11.38340017580401 8.238998752261294 6.68948170447974
Sc 9.098433966407722 8.468766572808628 11.037816145700942
Sc 8.543134600574664 11.26651889458836 10.126142999516123
Sc 6.375633930996723 9.172881199808886 9.948516686473216
Sc 8.765456331410931 9.119529293437695 7.980286672529421
