11
Energy = -50.05473701 eV
Sc 9.418976105378759 9.38215515598008 5.514889223661642
Sc 7.885003388227121 9.962593978487671 7.746594865082483
Sc 10.879294160199908 9.209025717676282 7.870182619180365
Sc 8.736202834681661 7.1216203591188645 8.317646063758563
Sc 9.990332222044973 11.983049239293189 7.664409094080804
Sc 11.10091007757588 10.782609027952736 10.308654428523804
Sc 10.879378047273295 7.561839814472612 10.363189112762402
Sc 8.23013954437635 11.50603386459313 10.18373025395545
Sc 6.896834450716843 8.562266169186785 10.192665311504234
Sc 8.397459507004374 6.279064874828491 11.345126528427697
Sc 9.089770461181581 9.154042597070903 11.997213297723164
