15
Energy = -72.3227914 eV
Sc 10.682506709451346 12.116200936891548 8.196951069454496
Sc 9.839809423649646 10.136045402997343 10.083574007837699
Sc 10.692901113631693 7.266383574201608 9.427453008714252
Sc 13.733302301006288 11.538096215733505 9.73567644462509
Sc 12.573049388736854 9.137337809553081 10.872538827797777
Sc 8.548160167818775 12.868696250352066 10.565137114341052
Sc 7.7904810460191785 8.02090901487019 9.728711868188624
Sc 11.49375533248837 12.44286904113356 11.149502561539087
Sc 9.621024816160219 11.397604616354009 13.107354072977214
Sc 7.247958131076659 10.300498073327516 11.610062910878383
Sc 12.491548738912124 10.65931167111889 13.20996301201202
Sc 9.962458646411594 8.43919935867964 12.382148555617581
Sc 12.331433064358158 9.55611532152677 8.042755984488991
Sc 9.462237765772649 9.09824215363393 7.287117506584974
Sc 7.457340775515071 10.95045805962662 8.529020396960886
