12
Energy = -54.88106533 eV
Sc 8.681742039769961 10.356976006044611 8.822486963080756
Sc 6.835344801342393 11.41654236897496 10.805854258067912
Sc 9.57380964139433 12.656057690888785 10.538934440184944
Sc 11.579590590344505 10.457997256502445 9.623058202855052
Sc 8.154030400599794 12.4416959191798 13.18997766901968
Sc 9.395317376272443 10.138985755056718 11.74997660499326
Sc 13.357617296816994 12.563692527634924 10.96185288504885
Sc 13.12185204005806 10.124253425980928 12.308624726669201
Sc 14.565702114129026 10.108514442286584 9.678818772506407
Sc 11.149047149204605 12.301220481192301 13.124373104851045
Sc 14.044047664945538 12.52691551244695 13.869335247269053
Sc 15.884221928210092 11.280552670846697 11.991444694106558
