12
Energy = -54.86431137 eV
Sc 10.173882084947222 12.087403559596309 7.694057817767939
Sc 9.517496193433429 9.809281325337555 9.314297001534072
Sc 11.434127486430382 8.878991730030394 11.250681398143344
Sc 12.585317494065599 10.929451059077897 9.22499878846218
Sc 12.139651138974521 13.907332759665575 8.631569384228088
Sc 10.604122910451306 12.242535162229647 10.76151801845454
Sc 13.38582075799483 13.411338263317592 11.15551279977028
Sc 13.426362226711651 10.727101072937648 12.201160328087674
Sc 9.291509136047301 10.209179276268681 12.63277283595573
Sc 11.493634274745332 9.485173485817416 14.340901443097387
Sc 11.525014208583348 12.303489134408009 13.681582308604868
Sc 9.249421690104247 11.485132144816045 15.117883137071926
