11
Energy = -50.70218761 eV
Sc 11.721730380345537 7.80515080339781 8.904434248810624
Sc 10.520105604043405 7.708736334494321 11.949544084484904
Sc 10.796506030076472 10.277151448321908 10.37671473026215
Sc 12.787811297081277 10.640559747991174 8.170958496944
Sc 8.725642511093238 7.98524834027862 9.483242499674114
Sc 10.069429590951609 9.876961863291333 7.575960486928781
Sc 10.71846756054395 10.477741296240254 13.361726384146229
Sc 8.34078274124948 9.738580033076056 11.888888500631305
Sc 10.438006975659182 12.653374504130122 8.546583279039567
Sc 9.233611313845392 12.562850300471451 11.589098024497513
Sc 7.898040735283594 11.10166012293065 9.251629746008442
