13
Energy = -60.98828914 eV
Sc 12.482062747601447 8.89122068920398 8.508802151411762
Sc 10.54315462575568 6.7814035878304555 7.007891177307533
Sc 10.840742236661395 7.040398157531909 10.060308567382148
Sc 9.747761512729413 9.214844088247288 8.095298496268994
Sc 10.970019637886587 11.822269521041658 8.663718550417306
Sc 10.212809476903347 9.918290167278814 10.99790063286733
Sc 8.253591157041479 11.536029124735949 7.318874514178223
Sc 7.675044311080215 10.50717341865802 12.52874193364321
Sc 8.52048189631413 12.281645074745041 10.277992964096278
Sc 8.168323603326531 6.718644501782496 8.86260968170853
Sc 8.352125154389714 7.698079553764073 11.762993273321097
Sc 7.514904719908777 8.46097156456511 6.570027856045206
Sc 7.251647635416755 9.582279583117897 9.6496332881305
