11
Energy = -50.49259172 eV
Sc 10.927213148426404 11.511999128162595 12.104714901324357
Sc 9.119754315994134 9.178090540863879 12.645977788384956
Sc 7.6741637657052095 11.300396161100494 11.312382886355389
Sc 11.807594268277754 8.665183465106809 11.73067686905881
Sc 12.794669877653698 10.33748839649562 9.582621208727069
Sc 9.916826477050863 10.200432341503744 9.851172276135758
Sc 7.692346992987629 11.20073090393065 8.227652783953486
Sc 7.610781979769251 8.61648816481394 9.8723381425658
Sc 10.92938657272499 10.597163914695269 7.133617745920669
Sc 11.120369795867353 7.961059412547876 8.678078996562853
Sc 8.698547413955794 8.758279128854834 7.05153306070913
