13
Energy = -62.02643701 eV
Sc 9.638662893956234 11.882061553012532 7.74209487347733
Sc 7.406623543154979 9.359494043008647 10.796515397361002
Sc 12.266346056191813 10.232633694284335 8.34709079949971
Sc 9.494039497429098 7.29445680782893 11.431731645961204
Sc 8.034668381830453 7.1237998478334505 8.554329009694568
Sc 9.727856397931994 9.305302393024544 9.238992761207458
Sc 9.759793184863137 8.964525799634226 6.528034440575351
Sc 11.926297760490318 9.034575159777548 11.244380925962108
Sc 11.261815717737862 7.063537770770626 8.876931834585259
Sc 7.195571834106269 10.126255001565323 7.898696397693455
Sc 9.327380005414676 10.170596150043039 12.77098685555621
Sc 7.740751185905377 12.160641717435388 10.299963808090343
Sc 10.545661040988199 11.607587752454501 10.595718368990687
