10
Energy = -45.56513781 eV
Sc 12.3206870716303 9.71178074639592 11.777066918777754
Sc 9.610433204913141 8.209037206017516 12.26300634800615
Sc 9.773711761283234 10.57093599197866 10.417179034464917
Sc 12.382882277838755 10.797451650136237 8.939338253446133
Sc 7.368235214841291 10.696506315820832 8.494433126805546
Sc 7.052748563236038 9.771691456662303 11.448419435704308
Sc 9.912564763293556 12.459151614147077 8.008520276791396
Sc 8.34200563468621 8.048204531032104 9.506455621277656
Sc 9.957986924617066 9.66464845054993 7.483319256672646
Sc 11.340373232609215 8.005684623518178 9.694413890145004
