15
Energy = -71.33440373 eV
Sc 11.867450232784376 12.898266164848266 12.813503433097528
Sc 12.640488012167097 10.228463017477512 12.217960142765655
Sc 10.805875247048288 10.078817012920759 14.336454128255248
Sc 10.583372156710755 13.802554359292879 10.190789134582515
Sc 9.255529139530246 11.668727735798583 12.045865451818171
Sc 12.919189925692761 12.06575021854232 9.980829839217181
Sc 12.275828713575924 7.526911672684272 13.12495777813442
Sc 12.53547549912534 8.440800971174257 9.999654387784641
Sc 9.976125414754412 8.565603782570362 11.806964871182585
Sc 10.85209644524718 12.5521481819414 7.495256325180833
Sc 8.21958409974415 12.437089002433074 8.87545692351247
Sc 10.403565682754138 10.537803363639416 9.572186543306968
Sc 7.644852159485265 9.61959661662102 9.89961289881079
Sc 9.654587966760483 7.674743392811948 8.896581088213397
Sc 8.789813931750954 10.105855119624117 7.1324140264516585
