10
Energy = -42.33972686 eV
Sc 6.203814309443864 7.883007822237572 9.90004487838673
Sc 8.69125761 6.075823851984191 9.900511720818189
Sc 11.178700910556135 7.883007822237572 9.90004487838673
Sc 10.228515197960625 10.807480834601192 9.900210893471819
Sc 7.154000022039371 10.807480834601192 9.900210893471819
Sc 6.203814309443864 9.499507397762427 7.4824703416132685
Sc 7.154000022039371 6.575034385398806 7.4823043265281814
Sc 10.228515197960625 6.575034385398806 7.4823043265281814
Sc 11.178700910556135 9.499507397762427 7.4824703416132685
Sc 8.69125761 11.306691368015803 7.482003499181807
