16
Energy = -75.78852185 eV
Sc 11.194262126601743 8.188385917639737 10.889185056628705
Sc 13.860744938479987 11.200836579047822 14.645559488958282
Sc 12.354670058527695 10.330971097746113 9.191107885635626
Sc 13.900572977658076 9.825943845833605 11.82593230424883
Sc 11.738829777781758 9.22901204390995 13.887585777493626
Sc 14.374105496222258 14.86083627006141 11.09593353374423
Sc 8.843100699153672 14.685720072765092 14.390180524147048
Sc 9.097352375037488 13.12104470661037 11.877470963167987
Sc 9.47517073475225 10.69532176833897 9.380273964708895
Sc 11.284661021179636 14.933003571627076 12.695216433510346
Sc 13.178295705873426 12.72362706124 12.438141470911276
Sc 11.602452846307719 13.23780676797584 9.909015093888852
Sc 10.97925604167639 10.870784999675665 11.734345856831029
Sc 14.568176203328226 12.234325710950433 9.911238938113222
Sc 15.999335013105826 12.319169975302623 12.442175513774941
Sc 10.775362103426984 12.432931802292122 14.379387138755343
