14
Energy = -66.07795176 eV
Sc 7.1677074561955605 13.23890531966032 11.184156752778925
Sc 10.000929386002586 10.165241411422192 8.051137686039983
Sc 8.231615939012473 10.884035606467796 12.605676013261553
Sc 12.074681559535854 8.049335921028732 8.733580532875015
Sc 9.865352818676328 12.026238879617333 10.441241845664257
Sc 7.329504390833014 10.557036102859492 9.74800035356166
Sc 12.684930886253358 11.000268304559302 9.426481071029826
Sc 12.450413093985283 8.960305974872307 11.442429300079343
Sc 14.339094894325076 11.047044796445444 12.024827814647312
Sc 14.801746976562393 8.968874592709845 9.805129405256773
Sc 9.652583761779072 8.919466833328842 10.686290233277676
Sc 12.377316570259948 13.317864786103199 11.5063879615071
Sc 9.582646448730351 13.541807883418167 13.023387513318937
Sc 11.28567635470723 11.074008023538783 13.046893033987867
