17
Energy = -79.47149646 eV
Sc 14.881804471061724 10.387995667943573 9.1477889264914
Sc 9.152982318866535 12.011185755409048 10.530656200255859
Sc 12.284397324736307 8.705347754050194 8.183904699287716
Sc 6.3824774391878725 11.927246493442196 9.302349480576154
Sc 12.154119647229724 11.421902810474183 9.221136316754569
Sc 16.357502547718536 8.846161515299409 11.205665948292829
Sc 14.072633452186961 13.300351733800388 10.336269351057352
Sc 7.378049017446969 14.472589274879216 10.536879297396775
Sc 10.689725113203766 9.35331757626397 10.908374243281202
Sc 13.490729612315258 8.388612146019854 10.878052773150047
Sc 6.565382726233381 12.176224015214762 12.287195669456409
Sc 9.050054587138211 13.78564850593186 12.949690193452122
Sc 7.411511686205047 9.600795471050544 10.925108355545671
Sc 14.478340936967587 10.915300482120108 12.05958419069479
Sc 11.748557325415288 12.053285710353595 12.182333594609345
Sc 12.186256988474412 9.38078588298888 13.549107147131794
Sc 9.151391347490248 10.70916574663605 13.231820154443978
