16
Energy = -77.02942314 eV
Sc 9.52625035481989 9.540101391269333 9.921868967002608
Sc 8.11550690996326 10.485879969747785 12.474456839799053
Sc 9.576509347210575 7.879650563104844 12.483938872691583
Sc 11.116423140214387 10.432756127011459 12.44998556321567
Sc 9.749274698459741 12.474974047215238 10.33140997507636
Sc 6.8505533806286785 11.257648900398152 9.87132995127381
Sc 6.990500685690238 8.229779988494762 10.37062958107255
Sc 9.48731789771593 6.424427029585173 9.86075151032709
Sc 12.039460002838565 8.031336780660528 10.332816638504914
Sc 12.418986468541009 11.163564866377714 9.862741594244127
Sc 8.707266978109784 11.190050623842517 7.527322179821494
Sc 8.70512034321681 8.032965953426276 7.496102693169127
Sc 11.416638359137236 9.591980629548143 7.541000184465626
Sc 11.314608532340937 12.725302792540646 7.653718555315465
Sc 11.438272137518178 6.5568131443378626 7.663921329243
Sc 6.075958363595209 9.511414794102087 7.686653166439474
