15
Energy = -71.47626847 eV
Sc 14.083940535437385 11.306972410236279 11.232668907372636
Sc 12.507987630700612 11.233563534091482 13.859703814367053
Sc 12.580960324416678 8.707371354310188 12.324661249398702
Sc 12.347038533674798 13.740579878506788 11.917221465424767
Sc 12.150538042338539 9.524941213878408 9.0814994754996
Sc 9.829900696367387 9.320992297432811 13.294719080956087
Sc 12.429233493427988 12.762691677728785 9.089817919414374
Sc 11.194784732293495 11.142021774612536 11.280585260081716
Sc 9.69885778255598 13.53297703790873 10.051450514872288
Sc 10.118677559783034 7.932907365037861 10.73506435679356
Sc 9.951407412595483 11.383773344530013 8.068632051591349
Sc 8.999172347078158 8.630766693821489 8.14111631917276
Sc 8.545712081454942 10.530997973961354 10.60464997662954
Sc 7.001809388471472 8.227649056572256 10.29687672404625
Sc 6.869036056016527 10.679636231671411 8.360450227910109
