12
Energy = -54.80890101 eV
Sc 13.813072917652205 13.108673757461498 13.19529269473926
Sc 12.56376604846068 11.773750552654041 15.469302256356068
Sc 12.778439703824857 10.263875494146584 12.841268801823782
Sc 10.901749469400073 12.4010640188948 13.034299620202617
Sc 10.436955272382365 9.895781255284412 14.704818644865892
Sc 9.81133378281208 9.759235313661927 11.851727331318806
Sc 11.936314650190006 9.664477002993827 9.80213970376858
Sc 12.838815349461662 12.344430978692449 10.524110647494666
Sc 9.88485085047813 12.044091378882415 9.928866462232195
Sc 11.440242629327004 11.521749578659254 7.555604080777433
Sc 9.32521850311444 9.588389235245401 8.4567548138736
Sc 8.626724889019906 12.039241518958551 7.123934208536534
