18
Energy = -88.37807842 eV
Sc 14.308075927606927 12.869309584729065 9.078381828777733
Sc 14.590027900596537 14.764512432535698 11.478567302911236
Sc 14.797263499438705 14.029950630510603 14.31382965059103
Sc 14.945951658084198 11.70870732358527 12.18944249674234
Sc 12.759738293827889 9.983418245914656 10.104766120530995
Sc 12.512026870962574 12.766139140445643 11.157762267051755
Sc 10.914116728703407 10.795360346061427 12.310168180835042
Sc 11.927190263649916 14.697214465739114 13.16744137313323
Sc 12.736792981167623 11.952109201245179 14.37578716701538
Sc 9.729892788978372 12.578163098516585 14.2191258729911
Sc 13.158991122076689 9.195917484544232 13.149054761754922
Sc 10.424099663814879 9.49721819947785 14.742777929129687
Sc 12.064998670052725 15.09668030973158 9.789236057587793
Sc 11.322521424180243 12.343494937151172 8.584082192722352
Sc 9.527818750921417 13.119849036910033 11.080854033741826
Sc 8.200195415167551 10.293436976763571 12.6207070784198
Sc 9.552277308582457 10.169101763499222 9.802429879304043
Sc 10.410261380534573 8.086496222754725 11.954856806965532
