12
Energy = -56.23215995 eV
Sc 7.776120664603505 12.21989040713863 9.46291792076109
Sc 10.714774059788747 13.100999168161115 11.045308364793913
Sc 8.897418644841116 11.047869263059054 12.074692280690627
Sc 7.7048875525216305 9.263290797794005 10.09666074143191
Sc 8.531614706655365 9.749637034351142 7.281233608300328
Sc 10.20193992906335 10.755728857374036 9.40481539917329
Sc 13.022823587243055 11.195635520154879 9.895389228305888
Sc 9.65245710781868 7.442612470847783 9.017830545610922
Sc 11.75047786719244 9.100340059697269 7.649336386229812
Sc 11.68300967017672 10.65809984316238 12.607420626854198
Sc 11.739987760075008 8.599580703867167 10.60330677775267
Sc 9.480255164284983 8.121017829814546 12.260365063632062
