13
Energy = -60.53858539 eV
Sc 10.648796556298876 10.02489959148927 9.717490183360665
Sc 13.444856384028192 11.315537500391239 9.19467602554849
Sc 13.021319574321373 9.010275111972028 11.257149123480106
Sc 11.167459740180439 12.69629962355525 10.44461900174076
Sc 13.469911400270979 14.306915687332738 11.136892200210719
Sc 8.63715974116885 11.503428669031631 11.485679777218643
Sc 10.829747501101833 14.64079040152546 12.643194790372078
Sc 13.747270871723673 11.583491470198016 12.075123321725158
Sc 13.384288435033664 16.269987910563604 13.217453088957042
Sc 10.299482353647722 9.105885615451015 12.5745206162235
Sc 10.876828738080393 11.756921644217172 13.369588117214018
Sc 13.099875678362976 13.491773025245912 14.161519865114323
Sc 12.88325362350952 9.804044346755141 14.23234448656285
