16
Energy = -76.76386638 eV
Sc 10.039169043084579 12.763677127835008 14.048241455216367
Sc 10.396732689563631 10.733946509199887 9.155221712683792
Sc 11.808277724739797 11.81698712733678 11.656686222701282
Sc 10.120692060583467 13.665133244975149 10.72383956215813
Sc 11.972036592788516 9.08610438155197 11.250291478923987
Sc 13.88829703133605 10.942128856242306 13.668125435377084
Sc 9.207835866530607 10.611248792787162 11.729925335362934
Sc 11.740287811606379 14.646738312915758 16.307885941154304
Sc 12.160605406222007 11.864514491688514 15.945229003095392
Sc 15.440723884122589 13.295560372331197 12.784381835565842
Sc 12.312573435782674 12.773660974088065 8.638399681995546
Sc 13.442473203179958 14.193860738227457 10.664780701827222
Sc 12.701052399281313 13.952959632507522 13.63524958379652
Sc 11.044566358411227 9.869857271566168 14.03335485976144
Sc 14.348752816780891 11.34214008834097 10.492350253145055
Sc 14.600242270527241 13.466508629212322 15.766090002393993
