16
Energy = -76.24382709 eV
Sc 12.945402319661257 10.399321867354223 11.272385211460785
Sc 15.110165769967491 15.282513749166188 12.53567560819136
Sc 9.841485499871805 12.248629852594897 12.560436446711993
Sc 11.400505435262184 12.584466022199578 9.832725659889139
Sc 13.993430327041564 11.481899355083412 8.895347451480019
Sc 8.808632355799222 10.856264521296916 10.079380366087824
Sc 11.443291101899241 9.752808445786254 8.96865468384748
Sc 12.482590848581713 11.142896683839945 14.020501045700927
Sc 11.161245765689213 13.239014886935001 15.410570114293213
Sc 14.937428324976192 12.396873978430957 11.949586115510233
Sc 9.688619509796103 10.538935277120101 14.969810836308959
Sc 14.008101543163137 14.375901633730509 9.93317213832154
Sc 7.627344720501686 10.266814435002555 12.759590416565683
Sc 10.362072281794392 9.363676143035802 12.11753232388655
Sc 12.449772549339787 13.912797136677277 12.487806348014663
Sc 14.209476959283942 13.47304440401522 14.809316257664678
