16
Energy = -77.13192745 eV
Sc 10.64373414031124 8.681097819910416 6.6717071529982
Sc 9.361940475602676 11.075020511566432 5.731300484430102
Sc 7.87745094174227 9.127648306797923 7.6992026708334755
Sc 11.625493182855438 11.150597814735686 7.834633518695356
Sc 10.040466580574515 6.431053134757905 8.387710394166023
Sc 8.747048650833419 12.000073790449713 8.539389109161
Sc 12.391529932059955 8.171827026282903 9.147256617172896
Sc 8.206037929744044 7.594614448579884 10.328607430457987
Sc 10.046166296838521 9.646098857877359 9.854072342000295
Sc 8.098380821023873 13.38568878604117 11.134934646488084
Sc 10.82232877526639 6.692281188329079 11.308923173124265
Sc 7.149893628872576 10.425531364701532 10.700344818310118
Sc 10.975526000482782 12.354859384211958 10.642236841794743
Sc 8.964498138266348 8.39422592247712 13.012013429275536
Sc 11.681984513875072 9.479887860599142 12.190652101299815
Sc 9.220836062529202 11.24280985356014 12.670331340669394
