17
Energy = -81.36227584 eV
Sc 12.013480418424143 7.295419216554603 11.054766621964335
Sc 13.355134342887327 12.243101979209847 9.302137302046559
Sc 11.121255848299086 9.92840973698618 9.886317975176729
Sc 13.808420432390845 10.074092112724989 11.622260988450238
Sc 10.383820907542026 7.1396714535691626 8.684456142364773
Sc 10.26465668633738 13.044858788224564 9.325104786518121
Sc 14.582732423619486 13.09610155543819 12.047759658048998
Sc 12.4399923667254 14.883231046459846 10.695250633177944
Sc 9.104537123966177 8.032965571942967 11.089607709941012
Sc 14.517117527455344 15.987215615727255 12.67985013048668
Sc 11.68426641840718 12.243574939569617 11.814106171951833
Sc 9.553243609680838 14.317403898114518 12.034708320202757
Sc 13.165785540305096 11.52938801577843 14.325101425137918
Sc 8.831580249135753 11.338557915373759 11.609394886552856
Sc 11.014121190387728 9.468219013832135 13.026319839717624
Sc 12.29295227063101 14.453241761336042 13.780987742784278
Sc 10.113250863225566 12.269794703881571 14.336116072183822
