10
Energy = -44.92050195 eV
Sc 13.428191849657736 13.649012154783087 9.234399903058753
Sc 9.28227702892442 10.199689022950379 9.945674519079581
Sc 9.543256845001515 12.136525612560856 12.181382590307317
Sc 11.332323692970412 8.031484919920864 9.350479440290425
Sc 8.28524530762962 9.628407735235927 12.730982646301722
Sc 11.180422925522876 9.582879251328917 12.009290155537526
Sc 10.583358300220025 13.36192975581006 9.69477971787391
Sc 12.469248138091507 12.675181240992892 11.824866881008257
Sc 9.244805518700215 7.36131549801501 11.163542914350876
Sc 12.261045171207824 10.98064970228685 9.481031116309103
