12
Energy = -55.17024343 eV
Sc 8.74887805686856 12.436715191217074 6.039864110405909
Sc 8.700045389920612 9.525834066020133 6.380654182788493
Sc 11.099483799223934 11.152926689397567 7.158725030184823
Sc 8.549599643906589 11.224291324690892 8.719250134024657
Sc 7.469771166692496 8.381627334308789 9.09798202938556
Sc 10.326873213197192 8.81791230562878 8.842712631477385
Sc 11.804980432217082 8.823373285724639 11.425091086867145
Sc 9.534845729545221 6.811075315079962 11.070081736476897
Sc 11.148190977840958 11.570098944638017 10.267863073971462
Sc 8.992817664448411 9.721888526708057 11.515888229046464
Sc 10.139721629280656 8.0947479665226 13.74486208390136
Sc 11.00397049741645 10.958687250621962 13.256203872027855
