13
Energy = -62.96407733 eV
Sc 9.30650368927719 9.306821855385197 9.306953569343433
Sc 9.306657035141864 10.877015519247646 11.847092924699208
Sc 9.306684997957868 7.73622187084142 11.84718074407886
Sc 9.306536242793157 10.877068329009658 6.765927156827633
Sc 9.306545330649175 7.736022657580386 6.765789529804565
Sc 10.876961474283135 11.847250105143814 9.306666737139276
Sc 10.877108567680423 6.7658142042255 9.306591008206638
Sc 7.736198306965426 11.84720886163203 9.306625255363148
Sc 7.7361219782121164 6.765870091419368 9.306526806561159
Sc 11.84722269710734 9.306601118921163 10.877086054840003
Sc 11.847286064494984 9.306569373514806 7.736216380097587
Sc 6.7660091067975205 9.306647364029722 10.87696281217686
Sc 6.7658799296486025 9.306604070058217 7.736096599852841
