13
Energy = -61.4326096 eV
Sc 11.039806508359055 10.186614942918123 10.442040394806572
Sc 11.966191210180261 7.814555586688634 9.064204668859372
Sc 12.49324005205596 8.658398408948115 12.334451839847912
Sc 12.107171403652417 11.953446992221785 12.37177044491446
Sc 10.208459841599867 10.117466540027577 7.591531950742711
Sc 11.386459907407271 12.723924853155133 9.11901198669153
Sc 9.353006408965616 12.494877103661059 11.276684847658945
Sc 9.933017643910887 7.524769309067505 11.218141135710319
Sc 8.467678963263065 12.337058742770541 8.389574910247141
Sc 7.32016229767413 9.785135240813515 7.177793376037988
Sc 9.908148751502024 10.020992154279638 13.068481144629413
Sc 8.104018475445136 9.84380802999978 10.062549267597747
Sc 9.031156134356843 7.537505260260633 8.333208273721754
