17
Energy = -82.17104475 eV
Sc 10.43243056503983 10.012098195437273 6.6176457091511205
Sc 9.077845486349867 7.753854813118353 8.457649968599101
Sc 12.012390380506904 11.918183876167918 8.711713129177188
Sc 9.030219151809924 12.603394924630262 7.6483526590750746
Sc 9.833882648413878 10.241621986669571 9.347064965659357
Sc 7.43760080172653 10.1972006211206 7.5138869591963875
Sc 7.313879747816644 9.618150197865537 10.427517533671159
Sc 9.255692694098304 12.731278206823582 10.60366578278299
Sc 11.514162783195687 10.942159103525416 11.832510690765666
Sc 12.250790448537177 8.840837796567913 9.151755468034661
Sc 9.820868767967932 8.33059317164352 11.717586976125936
Sc 14.302475230072519 10.523812279032786 10.694650990133994
Sc 11.112843920512244 9.396446045227885 14.300859120357694
Sc 6.582342679124459 12.330040465785698 9.632930850455015
Sc 8.49978708614218 10.899163781113108 12.795368435371815
Sc 12.878855280164256 8.316148642798138 12.124582251484792
Sc 13.890463360850344 10.59154692480161 13.66878954228687
