19
Energy = -93.09535007 eV
Sc 12.192002795351543 9.228192850979609 14.77866507943881
Sc 9.58191663164853 9.214723598317057 13.252234333637979
Sc 13.976602136287653 11.5876007597441 14.15908160230301
Sc 11.858201531287776 7.537348259596824 12.223082166013743
Sc 11.987918398365803 10.655099291300111 12.031198999396043
Sc 10.778670840610102 12.002970648765906 14.369268393566948
Sc 14.518342233942882 8.971690260503564 12.774328403262844
Sc 13.421959754195203 8.792220981569567 9.979210744085698
Sc 10.225315840710843 9.228469862333037 10.076011887363556
Sc 14.628738647253044 11.612865834538539 10.993981794684823
Sc 8.891328452933996 11.737431784359462 11.669690849707207
Sc 12.760239452461992 13.836119703366558 12.472607503297173
Sc 12.322767082093117 11.260249818575549 8.877976026133632
Sc 9.104677842993734 11.787223838837837 8.614846062243354
Sc 13.572344452247478 14.207447650743944 9.551622781442944
Sc 9.754852612030811 14.492062150989003 12.765370859570105
Sc 8.273878392715515 14.40448762813471 10.142897501061857
Sc 10.898627826701691 13.354014741941521 10.256462919121644
Sc 11.371955420627817 16.085366049491007 10.775954174403674
