12
Energy = -55.16511538 eV
Sc 8.33882127442038 9.321566637915321 10.780146093925824
Sc 10.489355391096268 8.542099932183266 8.971543649546168
Sc 7.797880831587663 9.424092404588015 7.758044721507259
Sc 11.427675913709114 10.062638018121323 6.904413943177597
Sc 12.076066309368416 11.148400346263836 9.723588269685507
Sc 9.923122116610308 11.928606791451978 11.54244838034364
Sc 8.955301667018473 10.405524453169887 13.598735132278623
Sc 12.63608290544799 11.05046221097791 12.742411807689068
Sc 9.351673582273024 11.454019815774855 8.716234634694414
Sc 6.970701178631947 11.680360709496743 10.650797768368825
Sc 13.44239324279157 8.786163923859485 9.83890798787784
Sc 11.06639652691071 9.023276769460676 11.79640916741249
