13
Energy = -60.27923177 eV
Sc 10.144758616910174 13.526069669300886 9.591736520712324
Sc 13.30153605861566 13.066343669336142 10.33146092932461
Sc 8.595059534438562 11.154712206692137 8.616210626161756
Sc 15.802339442537011 12.120736695760398 11.485524362540264
Sc 11.455403988977784 10.922105294563544 9.632362444238979
Sc 7.768321035763338 12.410289269411088 11.202679183287211
Sc 13.17851174583304 10.758948711277018 12.250404648415158
Sc 10.52132236290676 12.210286516246812 12.336642178976346
Sc 9.064974459097717 9.747851261741847 11.259705969024262
Sc 8.224479983120416 10.977340751388109 13.826804816804241
Sc 14.406212176589595 10.204406920162173 9.731669903457936
Sc 11.895733786431558 8.393046969309157 10.957097520078559
Sc 10.755323627800067 9.385344755672417 13.61404225130213
