18
Energy = -88.52563761 eV
Sc 12.154703910320732 12.347676591380177 8.66903358581885
Sc 14.005291515927658 12.836019780388657 11.35739291532272
Sc 14.037158726491008 10.242004351517213 9.959574604253916
Sc 12.005900086994306 15.012057324357105 10.904297402571597
Sc 12.987181344276484 7.493879907322232 10.765951210121395
Sc 9.381445134356053 13.999428630469163 9.576553976054429
Sc 11.974892416473978 9.038078686417226 8.183493133632082
Sc 9.27762981103298 10.798323290376368 9.076164523767044
Sc 11.032593966533945 12.370558232245997 11.312141732375803
Sc 12.219839223625844 13.396795186820853 13.728552975328837
Sc 10.045662801419953 7.293444796496457 9.93077058023357
Sc 11.249501859464255 9.67692483533793 10.900580488837825
Sc 7.872598951241965 12.160122441191513 11.449173967793563
Sc 9.491200242925018 14.381614425960711 12.682722946052484
Sc 13.054718975715693 10.361210715281139 13.026022261731764
Sc 10.654662186770224 7.786481409231197 12.911373580974825
Sc 8.318272378163263 9.194145959687125 11.655539163197842
Sc 9.888755645568414 10.973114568627407 13.595440406746995
