19
Energy = -92.5885571 eV
Sc 14.061567205235674 10.554950194109349 10.119922682925457
Sc 11.193631761628845 10.805681337328359 10.355094364797221
Sc 12.842480332670712 12.810646395856935 11.660799138334044
Sc 11.635207112667176 10.318459358694975 7.618961471896332
Sc 12.51017741022914 8.645114460150937 12.065045668541456
Sc 9.766652725643178 8.219844713375531 13.136075962886768
Sc 12.575107190829227 13.045883667544684 8.789014825553839
Sc 8.795009367709039 10.927046199957037 8.638334217232314
Sc 10.200176641130028 13.038218211012994 7.112511979007496
Sc 9.898291117043113 8.37046060614245 10.03952283573323
Sc 14.030916084212087 10.93736594447849 13.572306133681336
Sc 9.954026314200808 13.359680455200015 10.330248998406034
Sc 12.236799959915505 9.068818913627851 15.109964341740453
Sc 8.47854810983104 10.682687339297658 11.647049571956897
Sc 10.961170638693961 10.92090678635963 13.40565563991153
Sc 12.083453374929782 15.482502796423548 11.223755034797243
Sc 10.684490447089113 13.971534818346155 13.408047800817144
Sc 13.63900947550994 14.328609673000003 13.862655557230939
Sc 12.260680397859351 12.288938330357144 15.617112061133998
