17
Energy = -81.91890217 eV
Sc 14.405296689915348 10.85457589106026 10.953253404853536
Sc 13.330647772461631 13.808152369183425 11.058884986949638
Sc 12.466879887502714 11.954331669866106 8.674211256955681
Sc 15.426021436762287 9.853008117662808 13.78690461978511
Sc 9.847439836182083 13.013083503466381 7.226459760709821
Sc 13.475564539495537 12.119930449160606 13.737496724913262
Sc 12.06750787973997 9.067572009408947 9.844493008149287
Sc 10.327836963280243 13.89942393825051 10.040905229970969
Sc 9.516943100096235 10.858565861207257 9.26920325660016
Sc 11.497638546279257 11.488613902996812 11.502880171331245
Sc 10.925479881341452 13.913761821191002 13.154209934605584
Sc 12.663116158238212 9.074723904260482 12.95665530385025
Sc 7.564616563046488 13.119973559346922 9.208514515297688
Sc 13.145664615525655 9.95556822105796 15.770801960376666
Sc 8.588403940658239 12.124151214953239 12.049459287854175
Sc 10.528932570219805 11.025100256513205 14.329650007289677
Sc 9.662057123153904 9.170391958366475 11.94362466990361
