18
Energy = -87.24761977 eV
Sc 11.931243681399462 12.383403774088157 7.091549056288554
Sc 12.969147695903146 12.109875971516422 9.940713529175092
Sc 8.94922369576965 13.18230176971315 7.087213721739887
Sc 10.694871049977356 13.897001928365903 9.35538276009123
Sc 9.963452140852853 10.892739840205635 8.60258144013679
Sc 12.58047890951583 9.325608468917313 8.835017059984475
Sc 12.866461409517372 12.061795311593075 12.996405000360424
Sc 13.875393088859097 9.683931763260196 11.454934827399864
Sc 10.68408128273309 10.512808225240855 11.415039744830276
Sc 10.477285587483358 10.777603103807193 14.368616140032621
Sc 8.079554999987726 12.707511238604237 10.127547049015947
Sc 13.266807651719143 6.914841138675539 10.617667982655018
Sc 10.130467985138951 13.258974652964218 12.333435493237584
Sc 10.359610411169218 7.778656813633036 10.288392721891034
Sc 11.862093266935112 8.148303332891466 13.016158550408454
Sc 7.861838990432616 11.321296401644725 12.958201172841573
Sc 7.752356889589382 9.68721878393287 10.41241598669092
Sc 8.882147315586398 8.498183991462257 12.95060342564976
