11
Energy = -50.41838681 eV
Sc 8.881748514834001 12.146556613570635 8.727764514350802
Sc 11.11985803015043 12.25926176389826 6.813326537059854
Sc 7.944576984443998 9.138889993461094 9.534053575664888
Sc 9.746948972802752 10.711660995354137 11.302442997731069
Sc 8.251642327530503 8.416868297886959 12.5136679346376
Sc 10.675485087177545 9.91705037503251 8.370266308807112
Sc 11.704177023973438 12.598617306769944 9.646777672846326
Sc 11.169281018269293 9.209903088462118 13.37435115548239
Sc 11.960822938658767 12.139317040927072 12.646443549321503
Sc 10.466969319655666 7.856689491808218 10.70336462882749
Sc 12.634379497143527 9.960149157957286 10.808495986682598
