16
Energy = -76.68088822 eV
Sc 9.4420571526858 12.590361592677457 14.886371840263596
Sc 12.550489167143697 12.09405461105027 14.929850764053834
Sc 8.564116381448697 12.085325900170705 11.923550121146887
Sc 10.062903828988176 13.642949244537041 9.535053359390933
Sc 11.316224373213426 9.036855697658217 7.969189524840473
Sc 10.673187448164267 10.339738898688474 13.426079715878682
Sc 11.871529302832753 11.955758581722874 7.684042089406196
Sc 8.777317683096136 10.449037410493531 8.827276098726218
Sc 11.044999630889123 11.080707248410045 10.450947386361266
Sc 9.350897116802663 7.4869139642034135 9.380718987490882
Sc 13.7299162444589 10.250185690720766 9.295855025760835
Sc 8.620908713538265 9.12959289269258 11.647495894435005
Sc 11.798636882756199 8.309164783865906 10.928839441105644
Sc 11.19291704031421 13.343093523982029 12.529924651016653
Sc 13.198461442158871 13.182210775856591 10.113707404220213
Sc 13.429363324611584 10.788794958385369 12.201896201053552
