17
Energy = -82.40750192 eV
Sc 15.875030164083574 9.368252099063382 9.443761950333695
Sc 13.255434581676559 8.408451884233738 8.41380107504632
Sc 13.800616787722024 11.216790310390865 8.519137219698706
Sc 14.044738808980092 7.984025604026276 11.354812028241385
Sc 12.198721893113376 9.850155750039093 13.560546331927688
Sc 12.730448832103413 12.984570911711637 13.406817202494642
Sc 10.07180510711147 12.076717871146627 14.586887378909474
Sc 10.616047930673526 11.689839440936934 11.70167974820297
Sc 13.891371621959994 10.937696666789208 11.315980623424336
Sc 12.343806209561459 13.461318765367695 10.187572593895592
Sc 11.369251904944882 9.121348078479294 10.582203347559066
Sc 9.15141632327777 9.522045479180559 12.96405541192172
Sc 10.222044978613233 14.464926533467816 12.477733645690183
Sc 10.915863160098407 11.212182792541295 8.458760200973389
Sc 7.85723602642672 12.371007651678289 12.416000767875845
Sc 8.403570381398282 10.439219864691792 10.057183326445506
Sc 9.148714213297342 13.422296362544616 9.749409657200712
