19
Energy = -92.29361364 eV
Sc 15.081312022166625 14.634484288056427 11.969585284268755
Sc 12.596665419753949 14.073420923074357 10.212688710438217
Sc 12.634268258837393 16.319945419441616 12.450793548858071
Sc 14.525135309104828 11.647058299261209 11.382168563951682
Sc 12.769080566333047 13.523775474653592 13.442879586222643
Sc 12.670913381697856 11.219301239256588 8.803816768142665
Sc 8.414503882987272 11.410552376350514 11.623059565028035
Sc 12.850725603390964 8.943079646732588 10.988044143231829
Sc 9.949812457606729 12.735990238552528 9.210298006487584
Sc 15.49666243742356 12.677049019886743 14.222307174777582
Sc 7.813054028433115 8.315793785033216 11.094642290063797
Sc 10.40458085233025 6.839603871392052 10.756986121645708
Sc 11.449661082533588 11.551082039963863 11.512565368826808
Sc 10.069446428352977 9.575459191456089 9.598836060432987
Sc 14.550923110715386 15.587152027384823 14.689677155736165
Sc 13.049696063298017 10.379536902081455 13.822496881798108
Sc 10.190185042232775 9.033675455738543 12.74454413505194
Sc 9.995260623945649 14.194788363321278 11.989622883284953
Sc 10.131386600602077 11.869694928668096 14.176112479847632
