13
Energy = -61.44430438 eV
Sc 11.64504957681102 10.210727947595142 7.591231188225069
Sc 11.907170732010007 8.03881460341512 9.757390581478976
Sc 8.921199369955113 9.172897577656663 9.604874868220815
Sc 9.281296437290136 12.118364023803137 8.384392330342203
Sc 13.87760895096667 10.31857997816991 9.68454734193371
Sc 12.168995536378565 12.970721667950547 8.667811858799825
Sc 6.986477703706363 8.748622104293839 11.84675930685114
Sc 7.354953387697433 11.520823950308822 10.643263815677258
Sc 9.817113679937279 7.617569127208624 11.988543559094843
Sc 11.196924319239349 10.880505768511378 10.334202860444838
Sc 9.764605702180276 13.294747881265389 11.04988518151372
Sc 12.358392542511925 9.248537491483958 12.414763699145626
Sc 9.27619213265163 10.452486157984561 12.601145848369923
