15
Energy = -70.90856644 eV
Sc 10.459818288614864 10.334747287982742 13.223212455697004
Sc 11.52794856045989 12.660860407530404 11.8709767398384
Sc 8.603328017029208 12.019449561837819 11.322326096570945
Sc 8.429966630071108 8.791305468604575 11.711834272885982
Sc 11.28197687162925 7.766073207763317 11.603667051994924
Sc 10.601033311419632 10.257498242375483 10.12502528160968
Sc 10.58659746803365 13.228177018485068 9.198131086505983
Sc 9.092865908440228 6.105579062501494 7.087495361052761
Sc 9.455926624114984 8.986677313148522 6.141289670465118
Sc 8.54866148180976 11.360636214591398 8.131300722321846
Sc 8.176082842710652 8.404695483057395 8.705400313586068
Sc 9.30591328321261 6.119755562705961 10.136450877286387
Sc 11.138430858837943 7.750509590326836 8.344191702848272
Sc 11.43139721729263 10.8419785308811 7.33238099127838
Sc 6.3654939463240385 10.377498358208316 10.071758686058402
