14
Energy = -67.20765975 eV
Sc 9.210551436372326 9.244286666536675 6.313481963752133
Sc 11.992706252591848 10.001473230909657 7.448235830196295
Sc 11.036277299324837 7.146125598519917 7.667647522899938
Sc 7.913879913423367 7.082498385882336 8.168672476578692
Sc 6.9730550768618045 10.195696541850543 8.866278432047478
Sc 9.560188614883398 11.982699633100847 7.78470840992232
Sc 9.709173621000922 9.302106337723734 9.165255305343678
Sc 11.484832684085553 11.533159151574376 10.17470007414566
Sc 6.513648905566402 10.597788210747323 12.002645684301362
Sc 12.309389384241397 8.511913447366556 10.14239673403486
Sc 8.569191490284433 12.060662549322487 10.616303417600278
Sc 9.8440254611581 6.623850765574304 10.55422498630743
Sc 7.2170145911609405 8.015753483853436 10.937099116532762
Sc 9.547623384230882 9.583544112223988 12.039908161523314
