16
Energy = -75.67728013 eV
Sc 15.991120038395252 12.38747063044993 12.51344579623605
Sc 11.77064750783026 14.751310800179352 11.028626981712216
Sc 14.751502163309226 14.79323877251481 10.310414717671398
Sc 13.37096048796632 12.332043465789116 11.040433723872688
Sc 11.120724515443078 9.195584409279626 12.578886770169188
Sc 13.918076663627552 10.032521787255087 12.981694628413115
Sc 12.285583291996899 9.751620786702107 9.99887952529535
Sc 13.530635006194789 17.08303014693755 11.594555029951742
Sc 11.376380282517237 12.256245298343783 8.685067783639555
Sc 9.272387630594451 9.699223554992694 10.188237760916525
Sc 10.444295731580755 11.87505298934613 11.342263041456786
Sc 11.80578253599341 12.156081911843543 13.79569017378049
Sc 11.989445487356276 9.802174223329903 15.391867692439348
Sc 13.907747954810336 14.401261626569012 13.17552635847813
Sc 9.034717803370755 10.645567536951623 13.77320460445982
Sc 14.3979379003281 11.968486599825837 15.158336173299102
