13
Energy = -57.51920901 eV
Sc 7.381996972898663 8.047335531297234 6.011759310128352
Sc 7.757445775608629 7.900906257900735 8.936601150233814
Sc 8.338691482287642 7.9923627547779565 11.903383779730989
Sc 10.1186812097682 7.998062266333505 7.096657878135257
Sc 10.521810251614228 7.920247988205257 10.05622706843252
Sc 10.956286475856283 8.065523041046921 13.079255465409501
Sc 7.3689326787757095 10.792366990549233 6.013119610331111
Sc 7.739012762075826 10.929252745276324 8.944643679107436
Sc 8.321469183309286 10.836389464618794 11.909354540241825
Sc 10.099816357694547 10.87058857383688 7.1034008718968
Sc 10.503607532716929 10.94461727220251 10.06245250618402
Sc 10.93953424456423 10.79075514499075 13.084177123020659
Sc 12.487816292941792 9.446693409188088 8.33406757692327
