10
Energy = -45.23000591 eV
Sc 7.470143105342481 10.757285998441535 8.21108046048136
Sc 6.149308100528629 8.174752977154284 8.70223765988267
Sc 6.442288758684487 9.165176718735294 5.888308230061976
Sc 8.061733842244239 6.853478160958446 6.898655772731575
Sc 10.334679476248686 10.187572025365663 9.264333460095783
Sc 8.049109806238292 9.295130344266207 10.887554074922349
Sc 8.466960012355992 6.535211133240011 9.959460858687024
Sc 9.381822343941018 9.436069028146138 6.406820471614116
Sc 10.753339544260204 7.4275103314550295 8.33676171899211
Sc 10.724295141112663 8.001493413193858 11.278467161574458
