16
Energy = -76.85103722 eV
Sc 9.464950830243472 8.268105482788664 6.038793609299054
Sc 7.391390134013326 10.243406345642912 7.054893323941944
Sc 10.299414983025247 11.036224960969452 6.931744355575242
Sc 6.4200779453112435 8.159100809261686 9.142823337227878
Sc 8.470930917467754 6.2290575569006545 8.032125814233236
Sc 11.404306564344367 6.960444659065857 7.9551549062175155
Sc 12.339435319266691 9.708109002198725 8.862567566150338
Sc 8.26209602370093 12.986398739136236 7.994888137207059
Sc 10.314425253230336 11.786194220087257 9.910447292632947
Sc 7.2470690457950235 10.97483722964867 10.048651420368252
Sc 9.369250793291762 9.002059973588015 9.029757098249119
Sc 12.273291874016532 10.42271402174919 11.805296475402912
Sc 11.415287275921559 7.68126959488636 10.89692522748162
Sc 8.417464326977532 6.870362129632185 11.001193670036194
Sc 9.332927532371444 9.631251148778416 12.033120416635784
Sc 6.388862852478514 8.851645797121593 12.072799020797344
