14
Energy = -66.14578891 eV
Sc 9.464198465390881 11.172584184653207 13.171730750123437
Sc 10.188302196692673 13.812170984927342 14.006404160578292
Sc 13.19164347009906 9.59444364634134 11.533943503512223
Sc 11.193808607908013 8.723213395405809 13.559804442512812
Sc 11.607902265571612 12.093770478126705 11.188967934480829
Sc 13.44784854448249 11.757560480154785 9.018959162583387
Sc 11.906477094230544 7.027456685236047 11.084762137202691
Sc 12.175825942860248 9.01052861326052 8.773345724441212
Sc 9.336310544575685 13.71791157067606 11.019880946299082
Sc 12.318667201819649 11.606596612232126 13.985374114475562
Sc 12.098545006367077 14.757198890909594 12.064086751983972
Sc 10.167756088925074 9.364443120985355 10.854782042763002
Sc 11.623131975692708 14.220930133380374 9.113171186608156
Sc 10.412449255476494 11.562433088882608 8.596212434706795
