19
Energy = -94.1200878 eV
Sc 14.527047521738396 12.65790975634487 10.641758791105888
Sc 12.29573975960074 13.364128360566253 8.58246014502743
Sc 13.679418161016356 10.61620108997306 8.424150559470897
Sc 13.182577286199699 11.77347058722837 13.310449904371042
Sc 14.230924609249708 9.626304001404591 11.365796538468642
Sc 10.538563114881555 10.806713658979579 7.872716478811012
Sc 11.906337586676653 14.120226973468096 11.625239508062647
Sc 9.438860593264346 13.126500545906943 9.90045231517605
Sc 11.937564907305584 11.327542776403149 10.67920136559411
Sc 7.1736815095190485 11.775742424225395 11.723950013471677
Sc 10.044027360355086 12.041080366713405 13.127519637395185
Sc 7.441562417930161 10.940407556996522 8.693146401975993
Sc 9.31637103812608 10.090413583026677 10.75552976817533
Sc 11.484090954756372 9.111124008549663 12.913540951485693
Sc 8.804991651904343 8.201784218727829 8.550735985177255
Sc 11.827653897663891 8.324182013254402 9.689428288438734
Sc 8.323835248783498 9.358475677234766 13.395867546433474
Sc 6.751927094967013 8.772937734990839 10.793693065210842
Sc 9.349726164023998 7.226418893345209 11.451530966597357
