12
Energy = -56.51787445 eV
Sc 8.248258893693638 9.09477656448174 6.263561762516182
Sc 11.126253178514236 8.869013170226465 6.873953194109943
Sc 10.410085110223315 9.912667143195655 9.360441147247915
Sc 7.173195652939745 9.431472325171882 11.417942136990042
Sc 8.915628241015844 6.718767405471527 10.926073202208103
Sc 9.573405523483906 6.5128318011891855 7.737687251707753
Sc 11.539947692279727 7.392768093646648 9.75763698975439
Sc 9.387311537170007 11.581642471612062 7.373952129585066
Sc 6.764173921471509 10.89725459256763 8.540298330692636
Sc 8.724261810773898 11.790781715449763 10.559182280050623
Sc 10.048123779002605 9.207116103869133 12.034996138648433
Sc 7.869308659431684 8.37086261311817 8.934229436488662
