10
Energy = -45.42126022 eV
Sc 8.299362326806545 11.949824552633137 7.75627419864965
Sc 7.06587586490597 10.052690736041217 9.57613676852095
Sc 9.726607128073928 11.278042733480884 10.320997950834405
Sc 11.24400145686219 11.799811442554137 7.74860888300193
Sc 7.893185937621576 9.594371782180982 12.319405367842183
Sc 10.519761353084341 8.662483162387863 11.466926256334943
Sc 8.322395073106945 7.369582130042214 10.246373975508625
Sc 9.659861108359655 9.209623429490975 8.183137045601763
Sc 12.367179362106873 9.588023095101525 9.32740775923292
Sc 11.16220036038534 6.771571520792481 9.314532259551367
