10
Energy = -45.48682005 eV
Sc 11.840685272314964 11.189074386820815 11.875112296756258
Sc 8.481842227843421 9.128519842466623 8.44403187053528
Sc 8.517408673155238 12.070293626137547 7.803780815901824
Sc 11.235680655446615 9.287575368481928 9.633702624867086
Sc 10.638834405018759 10.35518596598091 6.757850757203603
Sc 9.666761597768714 9.976452425389 13.56186879004762
Sc 9.09062898906592 11.020592323807772 10.684291879157888
Sc 9.05855707837422 8.08569422943321 11.304410754010705
Sc 11.26888036094779 12.229273504739876 9.012945898543771
Sc 11.800062148187838 8.256679734865214 12.521345721099296
