17
Energy = -82.14783561 eV
Sc 13.00268398270647 10.080616544098271 11.516398333020117
Sc 13.117034837419205 10.538159178382276 8.389703815124964
Sc 11.316325087252954 7.422648236415656 11.91414572263019
Sc 12.596212699777816 7.817493162771969 9.32051491939696
Sc 10.618898130868608 9.71665805310802 13.593746954339357
Sc 10.94944073201971 8.995235223975175 7.215651896478265
Sc 12.436272637295483 12.828229080151258 10.053011446161621
Sc 8.520639004928478 8.18936400829607 12.250683763098504
Sc 10.211889609414492 10.192916008455896 10.198401552119618
Sc 11.187686410025993 12.420061240441662 12.659582586969329
Sc 9.357254894701986 7.334925203946146 9.353560410910118
Sc 6.890924395674711 9.25651084442574 10.10476438414021
Sc 8.151542343150677 9.672491962496833 7.501736614459106
Sc 8.154405031980486 11.302687183386857 12.235884954815226
Sc 10.316083258912629 12.038838963663798 7.690830544060004
Sc 9.611340689288289 13.426007204159696 10.423851850913342
Sc 7.466019841096828 11.956401895074626 9.157554831244317
