16
Energy = -75.06711283 eV
Sc 14.562415687148599 11.59801916786394 12.636144351927213
Sc 12.808469646258715 11.669620639607183 9.895353140582163
Sc 11.579770889211629 12.270944935152947 12.577362074744794
Sc 13.572235398845269 14.311534123968912 11.473758067758071
Sc 10.885464630947927 15.209639723048651 13.111815168314003
Sc 8.893940739101643 13.223104277926227 11.968121182821292
Sc 15.781007077024476 12.758825238318236 10.175469649418654
Sc 13.309030356021102 13.750271475709928 14.486235324014883
Sc 9.999476672015314 13.064990234074578 14.906100230640883
Sc 12.543481360813278 9.348005217964984 11.943760798420204
Sc 10.100220991383923 10.366299303603666 10.574200364354704
Sc 14.941425507055047 9.626440466328573 10.186274832369133
Sc 12.152275592192908 8.872966872592418 9.01362602222882
Sc 7.966588001157641 15.098665081986068 13.884523067484746
Sc 12.535509867293284 10.880342100094321 14.93096405779171
Sc 16.118241559609118 14.13122093923405 12.910964626382551
