11
Energy = -50.2976667 eV
Sc 8.059678967381908 13.73944136233279 10.21135717237914
Sc 10.274673957696868 11.819690017936455 9.334969669827604
Sc 10.859346672395386 14.437637972887678 10.721075082279144
Sc 12.763604305861424 12.218337964369622 11.262879661479543
Sc 7.583908247202213 10.8497342911318 10.296988919589962
Sc 12.551734955963617 9.670004489301178 9.831934588523097
Sc 9.715103003355024 12.007083837073516 12.106187856792488
Sc 9.881545450356096 9.07846228198824 10.887105477817727
Sc 11.942884381968355 9.864079595681563 12.810577132288394
Sc 12.567080191105122 7.369355570566913 11.547333275537826
Sc 14.614902918756844 9.566860161022975 11.818067666717264
