15
Energy = -71.9349637 eV
Sc 7.459580559198551 10.296301368481238 7.195955640031598
Sc 10.241707473200371 9.28077028988154 6.471325322750666
Sc 9.788895404290743 11.909837655532664 8.205865498006728
Sc 12.18174406573441 8.861673300679739 8.860793438833333
Sc 7.229026279310357 7.5592533012630465 8.56689142382316
Sc 10.169289680249681 6.723628615245768 8.101913196255596
Sc 6.914616481071109 12.946935025095476 8.531581134068865
Sc 9.41257577220379 9.292979799039845 9.298870067823644
Sc 12.123100913700096 6.0097501138770895 10.231629614844339
Sc 6.8433458794964865 10.328172017049077 10.107554153610087
Sc 11.350817936296297 11.2653398432671 10.890208009699379
Sc 9.20167765203707 6.95408873979195 10.936658683886945
Sc 8.644744909467576 12.590573406699503 10.888748891955101
Sc 11.672088082665498 8.402592930211961 11.768963072670992
Sc 9.13323433551028 9.944549018316739 12.309487276172572
