15
Energy = -71.0437536 eV
Sc 13.156871198760076 9.86125725086066 12.647881583542162
Sc 13.857069485852833 10.472182621368551 9.83410472408507
Sc 10.350889855919343 9.214051243315224 6.787588680481516
Sc 10.352664453631444 9.10817086935127 13.583379764243054
Sc 11.586400452333441 12.004104220062807 14.112761522340199
Sc 13.16828324661211 12.734882060364201 11.636132211229825
Sc 13.047116834079262 9.412721673480831 7.363197130098167
Sc 11.199791039449288 11.636111816595422 8.63402297214471
Sc 11.160710707671763 8.782977237183353 9.799210984188928
Sc 10.338949710433965 13.948331402404484 12.006727674538558
Sc 8.626931361189678 11.788420479055857 13.481272136258474
Sc 10.653475868617642 11.106420250355214 11.502032415605813
Sc 8.096320802624772 9.49482208922065 11.567345151915703
Sc 8.47293979901845 10.082372464621512 8.685316177997649
Sc 8.103318062759246 12.367479623944181 10.55329264336145
