11
Energy = -50.96345825 eV
Sc 9.353576863465896 8.326404964698774 6.513158306320849
Sc 8.489863441608078 6.086328653732873 8.33194672723657
Sc 11.427884574819979 10.48991702737982 7.060491753971313
Sc 11.354164790016569 8.027328540181102 8.884315285722352
Sc 8.496152386151609 11.01602984493812 7.602804163568197
Sc 6.473054140777594 8.396103043272978 7.80569820717411
Sc 10.523865603306513 10.843415057250162 9.84123004524018
Sc 7.449492255296544 10.597629874328266 10.746150285324298
Sc 6.88542954332042 7.5484606568991355 10.840986884596377
Sc 9.611893025067264 8.773459269352127 11.883320831916592
Sc 8.725623189144956 8.685923067966634 9.280897321905085
