14
Energy = -66.91059252 eV
Sc 9.620329120733 8.073016799367798 12.17854105336205
Sc 10.071774969377202 7.072763528967749 9.276795937451288
Sc 7.44945895335476 8.493285786187368 9.963436469468954
Sc 12.414745896001438 8.273685100911232 10.835152878960539
Sc 11.959547704095295 8.983910172795868 7.801187868704514
Sc 7.5722913139496315 10.316152081872337 12.269494098160528
Sc 10.13395581256637 10.099471276781397 10.092794729567581
Sc 8.946728309711588 9.362987753331897 7.431221082545274
Sc 11.476159202843403 10.800393238768091 12.497531325489412
Sc 13.099256408952519 11.057215438355753 9.744289317607727
Sc 9.09056344117113 12.57418817431885 11.944057133843069
Sc 10.771333791923944 11.850106743839754 7.813298849714279
Sc 7.850382516782786 11.615002790753946 9.360692708615714
Sc 11.286510232666624 13.257291556036883 10.453054422191176
