17
Energy = -83.38025141 eV
Sc 13.6665259219804 10.464070149883508 10.787621401341866
Sc 12.471141033625853 8.097987175787436 9.260999834407425
Sc 11.828311004794095 11.059281974928012 8.238539615885845
Sc 12.742256474376948 13.510322841812565 10.647246455547833
Sc 12.44667265778053 11.899289035872016 13.355704250942962
Sc 11.411868087439048 8.704546874584567 12.219534764904765
Sc 10.040763315166707 8.210622464082011 7.218356511958239
Sc 10.938863510947362 11.44912605807792 11.07992185846429
Sc 9.750126641897815 6.582832470388101 9.939477586770066
Sc 9.907415995048662 13.421693665902579 9.201680243279505
Sc 9.873850520228483 9.336268195801761 9.736774524705146
Sc 10.097567534572399 13.761453187376702 12.358142922620749
Sc 9.43784126417387 10.859837375243844 13.50757058120986
Sc 8.703339208791627 11.059938600336846 7.675519116505102
Sc 8.227147532597732 8.489999320513547 11.993429053391417
Sc 7.383499778490616 8.45233382071588 8.928052524924947
Sc 7.952891583136161 11.418068566867131 10.73902934405512
