14
Energy = -65.89334547 eV
Sc 11.84822018167125 11.089356822490696 14.41030781840694
Sc 13.583112239534502 11.907870015063958 11.542585011347345
Sc 10.605401098646523 11.823566471133116 12.099387070989007
Sc 12.451007189190907 9.357580595159988 11.928296731275088
Sc 8.640851284004532 11.490081196251078 14.044101361694125
Sc 13.476171188741175 9.418959012373842 9.21987573723166
Sc 11.152363092266684 11.152389756296776 9.45313048562805
Sc 9.92221196447032 8.973667998673708 13.301322946245934
Sc 8.366366761683336 10.17846572276329 11.124755219011739
Sc 8.60459706553844 12.848899747706167 9.767074133727684
Sc 10.043595392269896 12.493555680068555 7.011022655816668
Sc 11.21465284813675 9.55446923887481 7.015904065696884
Sc 10.515510609116829 8.355952829718735 9.84339815975989
Sc 8.539244360300074 10.285877499083693 8.171563577781157
