13
Energy = -60.76834892 eV
Sc 12.104243994728858 13.599954977311604 11.841783309236568
Sc 9.666418374963653 11.821151736294556 12.431977607631984
Sc 9.871595919487483 13.329401404350477 9.811029695599219
Sc 12.877520582933238 10.950874196714883 13.048409275288838
Sc 7.30208834169494 11.710360988223927 10.073077808411975
Sc 14.34720797658128 11.959337396148458 10.706673500278786
Sc 13.781346172169448 9.00576569073824 10.834461943975574
Sc 11.537360270771698 10.818072229104255 10.38582179378321
Sc 11.223359095696807 8.6219555656207 12.330733140366863
Sc 9.413303162427546 10.721479376390956 8.280773836968825
Sc 8.721191390668025 9.421015650572178 10.955653247627875
Sc 7.39495977239105 8.823667057243595 8.575909132471391
Sc 10.567909751176453 7.994759704786813 9.311554952952495
