16
Energy = -76.97403485 eV
Sc 14.032641201638246 13.808279343199036 11.512470327761736
Sc 11.189536204306291 14.123968632942027 10.654058929430068
Sc 8.759333928676838 13.400347340379618 12.27407736548569
Sc 13.01924767968616 11.58179903687193 9.619781751098115
Sc 11.548941879408373 12.910931609638588 13.35401692768254
Sc 8.641236426629197 12.943504639158729 9.304392501122786
Sc 15.822094880003297 11.604953816458838 10.463217388655387
Sc 13.716707916230959 11.130284274782754 12.4869241621231
Sc 10.35823357757945 11.16479855025283 11.08769118431502
Sc 14.318750160191971 8.981241801153388 10.678380461207116
Sc 7.337531877697452 10.969479036581818 11.199458013231572
Sc 9.248981520627837 10.656163721730556 13.707709999210927
Sc 8.800747189826538 9.8507785803541 8.800642043849916
Sc 11.793941974960386 8.923477483145337 12.673061369785128
Sc 11.51123650020493 8.638708309649433 9.709693975425834
Sc 9.052078778860432 8.481475975959738 11.459220322924425
