12
Energy = -56.03211964 eV
Sc 11.583264235407531 7.548329959304866 10.003937032377943
Sc 9.973738509628987 7.528874429855688 12.524885102755121
Sc 13.549877482707533 10.224175864379324 9.593735695936083
Sc 12.23931742037333 9.460300727312184 12.161364331976701
Sc 10.739427750578725 10.278957764302639 9.72708075682705
Sc 8.4029254028638 8.438358713075774 10.132153663311229
Sc 11.556681222033207 12.461767331223008 8.150068487973764
Sc 6.8705754397658065 11.007661281714212 10.258868438902882
Sc 9.221147523988307 10.506698748332774 12.191551912633805
Sc 12.007792912344007 12.367053314592313 11.205999254912843
Sc 8.642838505777261 10.844926159704492 7.860668968498961
Sc 9.230575835745398 12.820284134273972 9.976169318386216
