18
Energy = -87.35713171 eV
Sc 13.236058779217798 12.3321006247858 9.633992228770838
Sc 12.024431312030963 11.252271469739904 7.010769397166792
Sc 13.977268909615397 12.442554785914986 12.703153754016178
Sc 13.007326682704644 9.232459572263291 9.767402680366981
Sc 10.674552387906816 13.592268722094246 8.551974229626069
Sc 11.753973256077305 14.03158409729724 11.371700779965472
Sc 10.258147934011587 8.728888015195789 7.567446572857849
Sc 9.002451620676778 11.425158776644032 7.003051151263228
Sc 10.614650492223404 10.826600828589536 9.388405098777175
Sc 7.9481715141271785 9.700921075699126 9.413962377364445
Sc 10.245508193300916 8.056352527741513 10.577731576121034
Sc 11.513493002017123 10.828918298368569 12.195131080077177
Sc 11.46196709244458 13.157366814608478 14.13262360881372
Sc 12.720677266654983 10.579288564602438 14.900207288828243
Sc 9.04456054060703 12.38550242367152 11.462394153003473
Sc 11.048244006436917 8.243153877722948 13.622844258484955
Sc 8.519554657263184 9.404184417643274 12.394515841738876
Sc 9.76567877099483 10.723923886529072 14.668427755186153
