28
Energy = -141.24509423 eV
Sc 14.242047372377604 14.216279842956363 12.031461393087286
Sc 12.649022923109797 14.847981021338516 9.308290962102888
Sc 15.721590120943288 14.952364585570086 9.483889400393048
Sc 12.93190485173138 14.118910423969393 14.92436110378963
Sc 11.50071846828765 12.197148106556948 7.63632043863178
Sc 14.333625494656381 12.691348641726789 8.213128637068326
Sc 11.258544722770628 14.694269642427283 12.255896315116896
Sc 14.0474271067333 11.41840407549931 13.502480210180911
Sc 9.786571361674392 13.317445227142343 9.883941091752757
Sc 15.904352305667153 12.123911955978773 10.607836315540679
Sc 8.52279622360713 13.069359986952328 12.62052395495093
Sc 9.913107119687004 14.263702796147077 15.230471990577625
Sc 11.18459360810134 12.103981536654107 13.764236147094358
Sc 12.594870478593547 12.229413202267914 10.658805241603975
Sc 14.377802080303494 9.789395782769335 8.200341548568757
Sc 14.276638012437852 9.715016748186269 11.033861772219572
Sc 6.834580373023563 12.553132849744712 10.101985428010837
Sc 11.393880651629587 12.231258041315247 16.71510851114597
Sc 12.147915359969025 8.542915533040848 12.53229651703742
Sc 8.744665819771308 10.55479777349339 8.944699097526474
Sc 11.728712992079668 9.646853376864836 15.345822560974781
Sc 11.61163247680311 9.637705855237925 9.045746104528948
Sc 7.39926637288983 10.196987784462966 11.918094894721229
Sc 13.052610311210204 7.301532699511722 9.79422853954855
Sc 10.221036614879335 10.601181511564745 11.521079184017157
Sc 9.734695476059926 7.903911056033783 10.644466185023155
Sc 9.432418477188397 8.578157974117643 13.625601591475078
Sc 8.838507471897387 11.179787967728346 15.083220687678226
