23
Energy = -114.4993771 eV
Sc 15.050498500962444 9.139714157563628 13.764211354098649
Sc 15.448984179224945 10.261073528915745 10.888590133874715
Sc 15.943210003452887 12.110926351191425 13.341616870512585
Sc 13.784944366723897 11.498723243486705 15.493688517879251
Sc 14.523879177791766 13.327682506768733 10.655085042875015
Sc 13.312613047866682 11.084008966032378 12.723523768313887
Sc 11.943349221645606 15.485990954704535 11.161915641920254
Sc 12.718167177392491 8.567875017945989 11.284381269959006
Sc 13.426521949219389 13.958158508593064 13.55149058673639
Sc 12.338538865710458 13.989413047208641 8.457631407265104
Sc 11.702124682258582 12.704630212688844 10.907730931515612
Sc 10.308765073154099 9.202712176653106 9.334816264619235
Sc 9.597611337614234 14.976265136791437 9.387819409035934
Sc 11.534521386806633 9.282709265249856 14.428413650471025
Sc 9.007225403013631 13.36105745576421 11.929963776631896
Sc 12.968336407010822 10.847988782670239 9.075323949578644
Sc 9.144452588254332 7.963044568603513 11.95282012641993
Sc 10.943980192547384 12.277179269053743 14.350582886982199
Sc 9.722947629645324 12.122095255658476 8.712227517830327
Sc 8.367464864567053 10.442702473389014 13.754358571715459
Sc 7.073529075065968 13.408520270283153 9.628456584221597
Sc 10.446962987146025 10.388158016900702 11.980497765779255
Sc 7.915463373130855 10.60399537635705 10.669059341232337
