24
Energy = -119.13925257 eV
Sc 9.584889015138673 12.957976395910665 14.848783941632588
Sc 11.354198358484865 10.052677236860719 14.375569027862849
Sc 8.227407937970568 10.331029476956298 13.845834909365287
Sc 11.587449913479496 15.374269948832971 14.42907839055226
Sc 9.792040474154662 14.410942821781985 12.410221863425427
Sc 12.283596952311122 12.788850808584646 13.488330836861504
Sc 12.844162250752182 7.4824000935638155 13.983018177123428
Sc 9.941222988099856 11.28521624281577 11.757789328265307
Sc 7.620787811319301 9.501674952744086 11.02467542358152
Sc 10.205621342143942 8.162978347663238 12.468433054344223
Sc 12.578026438075385 14.726416001543855 11.285771378762085
Sc 14.110488433799244 10.203955765840208 13.137097782796756
Sc 15.012614455810763 12.98424699755104 11.682684099649949
Sc 12.549831335097203 11.563393323723089 10.637640052314815
Sc 7.387384829040288 12.438492769454081 11.734115978850781
Sc 12.917564347589263 8.442483607106151 11.149424751032926
Sc 15.141569415369721 10.443935613664248 10.083203915341663
Sc 10.279618446848326 13.66935046794479 9.65307339922338
Sc 10.532115356284683 9.24465256254601 9.463736083740475
Sc 14.046741875439485 13.043278508394195 8.809011569631588
Sc 8.560305709486187 11.352354964555468 8.820935908279255
Sc 13.10782572225325 9.569424335734958 7.860021090948694
Sc 11.329166473496246 11.786079693280618 7.717358538855126
Sc 10.192008927477524 9.386548992784777 6.639990710324066
