26
Energy = -129.28977711 eV
Sc 11.23256885324758 10.801432962696028 7.462494787441773
Sc 11.079796102302026 10.743834613688025 13.931315097861548
Sc 13.901457134029444 9.85769079937505 8.973186831257555
Sc 13.855615010486817 9.826034762022166 12.115164979058749
Sc 12.877586753708915 12.983418262843532 9.107570615235062
Sc 12.958396474028197 12.822838285230802 12.20687932247707
Sc 9.668292150507808 12.941083910012077 9.040405552684732
Sc 9.90564941184666 12.80315541174187 12.067231070192632
Sc 8.625052290947709 9.875033697178988 9.068828267221345
Sc 8.751618562351737 9.797234616084717 12.200214474741156
Sc 11.277306996893056 7.938800498081748 8.927135011887513
Sc 11.278788259822147 7.939215487500786 12.068026249393721
Sc 11.308257302021063 10.642844664192797 10.395697445031933
Sc 16.274345949481436 9.038239650163094 10.564908683264978
Sc 15.410441306417292 11.985636223077329 10.537543895522921
Sc 14.450814382451371 14.940551328671141 10.771548036590312
Sc 11.31083429581741 15.05049857867844 10.861786836429879
Sc 8.15750731601873 14.94315188598088 10.969762409814232
Sc 7.267048060694756 11.943374512184961 10.849942893395966
Sc 6.272961743343545 9.046897106012661 10.770121292306792
Sc 8.782255851079869 7.185702571513117 10.497479677092475
Sc 11.301335273967773 5.40894527202969 10.507762341985591
Sc 13.77234183130304 7.25894713322764 10.54826519961925
Sc 9.40762560535056 15.45633182913918 13.488467617278946
Sc 11.10278596115813 13.564745326614624 14.71838002393822
Sc 8.231546112768354 12.454465042868119 14.13412627278581
