25
Energy = -125.82942414 eV
Sc 12.23613289566234 16.882575116336632 10.9834174351442
Sc 13.562564499080015 14.931816003507622 8.973884914721818
Sc 13.902957936933367 17.02718626686068 13.763311806289549
Sc 15.27278056786149 16.804185841694903 10.773027436884373
Sc 11.003256130586319 15.402890941081365 13.515475703526329
Sc 10.899347781814493 13.948710711609369 10.612075378153513
Sc 9.22851645382698 12.759345995410031 13.088306874262553
Sc 10.533450562433037 10.798018385830334 11.174132959889281
Sc 10.558401063749557 10.282517005941479 14.232594816815324
Sc 10.941900975856628 13.07995466367257 15.787360016924591
Sc 12.034165786084868 12.316946604119792 12.990169622725325
Sc 13.441420651616596 11.915688527606445 10.082745586657117
Sc 13.822033041567133 14.098230537204316 14.849418965361895
Sc 12.280408558759987 15.98120059881777 16.370893588916495
Sc 13.799397696053736 14.61204354982791 11.783977758261608
Sc 16.36695835475882 15.143994774689823 13.426993162257515
Sc 16.103257407129476 13.625119983207991 10.233421318723357
Sc 15.319380864813123 15.845079152078073 16.496649595416432
Sc 15.470179770954612 12.252487646474416 12.949704822710085
Sc 15.968193041782115 10.275324674194229 11.013635132185327
Sc 16.149656917002662 12.66381174045027 15.95561998124605
Sc 15.99749674509536 9.754101954107526 14.124736432758016
Sc 13.635027962359107 13.483991691947933 17.614156690095378
Sc 13.48782068176541 10.991914245358494 15.58396567233059
Sc 13.384879640845782 9.704040997033202 12.541346171579132
