29
Energy = -146.1360626 eV
Sc 13.552579961696148 10.199184334769154 10.466337557003476
Sc 12.701864986642118 10.450896989284843 13.211800462776479
Sc 10.625992629365278 9.558201390680145 11.225511100985887
Sc 10.501305602449468 12.32369662205889 12.615652389710949
Sc 16.55907443171779 13.558678288098415 13.359309255905478
Sc 13.838313111957591 14.264014220460227 9.066733561870386
Sc 9.035081225548202 9.989781727268594 13.936459240199232
Sc 14.16974501914414 9.038156019115522 15.13161056577567
Sc 11.258065678202524 8.465425482931375 14.971861273802055
Sc 7.962527851173699 11.28033067991527 11.522031746361034
Sc 15.639426254336923 10.592402226039694 12.760833095429156
Sc 16.430865761915296 16.711421910791966 13.10779647699616
Sc 11.595173348020305 14.419174181686909 14.426337749744512
Sc 9.344489075559206 16.148930254384595 13.403809557418956
Sc 14.198704707817928 12.215763110191993 15.090183338081236
Sc 14.134238285783207 16.204779262849684 11.405308946826139
Sc 11.12633586243032 11.526640646850243 15.5941898033116
Sc 14.433107741429621 15.21965882707051 14.52991729199127
Sc 9.620487549744647 7.19937720470022 12.788462058915462
Sc 12.428271199216002 17.2065549744587 13.583671841029913
Sc 8.376250541528096 13.179720811480218 14.112305184932936
Sc 8.61388265567799 14.175960249274842 11.216570930438303
Sc 11.350723642471356 15.390553231590138 11.343147167350024
Sc 13.756025389450185 13.182533721956231 12.094878492576429
Sc 16.500374394352004 14.849932207806377 10.727861277713167
Sc 11.396575440022506 12.528518227163868 9.88045908349679
Sc 12.77928343223031 7.660298199629502 12.551943670681746
Sc 15.722487105003077 12.094156368550916 10.01010793841794
Sc 13.506387065619757 11.55282568691916 7.835503191623729
