27
Energy = -136.23972802 eV
Sc 7.019212496274206 11.46092455671335 13.337861050494064
Sc 7.659777853378481 13.84428409118362 11.659290959060764
Sc 7.65999207360203 10.999064343171534 10.409606187203254
Sc 9.229619659961163 13.71070055803633 14.350526430618935
Sc 9.143546701990001 10.79247096469524 15.250110187932643
Sc 8.944849315479331 9.04556482936124 12.612848766937852
Sc 9.941234326573374 11.842427878897304 12.086091515973566
Sc 9.661071849650096 13.344652789888993 9.477042660706392
Sc 10.400804299968673 15.275561756336536 11.870495899307631
Sc 11.830092038845086 12.530489616074027 15.49959369719728
Sc 11.88835154037608 15.419114294661352 14.68523075164792
Sc 10.349895631093197 9.571110471088746 9.981336615228145
Sc 11.568667912240947 10.039629654003264 13.942834930417394
Sc 12.521679136939795 13.32411290270096 12.565374563476041
Sc 13.469020993434118 16.12684255697256 12.296030268149151
Sc 14.712927220648565 14.039683472095094 14.350599031462316
Sc 12.710219673784488 14.596296868034438 9.709635781959587
Sc 14.294520264080557 10.912208790715011 14.427089686700182
Sc 12.111386997332524 11.717783398558955 9.397116313875651
Sc 12.550684810033417 8.5515160054908 11.725374198164172
Sc 14.139749722219047 11.12599473907422 11.459338437199854
Sc 15.381122229274272 13.890758263846868 11.251687863673299
Sc 16.67341103545491 11.754228437792419 13.13614262583178
Sc 14.770083328817087 12.36694764206098 8.61206911971746
Sc 15.658432874729233 8.897261607410757 12.202450065432842
Sc 14.230383188765016 9.300909563970595 9.277779526557755
Sc 16.794314776729628 10.916691332961104 10.212616561058892
