24
Energy = -121.02113787 eV
Sc 12.92754386256176 9.441568663325542 8.882822826547397
Sc 12.345422450359628 12.018289085834969 6.8541703842385795
Sc 15.151152668341831 10.060298625556362 11.035994542487229
Sc 10.222748907730397 9.92010054626671 7.14739731812883
Sc 13.999961415524423 12.5504582927872 9.4967307254813
Sc 12.577552437515333 8.2515449612825 11.844830162616978
Sc 10.10137698529455 8.21947618941524 9.797658877563391
Sc 14.415891854906993 10.081260646497931 13.93699424504126
Sc 15.011389669447489 12.75935245224307 12.48564641551828
Sc 11.613732052998488 14.408616450094176 8.628966615748249
Sc 11.005147664494507 11.636682447803459 9.402553666755987
Sc 9.40033061359564 12.87463397182424 7.321828503198237
Sc 12.61012994847625 11.21341871634754 11.962631988610893
Sc 9.699181647104378 7.624247382223933 12.968643029344454
Sc 12.066810506539268 14.117494595942564 11.73757543171299
Sc 8.004170745884329 10.759837482659535 9.220935486888306
Sc 11.302642156416908 9.87575992210103 14.47598471975832
Sc 12.819736065865705 12.636654351070264 14.52931495075375
Sc 7.29817388186842 8.713804314267854 11.534789152513081
Sc 8.14487517899001 9.938893090473552 14.258141051670883
Sc 9.124506051029927 13.614938242921218 10.559355398767494
Sc 9.68682623193328 10.33590295169718 11.831073797410713
Sc 9.821291236032362 12.73380698859494 13.566270946525346
Sc 7.1115124692852 11.727909244483005 12.082095316809115
