26
Energy = -131.43661814 eV
Sc 7.917587020698955 10.2153551385959 9.08346600517247
Sc 9.363622728777981 7.620459532212119 8.924944318196237
Sc 10.239637743989878 9.866215514309102 6.856283504824241
Sc 9.272807562881354 12.78653919769123 9.76762067999036
Sc 7.229466388546508 11.825749343813548 11.888592938920219
Sc 12.198600359144795 7.753864926995023 8.147525435074844
Sc 8.617704029940601 8.891233957555066 11.692320379044043
Sc 10.990160138291936 10.101991764272826 9.590121988566713
Sc 11.667596840580043 12.623812444647625 7.959634553614844
Sc 11.564749924216196 7.71464691457033 11.277612690449875
Sc 8.788631800049322 14.628512602022296 11.895740410768413
Sc 13.302406856896718 10.370953747899291 7.318867130792046
Sc 10.086073882440271 11.42324724488324 12.494547384342072
Sc 14.02800039345361 9.44551018860741 10.12159865076584
Sc 8.138178166147789 10.312090300666942 14.50237196217
Sc 11.58609491820036 14.642545298851436 10.263561589840384
Sc 14.56077811913096 12.63281296009664 9.102977439067253
Sc 10.448317992526013 8.53729790697983 14.151820582769217
Sc 8.624011456064972 13.240416805951957 14.478010494256493
Sc 12.705196018924335 12.060700619016556 11.195076474583724
Sc 14.352753384294619 14.388757815278133 11.77129375754289
Sc 11.395880625155964 14.161660608276081 13.33905565687964
Sc 12.978675836955782 9.767773960302781 13.14281073530195
Sc 11.037825258313852 11.41507619723138 15.2498118260925
Sc 15.499347167383641 11.58027453598482 11.933185207893368
Sc 13.75520996697131 12.565976008046983 14.105926814220096
