28
Energy = -141.86570954 eV
Sc 11.086192897083034 11.175697004400178 6.981554160770301
Sc 13.65333591767854 11.118146731385922 8.671868002706933
Sc 12.185129938500346 13.792482839562522 8.325810617784123
Sc 14.926167134832772 13.530425585286189 10.279272599815881
Sc 16.13455681944606 10.60538254419744 10.410104970138214
Sc 11.276399534684499 9.152828394059357 9.298565423644094
Sc 9.083885446211847 13.273335119858256 7.51000086988253
Sc 14.163113280722833 8.449956793970426 10.203110902287868
Sc 8.53747837973196 10.383545823923225 8.308808629335495
Sc 16.211985368688982 12.202058315549051 12.817643001877489
Sc 10.51147802572748 12.02294518669433 10.025140446807555
Sc 9.676673735990994 15.033793281062179 9.775964985927057
Sc 12.076174409999739 14.264509096275955 11.547415743271339
Sc 13.42217087778933 11.39301072188707 11.680762659991679
Sc 14.370049627480288 14.4193481256503 13.292218455860981
Sc 14.978004272799353 9.29681215129562 13.076078969735013
Sc 7.624081694900208 12.602560170982978 10.241485791798222
Sc 9.129506964602157 13.878812389961105 12.606705759232732
Sc 13.833993859664591 11.826257976600754 14.767532293393446
Sc 11.881542754925253 8.650362490785916 12.192799399003063
Sc 10.74983189803242 11.39724603228956 13.327491495416293
Sc 11.533915790219313 13.964609952834575 14.699277623271364
Sc 8.96832419872652 9.702534207280184 11.360269459229404
Sc 12.468934228691053 9.1817567825613 15.00087874074754
Sc 7.4640435596818975 11.414748653964915 13.128814623538311
Sc 11.216391147689134 11.354371557489099 16.44988839741148
Sc 8.788674868496571 12.520990991346729 15.464778667688478
Sc 9.307376803221956 9.475144264051247 14.78774245171735
