26
Energy = -129.84338667 eV
Sc 16.271921994373166 15.890825929427546 14.002460250653694
Sc 11.870955756353602 10.398343127905656 10.882227232137827
Sc 9.350612235263732 8.395102008254288 11.118904710195276
Sc 12.507401723399406 11.73301580704018 15.257019982880156
Sc 10.818121347985654 9.53761935750088 8.554337111873489
Sc 11.088243431318032 14.467986159927758 14.73644290236944
Sc 13.554269458908689 14.477304809045176 9.995468148043445
Sc 8.847846880385543 11.04475934974972 10.41435001722893
Sc 11.169097807804947 15.60889117949899 11.513317302344616
Sc 13.882530830213648 8.85692443234537 9.795164673958602
Sc 11.411805719659705 13.404013272983319 17.503609761388038
Sc 12.047482523675663 7.700828688921368 12.11157083644134
Sc 13.684845907207123 15.3498672331032 13.082834551667077
Sc 14.908815592939519 17.156874302796325 11.286529036132455
Sc 7.613853339422804 10.404683839278485 13.069671132970784
Sc 12.299072982680315 12.90106474723218 12.356588300536059
Sc 9.413024479779793 12.075835139370618 15.518245400829082
Sc 14.81284026213018 11.715248051112336 10.836339535675487
Sc 13.204620927117599 11.59880540603458 8.406441184493927
Sc 16.144716818566533 14.49708197807454 11.434834575718428
Sc 13.98287323181672 9.78349636707173 12.911222142041858
Sc 13.84701880982183 14.321908192800304 15.987384844615768
Sc 9.254688819745914 13.031960687754465 12.545038195519846
Sc 10.838780070521423 13.124394308082325 9.650829380295201
Sc 10.483914157033038 10.24456076676663 13.356903189358453
Sc 15.194561220436434 12.80434224239908 13.760279467956927
