28
Energy = -141.7669329 eV
Sc 11.800425474275682 14.102689997198588 8.803179047912678
Sc 12.8057334691905 11.3782248014025 7.78283481961283
Sc 9.090477567008298 14.455775189862083 10.099204372957685
Sc 14.836465066626268 10.015894401816105 9.38539354875944
Sc 10.77812129195623 16.82955795428257 10.171855766997924
Sc 14.704463171365923 13.187686945120754 9.581698794604055
Sc 13.768136539591863 16.190628293690466 9.932844660317956
Sc 11.852161638807713 14.247675325853747 11.826860979945486
Sc 9.998313701712151 11.55061933638467 9.0569874367651
Sc 12.610306692761776 11.499257715438752 10.817227683033776
Sc 9.747400257264884 15.580094285103776 12.957232009110967
Sc 13.236456964498078 12.330097695252858 13.939560887326238
Sc 12.604696662288255 17.143725996851423 12.486591351156985
Sc 12.469321850283219 15.243445328545494 14.65217091878714
Sc 15.415453352081002 11.330306618995133 12.136228713631894
Sc 14.69004078427695 14.548374795901502 12.350805262654449
Sc 14.30727884091897 9.752187545496023 14.710341198202201
Sc 10.475036945729327 12.900105390459474 14.618732024599874
Sc 13.908332034146918 8.576028652335399 11.948013802714929
Sc 9.555126961702314 12.202371895863694 11.944393157606664
Sc 11.395241637014106 9.893897568804507 13.14110120610167
Sc 11.328588931717777 9.981398427063079 15.983214068566005
Sc 11.748460200668644 8.969912856959912 9.547786106019936
Sc 12.537721428942476 7.423223917242389 14.600298514176554
Sc 8.583154760271297 10.505736880783953 14.229998852014509
Sc 11.191503219509658 7.001201916033863 11.918838457262101
Sc 9.11724666842791 9.151118779495938 11.337190284147814
Sc 9.586188204493988 7.786351941615666 14.368423995275423
