28
Energy = -141.91434598 eV
Sc 16.252168428478637 10.741629539886732 9.657839889510752
Sc 15.506325697167409 9.282316493258637 12.181410733570862
Sc 15.713426100288276 12.357003634993921 12.354695754295886
Sc 13.897088487811843 8.384000330463147 9.575405651947255
Sc 14.021320922961035 11.109655626637597 7.792109022972911
Sc 14.708556201028848 13.516320561870668 9.603238240164284
Sc 12.708059613491024 7.901164458668868 12.446429578793055
Sc 13.363968612174977 11.084422312891002 10.732651942406404
Sc 13.442930029040214 10.824159414781146 13.814580312367948
Sc 11.388308308686774 9.793118907314737 8.606211049414727
Sc 10.822147756049045 7.34911716102693 10.13995930325584
Sc 13.006571205716421 13.715981535461076 12.248149961898239
Sc 10.948500445707195 9.209804682103183 14.71131316215105
Sc 11.660030459746029 12.96099316289772 8.83415544659735
Sc 11.185278515407285 15.615634868039876 10.590310929939534
Sc 13.664176354063333 13.609708418140425 15.04841571495067
Sc 8.110631320814017 9.07440269191282 10.647590167357023
Sc 10.734354736340473 10.020016573802067 11.771719351931345
Sc 8.752606684759591 14.374575228049094 9.197008611102964
Sc 10.792829622167051 15.230129769118266 13.700847265738211
Sc 10.090451471542696 12.993142050718266 11.591371519440836
Sc 9.483127163938459 7.498438483937676 12.820337033494678
Sc 9.046942300931974 11.4116441483876 9.12900897926933
Sc 10.968834606235308 12.274391626450173 14.474663235198351
Sc 8.25530148518384 15.506518203221399 11.838816564965146
Sc 8.330390261287821 10.406585403608245 13.424487404892947
Sc 7.1895071734374385 12.410797389263182 11.255702881430134
Sc 8.233635737562043 13.504027581427923 14.021179027377112
