23
Energy = -115.00461148 eV
Sc 9.135065282804712 11.093164696626538 7.901884547571939
Sc 9.872455854524308 14.226655549834264 8.646801383275415
Sc 11.86453744082476 12.592234706957242 7.046587378147007
Sc 6.915590172521493 9.682450853800553 9.811126251860026
Sc 12.882579179097618 14.564064150878794 9.311731145028666
Sc 9.262211330575914 7.827768903113044 8.770083875819578
Sc 9.646970693603452 9.933263631975528 10.52408715543121
Sc 9.323586103931861 12.510360888652682 13.29881407170557
Sc 11.444528784982463 12.113226520040618 9.903332880362083
Sc 14.23241519230366 11.859724288885497 8.830436690396676
Sc 11.984658977186093 9.586726367127557 8.231182263455866
Sc 13.730787463114828 12.723982470036008 11.882641762295053
Sc 10.965998839331005 14.41495491828146 11.74244508997765
Sc 13.891812174344576 9.651666732890382 10.985470241171862
Sc 11.581471886156383 10.568088042159246 12.502725145040584
Sc 11.777062186078439 7.581073133283966 10.438816056861446
Sc 8.135873238679778 12.477813417099448 10.558478127725648
Sc 7.680474846629315 10.181559964262796 12.779756394502694
Sc 13.89599143969456 10.354805564038903 14.131831121398603
Sc 9.466563950024758 7.704442172450135 12.30516736138586
Sc 11.96604491748297 12.746641293723668 14.460447909044111
Sc 12.333862984038104 7.860156444747832 13.381500308246414
Sc 10.237693917189992 9.919268051317172 14.783366939788353
