29
Energy = -147.95048095 eV
Sc 9.29701976726088 14.613451764477816 14.388707145510349
Sc 7.547526718067399 12.05194030490239 14.34510979230032
Sc 7.404987694655906 14.060299863962605 12.09082405772657
Sc 10.465561335243267 11.917651291846845 15.595287176890638
Sc 12.359291851658112 13.852695663469571 13.630127592430735
Sc 10.244973173980155 14.95425985937796 11.239432953495744
Sc 9.443297004044526 9.499411752957295 13.630680405122005
Sc 7.646870342235514 11.111130990376171 11.195171075232636
Sc 9.826266793437174 12.400400155464398 12.660758324414095
Sc 13.1513593854564 13.66142486951297 10.615534358747881
Sc 13.633933586011938 11.708991660905898 15.704488251843706
Sc 8.213078095546983 13.563157671665644 9.055477606602954
Sc 12.23155526617663 10.788919347828037 13.392463457528963
Sc 11.945078596072777 9.107280807728277 15.678739588267705
Sc 14.620429335827925 9.227781750306212 14.28142047679205
Sc 8.369962351476389 10.44773433396246 8.307181312381944
Sc 10.520915118254871 12.03950757549141 9.658632422559835
Sc 11.150464726098694 14.642705802124055 8.33146939933254
Sc 12.905590299208106 10.440672330706592 10.38245709148323
Sc 12.344168229173565 7.9689896063354935 12.620215263545578
Sc 10.01627712786552 8.976952972040982 10.606678627027113
Sc 10.028086736242587 12.375134718064118 6.714726768719129
Sc 14.890766313480313 11.84056799505416 12.650129203385845
Sc 15.155099465891727 8.914355102819673 11.161584066563327
Sc 15.502588700131854 11.726850052473532 9.65195127038029
Sc 11.313401258007977 9.601966245856273 7.718535083400788
Sc 13.083841760977103 12.250086059867154 7.730830399444638
Sc 12.694224151988664 7.551074029009564 9.61848994374487
Sc 14.503486662362516 9.377359027427252 8.072194439149317
