25
Energy = -126.00930246 eV
Sc 8.466638727773088 8.003612372850773 10.608107189375328
Sc 8.682716475305709 8.088792060494928 13.542036029958762
Sc 7.460059280793374 10.490726699870745 12.24013151141846
Sc 11.253542358740354 7.173062904287455 11.857588470345863
Sc 10.81621285642523 8.90687327007707 8.764075211623918
Sc 8.411163700017267 10.811967158251763 9.352263118898732
Sc 9.192114994773217 13.722893844561547 8.848364671769655
Sc 10.470343248763454 9.881318392288936 11.851969781291226
Sc 9.56018526236785 11.249151900698127 14.445851578948886
Sc 10.308256217325608 11.432699505230769 7.008655244913241
Sc 11.237139141806601 8.708217098645848 14.665864525583904
Sc 9.215204113731733 13.04389271923668 11.889381984271893
Sc 12.148778304853794 12.274157580898615 12.646475529121778
Sc 11.477722055122277 14.855614410929123 10.669031833171255
Sc 11.801314014054682 13.937545173233662 7.40304584687337
Sc 13.591157049950725 9.744738121223904 13.259367409641861
Sc 11.576235837167255 11.945244780326354 9.688494840523871
Sc 12.320080335105253 11.422388189734868 15.562891982728797
Sc 13.22443599815142 9.258162154065733 10.309575785570086
Sc 11.534373170795574 14.266307242787265 14.227305702659887
Sc 13.388354950967097 11.170581215104816 7.67508311346485
Sc 14.02357675200299 14.630074676708398 12.20063360262117
Sc 13.998294140616757 13.897148738071914 9.23500796290634
Sc 14.563389383778954 12.711694874753551 14.284418140030636
Sc 14.667703494362227 11.767189647283194 11.138312430874016
