24
Energy = -118.59121505 eV
Sc 15.766197535139307 8.428373484685897 11.894163112045542
Sc 12.89470087923751 7.066466507114272 11.072697131584333
Sc 16.06869683511738 11.307215730617054 10.683794158307892
Sc 14.683800477728662 11.19409108003564 13.315281688417317
Sc 13.540676309776947 9.832393814176577 10.77944307878436
Sc 13.320560028106062 8.511466702144688 13.548573894593867
Sc 14.448645429346504 13.810443214329968 11.536749155226811
Sc 13.408569538145306 12.43815905933019 9.104679184317332
Sc 10.771800179966066 9.283780997692066 12.100417757449389
Sc 11.759936047597014 11.061143603730548 14.633125222862436
Sc 12.938761298438957 13.813491156994745 14.19358442465242
Sc 11.845139122265584 12.194165866916723 11.755814707336604
Sc 11.826410759675385 14.777315915651952 10.23014664636129
Sc 10.82049598109376 10.505544116922408 9.18175632833177
Sc 12.71702109924734 13.11817993764583 16.97859199386519
Sc 12.777358444194205 16.355894080402933 12.7644179291668
Sc 8.29180050690765 11.430379637910834 7.791101213597398
Sc 10.742552880756179 13.126670020931538 7.703941998944526
Sc 10.14834905779346 13.380783299529963 15.599964564504775
Sc 9.148317064348905 11.812293403569495 13.052319985138903
Sc 8.178458398181922 10.234571893636772 10.514466091413315
Sc 11.716870329193705 15.906976998629363 15.670930017806326
Sc 10.282233709677842 14.770401876425368 12.958662798270495
Sc 9.179808183971891 13.020155072335271 10.217552067954918
