23
Energy = -114.54829831 eV
Sc 15.536261949260307 9.39158817493136 12.033916489340696
Sc 10.650782857045069 11.796719692336515 15.731785283076736
Sc 13.460961125292462 12.197033279156242 14.052607903931493
Sc 12.635251513174651 8.983819891686917 13.587859974416011
Sc 13.168098570193257 8.261381359591267 10.59717094318343
Sc 15.915771172526604 12.351927881292317 11.729667020000843
Sc 10.819944160254643 11.128064100119957 13.017797077648748
Sc 10.165426594348192 8.715552228882746 11.532413418530199
Sc 15.557811493316729 14.009364654753192 9.239716948013736
Sc 9.358826955246087 9.213345494698846 14.520434515803355
Sc 13.262476160261985 11.071208567375853 11.4300269057152
Sc 13.503691100843973 14.146773586424919 11.621076328766474
Sc 12.779315497873013 13.196214927607109 8.703318603620016
Sc 10.872026381517628 12.89331998016969 10.727335834263634
Sc 10.798196328861382 14.077429374275933 13.478849605745031
Sc 7.1683722523112765 9.34755300594714 12.551125313569027
Sc 14.85413472740821 10.859095474193019 9.195287412780589
Sc 8.515988483743905 11.213750457361874 10.687542745286121
Sc 8.23674429273512 12.035048348884633 13.753526694156655
Sc 11.11023108492919 15.587952700947941 10.087603815843323
Sc 9.440779144724852 13.608163988712842 8.502228065398805
Sc 8.432030931848718 14.228826190385657 11.307386775822957
Sc 11.381260296943882 10.397946797900492 9.122148370659865
