29
Energy = -145.19093062 eV
Sc 18.680062656559453 12.472739319488856 14.977780927353004
Sc 16.247135963867812 11.051429980022668 14.5379951611472
Sc 16.821132160194 14.13588175649054 13.677177187930146
Sc 17.600062203809745 11.965658468056004 11.897178737603472
Sc 15.826544905134222 13.53272295153678 16.250879466357137
Sc 13.555360516427639 9.667277548969565 14.082309474903797
Sc 14.173723076015122 15.173105707636232 14.202440291046095
Sc 16.260213006877127 14.65875698833101 10.74714547377215
Sc 15.347847126320142 9.513693517395218 11.768126230472133
Sc 13.084600674173368 12.453274781698054 15.143990314035698
Sc 14.628612078199307 12.32720008351315 12.504617393427491
Sc 12.055010259954015 7.849484193689093 12.370165206635509
Sc 14.965804498912716 12.217458066186285 9.611023929908457
Sc 12.266068034680124 15.017311681914986 16.634473377614068
Sc 14.215085442654782 14.933433362100489 8.460260571081418
Sc 10.74771690035048 10.221119296782494 14.02500432979916
Sc 9.362931635963974 15.993395064932317 16.13619741951456
Sc 11.301152132903242 15.772898226928314 13.87625258116483
Sc 13.281662524146363 14.626650144608897 11.25510484619493
Sc 10.05475530089906 13.18849169690986 15.528002091309968
Sc 11.204732335450903 12.964438363008398 12.674224384458217
Sc 12.068030681890082 12.903092784197543 9.23053498487568
Sc 12.46273866065921 10.536146850025647 11.181433257574017
Sc 9.669736643553854 9.452171049107108 11.412410660591734
Sc 8.600426137899067 14.722675145888614 13.344235826609067
Sc 10.152105445214755 15.054274051445876 10.656245426938595
Sc 8.273713052293436 11.780329443892642 12.98450654693567
Sc 9.475547966035803 12.140646740384858 10.263458050361473
Sc 7.228410133278302 13.863185886418226 10.884554797966851
