25
Energy = -126.53755279 eV
Sc 7.1113560925071875 11.412778940198612 9.946285932238979
Sc 7.4265937955908345 9.156183744963183 12.30116764024179
Sc 8.532943759844269 11.81050155495482 12.539696349952735
Sc 9.377582914782867 9.848244793710911 14.632598080167673
Sc 10.946580283061568 12.722438772427967 13.98900405422096
Sc 8.435072244967824 8.720763215251258 9.476714814584811
Sc 8.35510868079434 10.869334773481004 7.187090385132127
Sc 10.473070937005819 9.578843863754216 11.746171359582032
Sc 8.762767941595325 13.753751868229434 8.29330925900625
Sc 10.056773474552678 11.497347380212224 9.482775146680353
Sc 9.699086328508224 7.272165815656898 13.047109036578355
Sc 9.888089725109568 14.096204715485372 11.253871213616762
Sc 12.417448041332246 10.058918798834155 14.143425904256077
Sc 10.711062508565911 6.838226963929409 10.217426694559952
Sc 14.103426761709091 12.62496517430432 13.738743479602979
Sc 12.709324082567619 7.485128969807676 12.556456882405316
Sc 12.365653868129328 11.919762520681791 11.489751832533203
Sc 12.75137772050547 14.809237497487599 12.177468805299235
Sc 10.961885109039825 9.176418374805092 7.834832425626454
Sc 10.964862948147202 12.265510284324565 6.7926911926563145
Sc 12.094602922509761 14.056301619610009 9.155869379861638
Sc 12.883559334458454 8.804401793224201 10.029414511410193
Sc 14.648773889661808 10.101473863489424 11.998663730604708
Sc 14.862231497331358 13.101421094564444 10.712811779422
Sc 13.381925291770578 11.313637504768412 8.61821088349819
