24
Energy = -119.45154134 eV
Sc 12.724499000792704 14.844499137504613 8.96494572769302
Sc 15.558816728166834 14.91754627680703 9.816337326715761
Sc 12.420440489608396 9.2788960591258 9.154829122639747
Sc 14.103394882949763 12.282835776616743 9.502284025074912
Sc 11.039475093408468 12.07685815170053 8.637547908515913
Sc 11.830852503917244 11.340341116978903 11.436416088657792
Sc 10.34913434659042 14.077743212966281 10.814078413286364
Sc 13.385518080135899 14.313510239011828 11.893174218242162
Sc 15.980548073148254 12.720056415083432 11.752863123397985
Sc 10.84557921094365 6.72344993018778 9.023040615869725
Sc 14.424908968274526 9.854025567490947 11.53430085724981
Sc 9.525223360353468 9.345071794673853 8.474419145807193
Sc 12.788889836767796 7.201731475570485 11.24491576303077
Sc 8.310948248142903 13.690748743610843 13.096578273356048
Sc 13.841939093259795 11.77819995241429 13.810099585744037
Sc 8.881479201490622 11.43460872188899 10.810168883370872
Sc 10.172843097815916 8.614210317093029 11.2811516494336
Sc 12.162903039072352 9.259673894974734 13.612143909222592
Sc 11.137778320713615 13.17341305491041 13.611162645052424
Sc 10.4855098456075 15.826574631078103 13.6863876960052
Sc 12.654572964987956 14.392896689921958 15.542260699106082
Sc 9.627249708173146 13.853900763117554 15.890550051791745
Sc 11.685203674608076 11.464793489381425 15.939317809965713
Sc 9.469042905461416 10.792302571153506 13.796049877618978
