29
Energy = -145.42497493 eV
Sc 15.385310928315851 12.08244579466709 15.383351189846909
Sc 16.042914211352112 9.016871609143001 15.089009910907844
Sc 16.1352230837633 10.708193578021042 12.772021702397463
Sc 16.610013870984424 13.768099606304594 12.964042360999398
Sc 16.3060457403632 7.722960761521017 12.369177569497248
Sc 12.20131491860177 12.701320865434838 15.940741490452112
Sc 13.397288873217734 9.913603044905804 16.058688888981095
Sc 13.075837419404968 11.348461959201037 13.275767685513378
Sc 13.891717446162872 14.220817951306975 13.88194480464496
Sc 10.813906824229848 9.947584746682297 14.521916669095981
Sc 13.577638342056149 8.368223250642936 13.528315569300116
Sc 14.78429169521986 15.701717523005847 11.550907674800689
Sc 14.687993355826011 12.764130703194542 10.908490748817893
Sc 14.346175279819064 9.564057754338751 10.780055369990276
Sc 11.43302225168528 9.48988231675089 11.365021446396167
Sc 11.188754797369368 15.506617803348766 14.888633726079417
Sc 11.1726287195207 12.578510377616395 10.931269635443941
Sc 12.852315242022273 14.61797197374679 9.29598363799137
Sc 10.027118192284346 12.970465771393902 13.82794839321603
Sc 10.663690776755613 13.196141023283435 7.873231778890844
Sc 12.671537810939638 11.226214991952617 8.841807359825832
Sc 11.667074171267481 15.382523960531906 12.02313342105894
Sc 8.762992608650032 10.517329521525305 12.24718732507656
Sc 8.89338358717067 15.552285612395716 12.888915255076117
Sc 7.665031312573134 13.18127955757586 8.355477896990447
Sc 9.412054753656454 10.839136528717564 9.179323268454754
Sc 9.67357553823414 15.23221631518701 9.792946340898734
Sc 8.097889508399746 13.104787657977472 11.193454728637844
Sc 6.571033786286237 10.868620106420844 10.040297775863209
