26
Energy = -130.75922886 eV
Sc 14.594161231483655 10.09651344992071 14.134377916336097
Sc 13.388510255272758 12.469255453551215 15.890172595468199
Sc 12.28490196301249 12.409217719956322 13.158198043028191
Sc 12.964420265495537 15.039738525776782 14.228091685443312
Sc 11.62129625843328 9.910527003629278 15.04167728181643
Sc 12.519763888230406 9.665865617345876 12.236319235634557
Sc 12.86091254980195 7.358236351416056 13.754818373589163
Sc 9.305786805962583 11.818773849045739 13.847885936176917
Sc 15.081656375809224 13.063761508445115 13.424828648937787
Sc 10.412513600188236 14.390003766070095 12.051988323175651
Sc 9.610478498725382 8.787206340949329 12.85611070830643
Sc 13.521492867256265 14.679059856484749 11.19312253746756
Sc 11.590178236655165 7.206418641425285 10.976451223879828
Sc 7.292785934624714 10.51558904636415 11.524415104491975
Sc 14.636902988211945 11.415675161703009 10.866448637705144
Sc 10.05566973184475 11.160859825517841 11.191460873147573
Sc 8.215733960146455 13.342973506394342 10.134960678169556
Sc 14.48627392391679 8.030574524758043 11.243223450962411
Sc 12.371350570569952 9.740701197958467 9.28558735748508
Sc 10.692425351129256 14.73119184371399 8.904869231112118
Sc 9.232219052368853 8.964963630240797 9.638377915806696
Sc 12.058773964260924 12.599650889812866 10.18177710598784
Sc 7.248801651921868 11.159296518318254 8.495676223127392
Sc 13.320597618878514 12.965684519886914 7.96553756906629
Sc 10.136043479179207 11.791457387122469 8.080560990101702
Sc 8.16648093764657 13.800267798281359 7.2109008591963475
