29
Energy = -145.28250332 eV
Sc 9.910257379294832 15.187953331014063 14.980744867889937
Sc 13.061360983042666 9.942058882616688 15.164724192137593
Sc 8.401133698376961 12.765201249334966 13.869376788422105
Sc 11.28061388310234 12.557070658087518 15.50639128351456
Sc 10.239798781411647 10.281550078765813 13.75170934703235
Sc 12.632557214689442 7.929026119492239 13.073830205377673
Sc 9.726313775266668 8.073718375286303 11.880817442137971
Sc 8.601320078899766 15.54227391879686 12.373954619255409
Sc 7.777599036715912 10.330386683683745 11.922797680589852
Sc 11.020770749615023 13.351174535427539 12.554608749823364
Sc 13.043092611144232 15.411127674615917 14.984996015827729
Sc 8.456394774725652 13.133349173914906 10.720634065505703
Sc 14.072169654386695 12.641843837686906 14.271598642472126
Sc 10.422078033766836 10.75020708232588 10.489704904448052
Sc 12.887609263838769 10.766402579088124 12.19638986608092
Sc 12.331310179191425 8.191622514994982 10.141733019591396
Sc 11.30411757257503 16.784864284560943 12.82543251826099
Sc 15.353407817844465 9.735654831176847 13.092626080194412
Sc 14.962886636309351 7.355913840150992 11.044177343944721
Sc 14.297397046306212 17.531196788701475 13.29126049047362
Sc 10.716365190950446 15.158618906076898 10.113596872457611
Sc 15.92713038725896 15.042289242712224 13.852816308883643
Sc 10.226886383129976 12.708100262037984 8.189768058738919
Sc 13.620524527680196 14.939507361661985 12.015861437777437
Sc 12.769808605315744 12.743839882876618 9.826233414266698
Sc 15.456016189291667 12.585836701821911 11.682584786442035
Sc 12.317867313787175 10.255436526033092 7.975795941438082
Sc 14.739755387300539 10.059359640113874 9.877809966632343
Sc 14.369037200303234 7.7732536765850515 8.085404223394157
