28
Energy = -142.29842409 eV
Sc 9.79916988676824 15.213339202472659 10.553779301442841
Sc 10.542889550937296 15.21506535231856 13.579334506990111
Sc 13.780355754354613 15.235125156748719 13.735059998620105
Sc 12.283240362464289 16.779353984495337 11.358681111161497
Sc 14.830470256934266 15.22230676054566 10.782316126666485
Sc 12.394377031665016 15.191295360074374 8.84754544031324
Sc 16.296700130085988 13.533222835565518 12.982579737738032
Sc 12.291475363288317 13.831526115077347 11.409626681105387
Sc 15.273829985459951 13.305844504486704 15.835502502199233
Sc 8.130916691105286 13.50384697371234 12.581508068495257
Sc 12.050043165814042 13.460928103593591 15.840467941925386
Sc 8.865092568454505 13.274051788135143 15.531961044429076
Sc 10.484224913280888 10.750288112077849 16.080451014283696
Sc 8.085544997125181 10.793190967830423 14.09066513691759
Sc 13.614163444819905 10.80123940740951 16.264014266403795
Sc 10.605969998684964 12.113515765415151 13.460474834731299
Sc 13.74815305839964 12.129810857219411 13.592811007890118
Sc 9.73786373024048 12.087431303643712 10.287986834373172
Sc 16.156108153337993 10.818651189040859 14.483274401343587
Sc 12.310924565387477 10.480615454828147 11.040515482518678
Sc 12.460200322887033 12.127065155783525 8.637344521357027
Sc 14.967077670443834 12.109184760548775 10.529533394146856
Sc 14.036867946220026 9.400787240389672 9.047793606997315
Sc 10.798734362702097 9.404074638707202 8.906098246238116
Sc 14.805303980391361 9.37748071374731 12.099846856568371
Sc 12.328976767404322 7.643407457932775 11.150104735474914
Sc 9.770043970580677 9.379214113836403 11.945005157746882
Sc 12.206956963402373 9.255071297988161 13.930060042189806
