22
Energy = -109.05419146 eV
Sc 15.11018459615812 8.92192820315524 11.181311578055785
Sc 13.971797828589812 10.102596487128569 13.77031628223623
Sc 12.540737184272421 7.813533338223091 12.463685278853838
Sc 15.173735269203592 12.033003955947718 11.285380409899807
Sc 10.65226469410024 10.101080101588764 13.674764515017536
Sc 14.357470642261864 10.523084370716608 8.664459669327233
Sc 12.82316894443711 8.032294403694372 9.384496176244326
Sc 12.531455354187594 10.634430415890138 11.175106766404378
Sc 13.098933914052532 12.916962760836492 13.285904771485825
Sc 10.132148559136809 8.478014771247054 10.739369729895428
Sc 14.130748610622652 14.85154011279724 11.193542144300496
Sc 11.172326638214859 10.623001389652195 8.442895332907081
Sc 10.189160118636092 13.199861279272495 13.983630079292213
Sc 9.487906838110248 11.507447017544784 11.308761327014313
Sc 8.111292478879951 10.10025345858036 9.012213329233283
Sc 11.207359231952939 14.095360669338937 11.2854628684697
Sc 7.485008180870816 9.355968778755262 11.965191467552053
Sc 12.8700509525988 13.082799186867252 9.11799256820322
Sc 7.623708070178802 11.825655823495378 13.65962752645593
Sc 9.211019039833694 13.153227602147421 8.958147062411019
Sc 8.218949212782007 14.242033963586007 11.86358131660799
Sc 6.595618824398513 12.02597091888239 10.677652939198358
