27
Energy = -135.03052568 eV
Sc 11.830417037079703 16.55450467939875 15.454213724748854
Sc 12.752323514611135 16.55090343487125 12.51708274409822
Sc 10.434496567679236 14.784306863030682 13.451078464930431
Sc 13.218675700429262 13.863721209802542 8.340140605126555
Sc 13.454417469564456 16.69885372381314 9.476561329259555
Sc 11.28877750383295 14.8918751669911 10.416886065203895
Sc 10.163476763237275 13.401370653529376 7.662006111810727
Sc 11.078738838028377 13.677296712747804 16.118245065295316
Sc 9.041467016300425 12.755510378495353 11.017625285561357
Sc 9.809702451472123 11.68824043124442 14.196568610757422
Sc 13.475327894807954 14.32607973673379 14.34702648356425
Sc 9.433894204074912 10.392141304267936 8.408782056644554
Sc 14.293790070882684 14.312779831401876 11.159178322749057
Sc 12.11949439924385 12.47034817366481 12.328402404036604
Sc 12.84822935930297 11.268649310060612 15.15629411256573
Sc 10.471530430309167 10.54441526692894 16.989694071432496
Sc 10.052632002583534 9.956810216707545 11.644093016545522
Sc 11.369844864363536 11.87291331651449 9.638189966247579
Sc 12.063605238689254 11.070163883188677 7.085187312810806
Sc 14.222585931134832 11.29135851591654 10.03666289354966
Sc 15.187017297843484 11.440557277044425 12.91412162992809
Sc 11.24847190046423 8.881472224451304 14.663633313654572
Sc 12.971827332767768 8.962579759585932 17.1456757747137
Sc 12.950670599237592 9.642183901380792 12.33481309447904
Sc 14.528452519721842 8.68873806615481 14.565127406334266
Sc 12.139179792861919 8.995826103119052 9.492078671116966
Sc 15.41056136067911 8.789730385440345 11.285141084495963
