28
Energy = -139.04516917 eV
Sc 8.530772398372841 13.531786909894947 15.636927665872374
Sc 10.93733085909635 11.319857996554692 16.02561092512364
Sc 13.181533583358766 9.267701025388318 16.268835499487913
Sc 11.455799860449508 9.254524657484774 13.867811139965267
Sc 9.126847493578829 11.444905171003384 13.431737075019559
Sc 6.842767404898137 13.55519007713915 13.22256600603044
Sc 9.535406456850422 9.35184141881153 11.05921762672537
Sc 7.351199415533103 11.40515139678094 10.79788059938065
Sc 7.867382324946345 9.365411137532108 8.61212556585092
Sc 8.783555349076504 15.762848254280167 13.713627209479288
Sc 14.414709414351385 8.846389731885907 13.549359944289805
Sc 11.116189558967191 13.743620631573409 13.961822146376234
Sc 13.436668078119602 11.527894886832565 14.37418243107688
Sc 12.70523236855667 8.740287939974959 10.957489642020864
Sc 15.762107330925227 8.312031639148678 10.635024510171904
Sc 11.458494689211081 16.074278336069625 11.835438745392834
Sc 9.365879147016715 13.752945780504625 11.440395951516878
Sc 9.776178146161675 11.604844344911648 9.016946791627094
Sc 10.857319022497046 8.910162927267523 8.418694752307596
Sc 11.677332118697972 11.670469762527556 11.682883868313915
Sc 14.76977592135236 11.097391050471758 11.390680744579907
Sc 14.018814987317711 8.334481148627223 8.22924482555276
Sc 12.948281190230913 11.162269601751971 8.809606116264458
Sc 13.710121290951532 14.103822266343053 12.067606958901075
Sc 13.925841545996459 16.299102557528624 10.09342688598968
Sc 15.988307202438198 10.506397123990444 8.694675615553093
Sc 11.962129900660946 14.147438093674587 9.557639158603468
Sc 14.88547044760174 13.499603592882933 9.412077117072052
