25
Energy = -124.7294091 eV
Sc 10.080053005289749 11.043932582578257 10.517322767922355
Sc 14.931296559130088 13.058004502584462 9.054246832921335
Sc 13.29858858665903 15.144696429089047 11.396054940494258
Sc 13.039701392016438 10.463993402375637 8.876609828960781
Sc 12.372128345283407 9.51417802640337 11.947342084854585
Sc 17.77255605608975 12.200913614366124 9.936479851956447
Sc 10.39019620534961 14.269470110273103 10.94355356809511
Sc 15.443367569786169 10.656660686427845 10.772827284226226
Sc 11.055157137471689 12.249475918673067 13.11616934663142
Sc 12.89392734710339 12.249625034939722 10.972395881420164
Sc 17.481090079309762 11.545304344871296 12.961918687407474
Sc 15.927039170148872 13.6696865667843 11.853424322061471
Sc 15.057413445417547 16.299340780466437 13.586992600948143
Sc 12.043370018160212 16.898791564949104 13.764253722434166
Sc 14.43831590795731 11.540490259197545 13.62934438950603
Sc 12.966422549774478 14.241858336133195 14.197896070918457
Sc 8.270122659033248 12.575198064903516 12.558232155998867
Sc 9.722526554578899 14.885632705203147 13.84753252369753
Sc 9.533153076574246 9.824852576119268 13.36676657035024
Sc 12.049445627057935 10.170074951315009 15.002410267582171
Sc 15.85436454506832 13.73081767377579 15.075670978326965
Sc 13.884908808882388 15.89822517560558 16.327816974826998
Sc 9.806588996676123 12.29996935645443 15.673678022842907
Sc 11.024295988670966 15.154239689847044 16.397027612010643
Sc 12.96465495753015 12.71525223568396 16.524717302625316
