24
Energy = -120.47053138 eV
Sc 12.381197689678134 16.79822243327301 10.97705253300547
Sc 13.72208711551507 14.79709024066923 9.048394482869766
Sc 13.940548609330461 16.926035415914058 13.812979034383945
Sc 15.390146678118205 16.61551391940574 10.873909087212038
Sc 11.077932962804459 15.315184386878908 13.539641892086438
Sc 10.98408978171676 13.875811457650707 10.646070389399934
Sc 9.308495407934776 12.622442137132868 13.148670309707493
Sc 10.67958477346879 10.638635851543773 11.214755681676584
Sc 10.649781558497901 10.14085227892765 14.237747543152588
Sc 11.050534916080556 12.976916282283781 15.870009129261675
Sc 12.104598591371495 12.227904563723936 13.057667323455139
Sc 13.48432020777536 11.804460571107722 10.170697496494011
Sc 13.883939988386336 13.950089737837278 14.860505715859361
Sc 12.322924103360753 15.886515162779668 16.39123442413142
Sc 13.813852407479322 14.50956335974233 11.851927904289171
Sc 16.459579211652578 14.904707985338602 13.547308727400646
Sc 16.17164516365606 13.368928012987585 10.47361166459845
Sc 15.415961326432585 15.77314921333504 16.47164392999861
Sc 15.580702954871176 11.796534931462435 13.084293053418849
Sc 15.910445294082525 10.213092657344017 10.518241468428203
Sc 16.275350936788602 12.834922297865372 16.079031930647556
Sc 13.712575214328773 13.438005466185714 17.68422669707739
Sc 13.611227200911099 11.005258299053885 15.572109138430283
Sc 13.441350803098958 9.655590109274412 12.424398322326335
