25
Energy = -126.03581002 eV
Sc 13.048106913099135 12.90417072549981 7.67485078402463
Sc 13.815197788542886 10.124613005773831 8.704546803898623
Sc 10.93556205627347 14.618099646111478 9.081450193307596
Sc 10.462750016341197 11.192809347858582 8.473130594311936
Sc 12.118180373676399 12.08109881450207 10.267352118540305
Sc 15.27326442291313 12.144464369707363 10.445103888436314
Sc 13.780645082440213 14.827412648843987 9.962756155727755
Sc 9.732991872657303 10.487452576666888 11.560463763372482
Sc 11.654577172456396 14.226576228708936 11.95016532104384
Sc 15.143122060804622 9.203930869658281 11.473624858168447
Sc 12.138595495195615 8.998683931411673 10.833228346399876
Sc 9.055568102251364 13.164077692640282 11.139161279768885
Sc 12.153635511244206 16.765403193141864 12.019460551529805
Sc 13.47755109881509 11.260174585608855 12.668335225752491
Sc 11.211377331468697 9.16776371758192 13.686984598786188
Sc 11.023635031643456 12.261570291184814 13.79984042770396
Sc 9.476441791959415 14.873248378082774 13.83990699467244
Sc 16.138496165806018 11.339994174047991 13.493711880967462
Sc 12.312859999190517 15.050779223085371 14.721763552556897
Sc 14.587363588781987 14.175414873533503 12.853746775053411
Sc 14.10044813223071 9.351139084181975 14.740600168275444
Sc 13.753951846153415 12.386139213338833 15.409475003651727
Sc 8.664909723865499 11.430593501886012 14.488501825962683
Sc 11.506434932457884 10.529383846230655 16.25635882754576
Sc 10.353907774891958 13.354580345872057 16.375054345700807
