21
Energy = -102.79645657 eV
Sc 9.828024080933835 12.308507005960903 8.325133364921513
Sc 9.98805683363123 9.250066094127407 8.999759277801465
Sc 12.749203696228806 12.495263467355974 7.913498273594054
Sc 9.049152201222771 13.659610649435452 11.35206660917287
Sc 10.911275520136325 15.622805258589338 12.847045183067026
Sc 11.45293755801897 10.281920852650469 6.570694280915054
Sc 7.951212637624164 10.919303430371821 10.219388262839736
Sc 14.477973390654265 12.490149945608536 10.351025623726125
Sc 11.86127550405162 14.24501314924212 10.317826768529207
Sc 13.046935877069933 9.876314645896201 9.230063034512142
Sc 15.97619242571437 12.206021165402055 13.138531493440391
Sc 11.018636624720443 11.418028586735938 10.789949036365519
Sc 8.96259520583983 10.461358763396726 13.051448307028016
Sc 11.051658567107248 12.700709354764642 13.544188186453018
Sc 11.128803948925594 8.563593303899516 11.888317747484397
Sc 13.651200203937805 14.014155444163054 12.736869428326667
Sc 8.241606320791881 8.08973155485486 11.366514895451555
Sc 11.41041429958602 9.858641973135624 14.699466771097999
Sc 13.690272528796612 12.256185492288525 15.15711634938825
Sc 9.338067600882985 7.70561475131443 14.111339721336801
Sc 13.419373636822689 10.81640108176282 12.594229848069116
