28
Energy = -140.60065529 eV
Sc 9.040653504502883 13.83077722163117 19.340948425023498
Sc 12.965542020244834 14.402785052262862 16.654596616700704
Sc 14.967371428605938 15.817984208673138 18.55272734583111
Sc 14.748865810747729 13.58404795989206 14.281557648312067
Sc 15.661844144382545 15.932634173052595 10.278404461151219
Sc 12.649967264699823 17.334210134012707 17.402757241273452
Sc 17.76388234516868 17.715512073949704 11.591232356783214
Sc 11.491965246582575 13.1942444151292 14.337501729885721
Sc 16.79745747137269 15.370895099680903 13.038661220079794
Sc 14.719725534577938 17.546062506705397 12.680634967758568
Sc 15.728495871603554 13.041899920533629 17.13278575724133
Sc 17.96240846247007 13.463005662463065 15.194033707489668
Sc 15.87141255504115 18.38800687272314 17.44589700677559
Sc 13.319211449082905 14.708072682643474 12.024756129962924
Sc 13.474974905357374 11.529345498502645 12.626004749630486
Sc 15.894816798657537 12.970878887261511 11.390397167169889
Sc 14.911440243329263 16.425552471218445 15.545944394930707
Sc 18.57439404859112 15.039986973503696 10.60463557876784
Sc 11.016552298289815 12.38892555252105 17.610660745528016
Sc 18.66258553386305 12.764167191360146 12.577244369558823
Sc 16.32074252329957 11.165585048984987 14.042690793486305
Sc 17.534187086593516 15.86622399076481 16.784298991101227
Sc 11.781362488109414 14.809182218743372 19.287053385618353
Sc 12.09121802127706 16.256387841479633 14.396127901221957
Sc 13.581948232860505 11.26148443431185 15.673160301305547
Sc 19.52036142156431 15.73378703707266 13.5807794248278
Sc 10.1503912347731 15.10423507995675 16.836781608264015
Sc 17.354766858007093 17.970185451614224 14.591785299616346
