23
Energy = -114.66735256 eV
Sc 15.607359276746875 8.590821620583473 17.09616910362849
Sc 12.949614245562882 9.808881944694752 17.76207534762335
Sc 13.611744403234558 16.684288528070088 11.846980960554982
Sc 11.456498599080476 15.59842355296964 16.568548135199844
Sc 10.919019856708603 16.23461957378403 13.478247277702595
Sc 13.478509720833218 15.170316699202289 14.431587650007723
Sc 10.807932881225003 10.372473076934636 15.691616424133246
Sc 14.656214859342834 12.760095891629907 13.062112150891686
Sc 12.2613749696018 14.017015432226122 11.745624208345689
Sc 13.480914131343383 8.967612052992582 14.963625842478395
Sc 13.372950016512764 11.90434033548458 15.558129967039738
Sc 16.21101168361499 10.64833192094124 14.947522871418855
Sc 14.184095498610038 14.346054655719312 17.261604959284593
Sc 15.179504082760417 14.459862752530967 10.61669223233567
Sc 11.598997849029246 12.672231020279897 17.6565754262995
Sc 14.333819647298304 11.670086375065246 10.335525005909783
Sc 16.518064361523688 13.534254956925722 15.438067291585893
Sc 10.937986121980122 13.358392871169098 14.55038909843498
Sc 15.12148955629865 9.762748846696027 12.418489315143791
Sc 16.24045785387763 15.471515286382036 13.113920899551903
Sc 12.244952879774498 10.952244487721751 12.838668888249902
Sc 15.515389758498925 11.57686064866498 17.70513808002046
Sc 17.072411014316913 12.392581936551862 12.178358312784187
