27
Energy = -136.21220571 eV
Sc 9.858525028332174 8.12776083529675 12.27558160151958
Sc 10.6170532509701 10.188578467251434 10.135391097873367
Sc 8.688458244191912 12.44547656112771 9.574967182799561
Sc 10.842560808720915 10.921559450898963 13.212491533287567
Sc 9.954746563939883 15.190878016008384 10.087759093423207
Sc 11.385491919235372 12.780092245385168 8.219156890006918
Sc 14.105357579761916 13.67372099053895 9.197938048211615
Sc 12.959583155889609 8.936574307640896 11.993427646000416
Sc 12.051608717398294 15.667731199887877 7.987877132817819
Sc 13.666724739003367 10.758173596276949 9.666669602559836
Sc 8.666474903360857 13.334202298267206 12.353050566601711
Sc 8.040643935470154 10.487272613479204 11.903973510996531
Sc 16.500726397169323 11.779497744740297 9.194564341690448
Sc 11.547388336001502 13.04470865060819 11.105422415859573
Sc 16.047833975372754 10.473286769298436 11.934511925322482
Sc 9.308338342956215 12.658512154615646 15.182221837583894
Sc 13.79251131609702 11.899997808734923 12.492806095834752
Sc 11.555735281988001 8.368558939606169 14.677321057299118
Sc 8.746185510203865 9.643470702500775 14.812983911789964
Sc 15.990424566232548 13.685897620275242 11.494159084516298
Sc 13.932938592692583 14.764340256841631 13.294602346628478
Sc 12.936763139023402 15.869231575705328 10.824948766617808
Sc 10.978307424078542 14.89787284942199 13.370551068485582
Sc 15.846987497944722 12.596539055646431 14.352094222678174
Sc 12.467813298777415 12.857546019086644 15.160722147695212
Sc 13.980251007789713 10.133029858958603 14.862921787863325
Sc 11.088236796343725 10.58221945529653 16.5613293035053
