28
Energy = -142.99471229 eV
Sc 9.11525593849852 14.003708840051447 8.1840800164029
Sc 11.404349815529672 11.832123187334394 7.539069090644048
Sc 8.467941052271069 10.959192077025039 8.772061015363304
Sc 12.018396075264695 14.828083186350778 8.512545261080293
Sc 8.59476082456272 7.81744891392828 9.725796456758692
Sc 7.984092860480357 13.213238980051653 11.101082491069416
Sc 9.979437247602512 15.638359076410698 10.607888789759043
Sc 10.403724064333332 8.798500852784173 7.445981029492569
Sc 10.784501160383613 12.818355616903458 10.26251846063828
Sc 14.066936824765245 12.591925954764948 9.202068046444495
Sc 13.333431423550746 9.476448073726614 8.66549479354981
Sc 7.758497810573368 10.044723550233215 11.7163623019769
Sc 11.508136348833547 6.955819875853518 9.520082394696944
Sc 10.782269452959106 9.703859529764218 10.169047193382521
Sc 7.750700888817719 12.122205534175842 14.086569524589965
Sc 10.23892525011685 11.185614974728885 12.833441992021948
Sc 12.866347670820575 14.509884299256413 11.556251217287906
Sc 13.090336129040844 11.187230154532774 11.6180687436886
Sc 15.659942355186276 10.1858753098568 10.637507341705914
Sc 10.208080455817099 14.087492530463697 13.365336792858123
Sc 8.785262013245934 9.338965166378516 14.602035994201223
Sc 10.304887350056951 7.77574132525654 12.355506560770637
Sc 15.477721964082878 12.831003518078903 12.104848515983226
Sc 13.422583112525892 8.243336919146993 11.745584311214865
Sc 10.309155759191004 11.789035726996094 15.66462378318746
Sc 12.978054286613755 12.674907953208672 14.157554349204565
Sc 12.049743715984619 9.479832751209777 14.387835521596314
Sc 15.038654343758452 10.282572887209424 13.62482672437229
