27
Energy = -135.28426637 eV
Sc 14.77116394904647 8.825173898583428 12.60518002610056
Sc 13.251147189991025 11.222699020248108 14.52598370907729
Sc 14.900846602112187 7.583775759738833 9.69846575944049
Sc 12.628477588499972 10.371040810035742 11.607296460142198
Sc 12.120869637225297 7.48374885838487 11.221818180603755
Sc 11.963720887369808 8.594832465660284 14.04319322464911
Sc 11.924906164208586 13.616012569097565 16.024779903431327
Sc 9.674764901252304 9.751722217506458 12.219038708182753
Sc 15.036066522137107 10.530974215508753 9.77646557948833
Sc 15.195397607324626 11.93707973004904 12.522195101316678
Sc 15.082577187485377 9.250622948839295 7.140007886005169
Sc 12.590367091102085 8.971903288506468 8.62607639632717
Sc 10.275281657081521 11.021240800286883 15.045347879126354
Sc 9.649094098802717 8.48982376090269 9.478552601238407
Sc 13.27380438133043 14.220813635153842 13.4313638983319
Sc 13.24987233895845 13.227112861113993 10.4128591307205
Sc 10.87840631383577 12.685432382864818 12.501752653080453
Sc 13.143806641520227 11.775370662893582 7.690430650546729
Sc 10.658993668395151 11.375940309708122 9.586954177301543
Sc 9.310773693278074 13.819735867203647 14.802650147404162
Sc 7.806704030089433 12.237398284651523 12.820594340917019
Sc 11.054816867526007 16.091008780840713 14.358799848345255
Sc 7.71957538137746 10.753833559859293 10.124805207410704
Sc 11.137594915484183 15.430977493711671 11.298947840941265
Sc 8.732820499156318 13.720002288405075 10.3408576257659
Sc 11.134938507748386 14.141350503910894 8.430233919555954
Sc 8.45372087228575 15.520409185168596 12.674305813316991
