22
Energy = -109.25008939 eV
Sc 9.396968113080705 12.09726427982466 13.88384231006376
Sc 11.237545908065735 13.456593442466287 11.89221376490838
Sc 9.419382598273456 13.610309267432033 9.275574284457631
Sc 13.394260890674252 9.767905918091651 12.267602772722519
Sc 9.026198784674147 10.446077558606873 8.258272158127753
Sc 11.013469056893353 8.928766034281349 14.358449887658265
Sc 7.922168239302289 9.402039855949965 13.367072560547031
Sc 11.53758795399445 11.391218706569946 9.463655370164217
Sc 7.701855351294242 8.559272713783153 10.36723463830425
Sc 11.109243399126116 12.538017813717127 6.798296675598745
Sc 9.39431696597199 7.020587963267105 12.305536280625743
Sc 11.80037530864918 9.620580655443824 6.959351084870674
Sc 8.070081944612879 11.605134911589818 11.055086570112165
Sc 10.408439087213551 9.888084078162617 11.788413620185466
Sc 13.939737454020435 11.737634928358865 7.8404882530641835
Sc 12.290242317562917 7.23912447869186 11.902160214137053
Sc 12.403588477699273 14.220231054963566 8.998509922864796
Sc 10.546381144455996 7.922049508603758 9.420957559698978
Sc 8.444310280465457 14.510294944511841 12.072250862110572
Sc 13.399175114329873 8.951893544976965 9.425566811666965
Sc 12.46871955951861 11.815951910441353 14.055583595357163
Sc 13.895624492919346 12.393409413750053 11.083889983960551
