23
Energy = -114.66709996 eV
Sc 12.861622406389825 11.535198807356023 14.689825113704035
Sc 12.938168596129712 8.93452816347941 13.04305377292232
Sc 15.019755671000675 13.443960729268111 14.003434012942794
Sc 9.066942837722607 13.466267801211142 13.817886566605258
Sc 13.419652168035281 15.384313483450072 12.524222074819999
Sc 8.803008276683359 11.393972720839058 10.961510787928562
Sc 13.60418321092896 10.732514733141684 8.93195658805851
Sc 10.311409546792202 12.166376938400715 16.24999844108684
Sc 9.731570010496005 8.400334375988214 11.236351462703041
Sc 11.73143615867152 15.817491738370858 10.12598247091788
Sc 11.981949073931098 14.413974922965256 15.046239699730588
Sc 10.517059798073628 16.119316125307513 12.891077654297384
Sc 9.147997853453381 14.423934273747543 10.801822775548748
Sc 15.578164460031143 10.227390167916528 14.051341826968683
Sc 14.118352820560355 13.778549757282551 10.00713873731082
Sc 11.533541387610724 10.562235679799613 11.007364169164752
Sc 11.295628319784555 12.943096188837947 9.103495532658556
Sc 14.208787622175015 11.602005464946938 11.899813950072405
Sc 10.127985532780757 10.584591002573434 13.667816945166388
Sc 10.488414573813726 9.737744667164693 8.574217033927818
Sc 15.298473817327046 9.090238235500648 11.087279117836838
Sc 12.623864778706908 8.057543012136914 10.00316800797458
Sc 11.543841598009502 13.238730866936905 12.226882028168546
