24
Energy = -119.65371302 eV
Sc 8.461696108336557 7.0892221870984695 11.26084225927949
Sc 9.78953353817799 7.538003268263249 14.079087440084292
Sc 7.34917213133233 10.66844144928326 9.67518972819626
Sc 8.507977151968838 9.757780147989312 12.404407329863329
Sc 9.950835247417006 9.348111057285545 9.702762418827511
Sc 11.370183361894142 7.958794193817181 11.677549351576253
Sc 7.176409306107405 12.677237316079307 12.036231645102827
Sc 10.982116196410663 10.37796820144093 13.56108491697058
Sc 12.575036645996848 9.312327468268425 8.274408793547941
Sc 9.775903721545985 11.648707913017676 7.819404121079171
Sc 7.903607891565304 13.710654408108768 9.220446728338015
Sc 9.927774521594307 12.174152966945119 10.9002939655936
Sc 13.563871452029867 9.013559861176834 13.601303691998508
Sc 14.429676013862592 8.333455717367192 10.697210406396412
Sc 9.066119868136617 15.045387331505442 11.715792671034636
Sc 12.699808063265765 10.777035704395304 11.047790997237293
Sc 9.747670319632098 13.080058444259967 13.902780886061212
Sc 12.614181674273638 12.269794633791566 8.315653797068673
Sc 13.323957286394183 12.208966398298614 13.756434796872613
Sc 10.98628324309273 14.524657115983526 9.311564270058984
Sc 15.075013089987554 10.81581390452358 9.049184034177912
Sc 15.568627896292805 10.855813874297239 12.068003719208367
Sc 11.865626973457974 14.240151587151251 12.19272115759846
Sc 14.21631259513182 13.365308616135525 10.635049835064287
