24
Energy = -119.81523836 eV
Sc 13.088825102180547 13.855777657788439 8.576637454801169
Sc 15.748295851317232 12.594479094306829 8.821326250511424
Sc 12.330426484832142 14.864217077819141 13.294105732497403
Sc 14.523318033329392 14.194019481147027 11.105612498586357
Sc 14.479738167776738 12.826729995627158 13.841364754093673
Sc 8.192870295897473 13.446644863304886 10.383660752586373
Sc 10.415804197749171 12.284831267423058 8.936360314125308
Sc 11.766594486646202 12.513244079545052 15.018150299040018
Sc 15.079500782621771 11.033146399922572 11.39757517483422
Sc 11.024126531643248 14.780099205053357 10.590646371078396
Sc 13.168495800000361 10.98751994199334 8.984040031726348
Sc 12.274160948842287 12.25001710536358 11.679552862504925
Sc 12.973234471602037 10.097691029589237 13.656645303857537
Sc 9.957843158332421 10.013398482575983 11.145784212500613
Sc 12.712542729438098 8.790276352301692 10.863015553190923
Sc 10.462524228590762 9.191666193246819 8.368438008720068
Sc 7.746659857942137 11.032685878253195 8.726601328717036
Sc 9.624876913773653 13.074716346777436 12.928847017845309
Sc 7.307581941079804 10.905310792774166 11.861979079746215
Sc 9.87367763456533 10.219955585823868 14.112537513063431
Sc 10.203337178429893 6.924264492309196 10.513872029613117
Sc 7.741063474635402 8.390016115960849 9.764014208768206
Sc 11.17690242230006 7.632789117807041 13.208406991842509
Sc 8.26731930385634 7.9429701033049405 12.6665192438642
