26
Energy = -130.12138342 eV
Sc 8.155168517306988 14.685886482368433 13.401682330769217
Sc 9.593433281720971 12.247587768741587 14.346854513661292
Sc 7.992687822398456 12.047205948552358 11.815364513220997
Sc 10.997056694862833 9.566786323295378 14.696158854096815
Sc 12.46007177421754 12.167491389618123 15.736617835996192
Sc 8.745010479102179 9.195527117287476 12.672431476203716
Sc 11.099610352828172 14.877854814810387 14.315577599816821
Sc 7.587763518747983 9.669511318159001 9.859740529954886
Sc 14.061923317691765 14.810738471555553 15.019041209124719
Sc 10.311797392268943 14.048984412178612 11.514081837301388
Sc 15.403310339322083 12.15809133066697 14.725882670981274
Sc 13.079374521148702 12.8696460635073 12.992004422626884
Sc 9.5903786668125 11.761644525716502 9.177026353411081
Sc 8.99929977552041 9.638528793171456 7.190427439663231
Sc 10.326424045159463 8.739965995802045 9.663898957096366
Sc 11.51370029941931 7.848453649670926 12.431168645588047
Sc 11.011329697505232 10.821132799686172 11.869773372985692
Sc 13.652691541862625 9.900171443592226 13.400928062371477
Sc 12.707542305083605 12.62478590988178 9.930949176005715
Sc 13.20721476557658 15.519863938355629 11.919288922020725
Sc 15.901944286651993 14.383930411376415 12.719425141654401
Sc 11.912559605682311 10.481006287159405 7.731591419834183
Sc 15.391665260193275 11.644954775096876 11.393364655067943
Sc 13.388155771059427 9.580779723809073 10.281967139488534
Sc 14.942923867016143 11.50438841780162 8.368303223098183
Sc 15.231537949834273 14.22921634622595 9.832371696220644
