29
Energy = -146.86048877 eV
Sc 15.255776016166669 14.217300164347542 14.72688757154539
Sc 14.640171241357264 16.45452710536008 12.711248032298297
Sc 13.0546927803845 13.417470288767841 16.744922176360088
Sc 16.122584518367038 13.975801831129377 11.632006178973334
Sc 12.358531153337236 15.622728327536992 14.681460995826422
Sc 14.02414525914209 15.48548074269532 9.973313953033848
Sc 13.433264085032219 11.563430540869591 14.475709292458973
Sc 11.531040064888055 16.033816176471785 11.547260783617274
Sc 11.704185839489174 10.582091177271439 16.580643151255572
Sc 13.406347528875337 13.82393493914864 12.568388037454607
Sc 15.259324980050826 10.791008855852466 12.160820065307567
Sc 10.809113886106923 12.981144712399471 14.868637504411298
Sc 13.845479529993465 12.52064831894777 9.894942623583372
Sc 13.20015060116784 8.699023203466647 14.447483575275196
Sc 14.433142426610468 9.584849121992693 9.410432993612046
Sc 8.203552280501805 12.279590962587204 12.58763992050899
Sc 12.296516371183538 10.247461778272209 11.49751937836875
Sc 11.3224051475345 14.062900004308034 8.959687325945533
Sc 14.070057551472278 7.794046160010339 11.730505217855045
Sc 9.375766226947228 15.12472822670862 13.41942610690643
Sc 10.775085006649887 12.925710790738504 11.675530985235682
Sc 11.159369319108471 7.549403954343466 12.636990665854999
Sc 8.699417294648203 14.70508921156567 10.598476819475128
Sc 11.701000215186218 10.851742037759573 8.440741657650655
Sc 10.40220367419846 10.236003080392553 13.862095582386825
Sc 11.75203639773367 7.924741289935768 9.588498287353774
Sc 9.278484852406184 9.452655188081753 11.069504978978273
Sc 9.02751261439594 11.917123861376323 9.450704810293534
Sc 9.291745857129246 9.166803135395545 8.105146253336368
