24
Energy = -119.43265845 eV
Sc 15.095948317820193 10.282709476461989 15.347484390251278
Sc 14.219753325659864 11.757653692286215 12.953013659128514
Sc 13.599221383261659 12.79766960999096 9.981153068241952
Sc 12.467028110797454 11.571977061366502 15.665677187320448
Sc 14.804170248466903 8.77718136174069 12.681499627796079
Sc 13.517819863340817 9.821633196441665 10.126204547779253
Sc 14.540693350182307 13.59291863587123 15.242810004403923
Sc 12.314427480607595 9.135669129241023 14.194646290217106
Sc 11.497067976184518 11.124382071803678 12.003278453212625
Sc 12.523120856658021 11.185815572626161 7.413949869853727
Sc 14.069579895878862 14.76570056054649 12.393259553491442
Sc 12.084790344643142 7.791814661428227 11.58684444133001
Sc 11.526901309010574 14.060561816183641 7.769901277461534
Sc 9.690804177758949 10.980512194229819 14.46106794514705
Sc 11.665011519083041 13.638436922795535 13.807798987641553
Sc 10.667784221314522 9.211305807418958 9.18694128059675
Sc 9.338297769371279 9.129896786531793 11.958213088172503
Sc 9.509218236816773 11.864625824024976 6.934089785312553
Sc 11.269089572959174 14.576227698028793 10.933972664945006
Sc 8.897308119290262 12.944058563287221 12.132481906813426
Sc 10.660462915038114 12.06956973330901 9.47376527190064
Sc 7.021443803374059 10.766618998379661 12.905565408356576
Sc 8.673691454733081 13.990421232161387 8.9929286415416
Sc 8.00770196602772 10.95812532228049 9.963537189645118
