27
Energy = -136.79571101 eV
Sc 13.483945619915085 14.954681848452482 9.792348268549238
Sc 11.220282560511967 15.795000004257673 12.238219281081147
Sc 13.557171309798047 14.005291488767647 12.558895715379188
Sc 11.932951830715643 14.38158496667452 15.07304133556375
Sc 12.092211115429553 12.235874551455387 10.145119121047307
Sc 10.451331496077998 14.579232428280667 9.474687755749347
Sc 9.140592149702968 14.868304467406716 14.617720411061248
Sc 12.5768253010589 13.334461902347924 7.417375981607709
Sc 14.886131637230033 12.126417857102565 8.918107532104841
Sc 14.85770476365419 11.555043369716163 11.833915304718952
Sc 13.050031698403783 11.567598007292634 14.296681746912824
Sc 8.289385350479076 14.867640956670941 11.747535680650381
Sc 10.5746066033044 12.863459931826455 12.734777004953228
Sc 14.667195808993798 9.04951413379684 13.553438761380939
Sc 10.064560568928758 11.915948473596448 7.829468702696664
Sc 10.085909634992829 11.807444947655899 15.408447819519534
Sc 7.632161078078373 12.51275090123327 13.537778742755492
Sc 8.594426174631167 12.069768231670935 10.534066977667596
Sc 12.187759007225965 9.761564266601034 11.921322019967473
Sc 12.642444635023615 10.169370490720464 8.112546811571642
Sc 9.253874775908743 10.018808486049378 12.886214005487044
Sc 11.663594923134553 8.747580401205106 14.558554522956133
Sc 14.540953632832254 9.096446672318285 10.282929094717064
Sc 13.24321110599845 6.828394934113992 12.320466930688507
Sc 10.019854557863685 9.489371976490272 9.757085625253056
Sc 10.38987197405327 7.281394826577109 12.031731323828197
Sc 12.138734335906694 7.350022623846135 9.555571401962434
