27
Energy = -136.91288434 eV
Sc 7.435911570962172 11.836141805094673 13.531651964167105
Sc 10.17699686556982 10.873927779270137 14.915467323243169
Sc 9.573643137192342 13.968672774259012 14.238087861263956
Sc 8.613121124244019 9.038292423779971 12.572551470212971
Sc 11.036458089382501 7.8065339944094205 14.38320343770125
Sc 12.506966505221913 12.777868298054237 13.639080807038356
Sc 7.872641508645249 14.181639792819782 11.63268609879618
Sc 7.5473125620890675 11.1972210145967 10.37359492745012
Sc 9.928503331244439 12.178719631272719 12.023568922407565
Sc 11.663665001404278 9.774422367593907 12.432531087679225
Sc 11.075950695566762 14.874841017047096 11.55364165825614
Sc 13.26951741150195 9.919709704674693 14.787490158111625
Sc 8.098413094178923 8.0523228444256 9.54071401525209
Sc 14.024242277056203 13.89393514397713 11.121458336490788
Sc 10.755054928236353 7.069301425297136 11.21451928121508
Sc 9.531305353865282 13.268879925308918 9.029527662256191
Sc 13.65373412335727 7.753245499839054 12.708538668874274
Sc 12.511368860829622 14.715753303138555 8.720242291857417
Sc 10.291413397948352 9.811516887085128 9.858346421977755
Sc 9.190496452919866 10.426774284917862 7.353393330024684
Sc 14.42078017297554 10.827010179535513 11.796616706001025
Sc 10.707815641613871 7.618141035682899 8.008925357479743
Sc 12.131864628238151 12.030609037829779 9.823386002110716
Sc 13.237737414231187 8.670432869877041 9.769229034919285
Sc 11.547967568681338 12.6972131252045 6.761179899715781
Sc 14.410431376662611 12.1552368283426 8.504733526763655
Sc 12.272882349862334 10.052515048661782 7.331654759136299
