22
Energy = -107.85214103 eV
Sc 16.25581547634438 14.007180614476656 15.116006600056227
Sc 14.603764823913473 11.84425265695879 10.614543352616252
Sc 7.991376294449909 8.976708972290536 12.321136135016046
Sc 10.799747147787425 9.395318248122795 10.913698380060145
Sc 11.787684971517724 11.179060342838563 15.093096178264952
Sc 11.629023785127709 11.87035314783028 9.227453554524459
Sc 17.121244889204075 12.890333194575465 12.398515516067222
Sc 13.374067081445462 9.518195449941125 12.684394244134694
Sc 13.040877831898745 14.415594089733418 10.108932195433429
Sc 16.107900283837566 14.303028412611798 9.76431071907851
Sc 14.242905754546621 13.0118335386803 7.843260516319036
Sc 9.965788433510461 13.506946957502906 14.601754681539047
Sc 11.93982049440747 14.873937725247181 12.884398339040207
Sc 12.002675817461382 12.080084647396939 12.212540785212141
Sc 14.907076199393867 14.848488497441476 12.587030984293781
Sc 13.039448287534757 14.076739672830557 15.412221697211205
Sc 8.68000572236938 10.394255330081396 15.298222331311624
Sc 8.62837815163554 11.086664054041718 9.828813482671714
Sc 9.193465418420113 11.473883559273524 12.662995230486338
Sc 10.600770822752327 8.892703235312522 13.72983989367871
Sc 9.827619904752611 13.80748841005179 10.873101208559016
Sc 14.517111356776459 12.162770984915468 13.730375522310519
