24
Energy = -119.99605679 eV
Sc 9.964021941646836 11.431129284230309 13.081012411029743
Sc 8.78115182800098 8.8319056393253 12.350604239389837
Sc 9.24873910496682 9.144679507294395 9.540796999113983
Sc 14.13803085489217 14.239928233771654 13.854079002189872
Sc 8.398155797880026 13.913592485648453 12.829493905096204
Sc 12.872107317931562 11.596771843994672 13.590104953817386
Sc 10.596293620387712 6.910797492418237 10.984142569525888
Sc 12.798991187107552 16.470679013762076 12.413517631910585
Sc 11.537168904104142 13.804481844558726 11.900085997167407
Sc 8.873909080422889 14.210439649100204 10.02160867933666
Sc 11.51360498831567 8.325622114604366 13.86806880384591
Sc 12.345782916192194 8.884427525053132 8.917415068028403
Sc 10.521591933249635 11.783831050237756 9.806841721104705
Sc 14.998659154845624 9.482961938848785 10.543653296238483
Sc 11.889881658754376 15.045312243825277 9.514938038587886
Sc 7.75910373321149 11.463792633511742 11.004406336452751
Sc 13.422866411415429 11.95939115631749 10.314420589603953
Sc 9.893323082299931 16.305744251035698 11.880918136182805
Sc 13.50847449153421 7.08379101958161 11.484093663952867
Sc 15.633424662008906 11.922523842227967 12.391843910374183
Sc 11.854563229004086 9.579746721055468 11.48943336116638
Sc 11.042700542621722 14.513329320864482 14.468070238246696
Sc 14.525710804230927 9.169120374757657 13.351466668880015
Sc 14.61897865881164 14.547465691102547 11.04897092861542
