25
Energy = -126.30909145 eV
Sc 12.182412464742896 11.713076753048949 15.375867767893467
Sc 13.717932623316416 10.371315990102508 12.743050571115297
Sc 12.271716085500218 13.519891794756795 12.488312514624912
Sc 11.956060461207436 14.687148227649965 9.637983985889889
Sc 9.343613504019965 14.599052988298359 11.57959315747214
Sc 14.698024474088637 8.996220778972209 10.209140280666826
Sc 9.806575405182643 13.327810918219066 14.440510786687465
Sc 11.813537743750175 8.759241616658343 14.641297183134169
Sc 9.370115067030438 10.414978869575478 15.29610499377578
Sc 12.498152941047435 7.355013996425398 11.8884090370271
Sc 13.558209955748588 12.0240945914052 9.997407990689636
Sc 11.714869271573797 9.575890092329871 10.290868255580643
Sc 9.508909258903694 8.461359861107624 12.506597857543808
Sc 13.611987730051531 10.012839319758465 7.653767510701702
Sc 10.248334806407561 12.301517487702172 10.16754585132
Sc 11.551529735112947 12.401005079680958 7.465626457291279
Sc 12.82429872339806 7.260645843319143 8.674154247476716
Sc 9.2776501539216 14.527830687915777 8.347615304646432
Sc 10.872327322186132 11.000326209284328 12.967325432641164
Sc 8.055815473334501 11.620923740927326 12.48493261654581
Sc 10.04947838630144 7.163056021002149 9.749144549067113
Sc 10.635471242002923 9.336258213276519 7.502606528582839
Sc 7.284456706927388 12.867169893937373 9.815678291253857
Sc 8.571196883879438 11.722346758565546 7.414246592766906
Sc 8.430875237449335 9.83499641553784 9.850820433404861
