25
Energy = -125.61646815 eV
Sc 12.898257248443567 13.824533035513449 15.227423604459503
Sc 9.792765677520824 14.199648369610244 14.431689942736881
Sc 11.925214882371208 14.91003423177872 12.564064677847881
Sc 14.699003905717289 11.643347844590355 13.880794877301415
Sc 13.55793851109913 12.654320646514416 11.304674306469089
Sc 8.976739069826653 15.391646477905969 11.398347893928054
Sc 13.102410580139885 9.209700418742376 13.468987444784371
Sc 11.557309327263882 11.848884654493219 13.546929320226257
Sc 15.055158009814475 14.552381290868293 12.969755600540157
Sc 9.230984173627695 11.196864477537744 15.178868057129456
Sc 12.312066770494607 10.769324274284054 16.060876550567176
Sc 14.410102537340238 14.847861895374864 9.962322899695902
Sc 12.289982040957856 9.11232822122537 8.641964467432683
Sc 9.245122559954698 10.07202072818712 9.373412815000833
Sc 11.186269102210586 11.785556040442504 7.926128721912797
Sc 14.44758890423229 9.802217674746563 10.944778790600216
Sc 14.221842500720053 11.720120163828076 8.63700549733761
Sc 8.56984487252085 13.186474899270653 8.946123142183154
Sc 11.29499405414849 7.813564403600552 11.477244451261795
Sc 11.490436271333516 10.708795120174903 10.85092296664915
Sc 16.269066442877826 12.574399199698458 10.934946300059165
Sc 9.10888843761052 9.638763997182885 12.471890212430715
Sc 10.60357378694638 8.584756502861675 14.66127462814108
Sc 11.178652500205013 13.986871612366324 9.906178196863051
Sc 9.185489999486723 12.575285986066223 11.843096801306027
