27
Energy = -135.85903046 eV
Sc 15.956742305890593 8.99147653139576 11.715674248104072
Sc 15.087300752800408 13.755595742755597 9.564253475609265
Sc 13.176966706357094 12.643124717256526 7.407454404548669
Sc 12.410691762973226 12.819816818036289 10.07911944616258
Sc 15.721411386435642 12.055429141549709 12.247637351732651
Sc 11.965645090231005 15.20426470649288 8.832882151535454
Sc 13.680663258978935 14.395654808969567 12.27954924513645
Sc 14.48756049384672 9.432561219864498 14.220746413324385
Sc 14.47823776125285 10.783820280390046 9.692335892421118
Sc 13.062450101772512 8.493946454114127 11.36109843604434
Sc 14.731166982346753 6.650020745750987 13.127670382497493
Sc 10.226499562195844 12.725885117529252 8.06567867048073
Sc 13.95650161308983 12.543639679430155 15.06867675616811
Sc 12.043538340682005 7.683866420051265 13.96466780428097
Sc 12.898585546365998 11.291106335391193 12.534491671426354
Sc 11.213809417892277 10.18744481126262 9.352014090586016
Sc 11.420022464950309 13.462670245857149 14.011975363750373
Sc 10.045301590839916 12.468821384652488 11.436495061353533
Sc 8.690240276833443 14.54378635306433 9.605484514492694
Sc 10.54992473880457 15.32831501718558 11.781135147467007
Sc 11.573497400833105 10.546017500114802 15.077288142757668
Sc 10.205767556439485 9.641143980833252 12.303739563111181
Sc 8.084721434218043 11.369948965135015 9.995251547778352
Sc 8.907588856352866 11.886746985289024 14.335278517280601
Sc 7.702845363325356 13.897141377503777 12.25734535618332
Sc 10.598189956001164 13.026353727069303 16.700837218521677
Sc 9.057759231572827 14.86946446395576 14.771957831684928
