23
Energy = -114.76692759 eV
Sc 8.661765884311597 12.47452554072792 7.036337039444403
Sc 11.458220148558846 11.40225463536205 7.523299347692255
Sc 9.088653151746202 10.165568256041391 8.944017271425666
Sc 10.880001466101877 9.065213483192297 14.133342567846107
Sc 9.223958864002183 13.051391221160376 10.009101335500118
Sc 14.4293495272398 10.349008154507741 10.152948841458043
Sc 10.961906420157947 14.22130671475406 7.89160261625762
Sc 13.673748353541804 13.027096821747241 8.78080653546282
Sc 9.953581165384074 8.37170853464043 11.237158676792173
Sc 9.157074514635276 11.03274234645992 12.380615097723638
Sc 9.972822880615842 13.921820665774412 13.251078949164524
Sc 11.896840134309308 14.210931165136174 10.843774676715315
Sc 9.761327607695202 11.560106423846195 15.368840032648333
Sc 11.978700929944601 8.734810891329921 8.940251741749371
Sc 11.606578167558943 11.154303211086106 10.518646048277724
Sc 12.748275667117442 8.696755982897617 11.89299868644123
Sc 12.122495056549218 11.849446810495493 13.450555926243103
Sc 11.767162216975176 13.63991528600069 15.983007714852441
Sc 12.981758666987576 14.964110036965666 13.587762914806968
Sc 14.494006741278717 12.86357376654789 11.852002077569392
Sc 14.676996499783604 10.226684788159604 13.487919168312557
Sc 12.695511842231964 10.654882804615907 16.11714336606052
Sc 14.575647001025942 12.854891623666807 14.999706596150677
