22
Energy = -109.0385082 eV
Sc 11.070520505145122 11.57882142248968 7.0894407881462795
Sc 8.276241749804726 11.544560196966287 7.778495998100025
Sc 10.132013338365251 8.994225885713066 8.468129072710296
Sc 13.042595574086858 10.01203032393663 8.91541929618553
Sc 9.978773342222372 14.291238372198183 8.4928705255676
Sc 13.027382175084725 13.214812656160927 8.541631271412285
Sc 7.910985847073666 9.829091184506968 10.49125173174813
Sc 10.54888651100984 12.04305321912523 10.130063631158155
Sc 7.587614683314494 12.895645601500236 10.234828837017623
Sc 12.250241661525665 7.1541752773124925 10.073353476148451
Sc 9.43556526799196 7.142399833160516 10.875950539202536
Sc 11.768301780254449 7.4403040392954765 13.239275094918646
Sc 8.698953203281034 8.50219463507177 13.300825062730313
Sc 14.211122079438876 8.800673101117795 11.543742469735005
Sc 12.287884935077564 14.700222361360128 10.862334965725264
Sc 13.744163017955675 11.89107810054378 11.296574018556372
Sc 9.537194434581021 14.5825651553301 11.677155446092868
Sc 8.698694645906762 11.696916608720311 12.857345840305893
Sc 11.178726419265441 9.664465746903591 11.573722003149285
Sc 11.58943585664463 12.8079603466961 13.275510151381571
Sc 10.713568686721091 10.18998976986533 14.574147084918819
Sc 13.507152618591471 10.194999885748812 13.935957148079297
