20
Energy = -98.08928991 eV
Sc 12.247024671233461 10.51028838648677 14.92441011870914
Sc 12.021464300803547 14.27398671362907 10.114224772227765
Sc 14.23446704337496 9.84161656394907 12.70074993953795
Sc 10.708224160754314 14.700798829641093 13.240697234300937
Sc 13.655055261704264 15.259247899283436 12.456750921351855
Sc 10.246248686546414 12.71414985513123 15.326089052394957
Sc 15.176589334180694 11.14050878984846 15.359832365779958
Sc 12.179042187756234 12.244015241748649 12.449710602231875
Sc 13.305047375345275 12.583323298916763 7.801627420286861
Sc 15.241115549413399 12.789709750315557 12.78053399207937
Sc 9.216941526151693 12.944541808533536 11.136652917427776
Sc 9.187579921170315 10.86377609690148 13.267187918677145
Sc 12.652121075957195 9.083667697167934 9.532873693539127
Sc 14.301654994727668 11.467901841701831 10.242767151102012
Sc 7.896393978777295 13.584754298599787 13.752599326721993
Sc 14.941363374009926 14.270719919068368 9.829603098555516
Sc 13.228880800759399 13.486545947015722 15.007736257987272
Sc 11.193838453328407 11.490286151188824 9.66954115507155
Sc 11.398703643184678 9.25528122635178 12.18423114974639
Sc 9.16651602462291 9.693152048322437 10.420453276071807
