23
Energy = -113.23271266 eV
Sc 12.762107092911009 6.532175888110704 11.558491839730678
Sc 14.118562569676461 9.0775212238645 10.4062003495958
Sc 15.414277326102338 11.652254828632165 9.022828622446392
Sc 12.659239542961306 9.175776289133253 12.909873926564737
Sc 13.661012397780526 12.061210621672505 11.478902463976942
Sc 13.780888495368085 11.43015924898355 14.510107506735778
Sc 10.922543102854666 8.64939652435064 10.571296858675838
Sc 15.597086338278231 14.316674249904988 10.706564364496865
Sc 10.462535247915199 7.347825842138743 13.281079020239378
Sc 12.306558343146174 11.021004271552716 8.943082794205903
Sc 14.53166637412867 14.183381876016503 13.599493320226937
Sc 10.601988438483628 11.518370069091532 11.87116452736723
Sc 12.549713846844112 14.859189159064575 11.478681506987542
Sc 8.946592105012295 11.029395159387681 9.329666169916553
Sc 10.726209889568292 10.297464037772729 14.746119395302957
Sc 8.535773787600434 9.557777588719595 12.537843716964916
Sc 13.513362630225474 13.827688639754578 8.699296116451153
Sc 11.56686579997269 13.346587140050485 14.023407560614396
Sc 10.65399461642904 13.486042429609878 9.597889970841969
Sc 8.563522669013372 12.189579867278903 14.219396377002793
Sc 7.343852112835425 12.188340999246016 11.535420737791764
Sc 9.272941636373595 14.420831973632763 12.042992934823092
Sc 7.770438326975749 13.939145152552546 9.286303192999373
