22
Energy = -109.54124683 eV
Sc 15.681830549135837 12.219927693496833 12.938719888689453
Sc 13.08192537560711 11.552200072618307 12.10184021857933
Sc 15.385720031100252 9.484425096065893 11.22924453656125
Sc 12.654082581675684 8.508029449476577 12.414453333217217
Sc 8.4350002458052 14.711412377338013 12.133551387797251
Sc 12.507217161274001 8.630518422639097 15.561048566958585
Sc 10.04881020637643 9.997713722673005 11.016985283833728
Sc 10.36942877823662 13.213092229367588 14.377896574382445
Sc 13.10310881294021 11.644054677117303 15.264741980473673
Sc 8.114665856351104 11.697403922709345 13.045354780804702
Sc 10.228199757417944 11.687837814073728 8.464601220012826
Sc 15.303790556956805 11.953732507609827 9.696889052071459
Sc 10.460248030536011 12.873133240667999 11.408202453117568
Sc 12.79045395199544 10.182105272885314 9.557945059388407
Sc 10.763275383027082 10.348504343987994 13.879937975223811
Sc 11.607792195128912 15.584487975673778 11.420409043982588
Sc 14.851382299970915 9.546187493916614 14.108723345930036
Sc 13.05834752085288 14.159458221555997 13.623390434666588
Sc 12.534816885370935 13.381261785520913 9.244427115573341
Sc 7.802101207584707 12.451986071398903 10.15250558757513
Sc 14.520839300412794 14.381769603006152 11.144087722426377
Sc 9.58587945587691 14.63576231739159 9.264217428416984
