27
Energy = -135.66928897 eV
Sc 16.753498428137455 14.190140237976282 12.04985388591232
Sc 16.294417893165416 11.088707115737513 11.925178968746742
Sc 15.952867777860003 12.82910891601295 9.408184177975764
Sc 14.801862379313924 13.128739146572073 14.381311796740974
Sc 14.44164554667653 8.094457544373634 12.009144404812968
Sc 14.005229985209303 10.479791324773322 9.928441087893956
Sc 14.469828234613276 15.907900990357156 13.02382799671355
Sc 14.944091194269788 15.67107826339748 10.0061932883161
Sc 13.634581372586295 10.60825727573317 12.996666233193364
Sc 13.87126043930783 13.31169023361356 11.529712173576462
Sc 11.951710863468579 11.583783985933454 15.08059542174573
Sc 13.016036564421366 13.58849818462558 8.69995546355329
Sc 12.042526042025758 8.440090001567942 14.245886016574282
Sc 11.641473576378534 9.09999194654393 11.447246670488237
Sc 11.028581100245278 12.29804539832827 12.124039948459867
Sc 11.91886139915603 14.466483442208842 14.008818928907218
Sc 9.494466290912996 7.219233012695704 12.543506889337001
Sc 9.410252083835484 10.105993865426386 13.397677797717128
Sc 9.317617657111619 12.91844400788982 14.905130914671991
Sc 9.052376845155848 8.955362285763293 10.169079169133255
Sc 10.073025859334884 14.028573082746945 9.561099950672254
Sc 11.975068364378709 15.677801470232142 11.154735145030887
Sc 11.066927397212789 11.250461841550088 9.323245129215323
Sc 8.288827883648258 11.719790821209532 10.777043979978389
Sc 8.999780283434223 14.390239840112182 12.375608766897525
Sc 6.883240658157748 9.160001578126613 12.137590902925275
Sc 6.960983591298958 12.013987053742778 13.357892607248287
