25
Energy = -125.15782359 eV
Sc 11.261236698832457 10.996499932787454 7.741380967293352
Sc 13.064021073950325 9.093704844784172 9.078604764414688
Sc 13.880037747233066 12.239066140611992 9.211716718305807
Sc 11.157236315370119 13.77133389611682 9.263641351936512
Sc 10.070320062180636 8.786153831315428 9.81125454189578
Sc 8.86184083467813 11.70069358522397 9.338727226647581
Sc 14.25422182855989 9.562024690057644 11.942283667142384
Sc 13.502789684655765 14.930544872249989 10.788054652277179
Sc 12.363636967221257 7.303540100012815 11.380719133546814
Sc 11.520103728938546 11.059665743105263 10.673090778017858
Sc 8.644664055064533 14.342707243056193 10.876914523655985
Sc 10.695009751392918 16.329841156851327 12.08711670235329
Sc 13.28507386965672 7.700654109799276 14.172498036279752
Sc 16.201728557185064 13.432656208059433 11.563481684985389
Sc 11.15522379905002 13.612523209600953 12.46023754467737
Sc 13.729291372704834 12.366988036628332 12.228497129070998
Sc 8.812255854128736 11.633492532449045 12.342021642770835
Sc 8.779429072034983 14.524059507385637 13.78721809436134
Sc 14.34633474308206 14.69012986481646 13.717872746200035
Sc 10.790285983322217 9.189689076997597 12.960625600758497
Sc 11.44314404565706 15.144394984966679 14.961876871172969
Sc 15.666273453793709 11.823949483442195 14.24333718922525
Sc 12.855139912415943 10.649982125611686 14.42497491570992
Sc 13.32372105386398 13.01586298255076 15.959555426978326
Sc 10.371585244738123 12.13444755122878 15.018903800033062
