29
Energy = -147.28827234 eV
Sc 14.744069971095731 12.838127757416917 9.057064334412418
Sc 12.801047813572412 12.080847255763267 6.885853559225734
Sc 12.126768827423023 14.440634060802683 8.830194840466255
Sc 15.91970573350331 12.930354065608348 12.321127268365613
Sc 13.281726581948895 9.668698985017615 8.938029617812784
Sc 14.242398471841675 15.04121235828841 11.123037450273609
Sc 14.80705783692439 15.23386044888711 14.111565142037145
Sc 13.475484872314263 11.660941527091229 11.294760293206712
Sc 15.98380148524607 12.688926399259074 15.368778107635025
Sc 11.196193402134128 11.689525506940758 9.322085373354383
Sc 14.820477047611092 10.162120794296776 13.78585993730327
Sc 10.677176460503457 9.906242612473914 7.064711007748258
Sc 9.833480474225968 12.880869782874491 7.0342525991249785
Sc 12.562729131726641 8.67511259228105 11.995880136466605
Sc 8.293251569701145 10.936086964921355 8.739556353684966
Sc 13.815160463034188 11.121073938602827 16.670520342486487
Sc 13.65199761797977 14.173905816728027 16.744573347375063
Sc 10.710307559704184 11.090507481490944 12.422716219957243
Sc 10.205044818176905 8.978109801765704 10.099633862535995
Sc 11.617985039513881 14.156984634703033 11.84948750323696
Sc 13.219211966892347 12.6584724499016 14.126534550260317
Sc 11.846236685495454 9.708413264232899 14.839337588230244
Sc 11.741478700855767 15.332154385491048 14.711237686061068
Sc 9.081823671097535 13.346314002909768 10.41808908222999
Sc 9.671525028834335 8.36018016977499 13.07438568612987
Sc 10.942879302269393 12.600146469921574 16.086449574402813
Sc 7.9590810948257635 10.719448809196209 11.811315477024717
Sc 8.819268151278678 10.645024892238624 14.860411558420768
Sc 9.257819690463618 13.394950362989267 13.65848380568138
