23
Energy = -115.63252469 eV
Sc 11.749130603749073 6.612674315393351 10.865162267688865
Sc 12.478493815154476 8.842665779504044 8.549197683792835
Sc 9.63132159711963 8.099768844184357 9.269916095169952
Sc 13.824117936243681 9.060423279868944 11.558344118389194
Sc 9.727926979731825 10.861150819694503 8.14860414246165
Sc 11.515057758939568 7.760619960240867 13.788432412625724
Sc 8.94147823694136 7.148392769975356 12.055845270871584
Sc 14.905283869203076 10.803937313483049 9.085438459643639
Sc 10.88209948100011 9.177839620737844 11.620663352787043
Sc 7.50355691234949 9.753351756628877 10.625901295778588
Sc 12.620093755994803 11.795304847740422 7.2269693392391625
Sc 12.229835102281957 11.393817346598711 10.067063474718738
Sc 13.825862774186632 13.737119800968337 9.321839578434806
Sc 9.568782747260116 11.835707947855282 11.15198935564472
Sc 10.58263871588135 13.771131568099435 8.884991664613214
Sc 8.856511037025188 9.979641646870961 13.631586795409705
Sc 14.508556976502776 12.142918192849482 11.852470089654508
Sc 7.484018366467548 12.744835790592903 9.372243705985346
Sc 12.04233226737659 11.132157649259721 13.510034015152389
Sc 6.9836624379987455 12.291253145311373 12.41131822735697
Sc 11.89253720728518 13.929258680020071 11.929319415839696
Sc 9.596899039007507 13.038581416944258 13.89901423306079
Sc 8.778543619341914 14.663325592769725 11.436971223256348
