21
Energy = -104.08893256 eV
Sc 11.069244667478175 8.800796085578607 7.473272919977475
Sc 10.608213141139544 11.7792306398913 6.776394883573422
Sc 13.341540656022941 10.802625705142434 7.802837870737821
Sc 8.445229530875572 10.148600186360486 8.235276241467462
Sc 12.174492471066175 13.527437777428684 8.792855611914156
Sc 9.821053127188586 8.12620926833555 10.263685091421538
Sc 12.911995442756036 8.537730873994636 9.989468904185795
Sc 13.887046577027215 11.827608219169942 10.723939296847536
Sc 9.016741537014017 13.105837382945248 9.081298521014327
Sc 10.978168812451164 10.91674630143686 9.641324124913345
Sc 11.744180857321119 7.0558965454598574 12.45002724801248
Sc 8.162193487147139 11.055660554493157 11.232190923849872
Sc 12.337763980765212 14.311930000313437 11.810121290959984
Sc 11.120179636991674 11.720173948590924 12.514172174654266
Sc 9.157997934918706 13.88467249378303 12.101198899630216
Sc 13.210100525972674 9.592701602791966 12.757632474794281
Sc 9.74079647349972 9.124882202209536 13.066001356791245
Sc 13.66944641075628 12.386399552257409 13.878872457244949
Sc 11.035368781631751 13.74918797069958 14.620616703529596
Sc 8.76477831726305 11.724948301164009 14.319017878696936
Sc 11.51872419353199 10.535980950772238 15.1850516886019
