21
Energy = -104.12036728 eV
Sc 13.240980605623582 8.334534708957804 13.643811471564339
Sc 14.65854431136436 10.169330371381264 11.791642414114447
Sc 13.398711955590997 11.212925841722146 14.325910704828521
Sc 12.521161173858998 7.90248578007537 10.748163928149845
Sc 12.991737647570258 10.727614016029072 9.214376088105103
Sc 10.83333773844579 12.629111330691702 13.87146425287624
Sc 11.654480581886252 10.56799012127701 11.91849015160116
Sc 13.17393877525896 13.026651463462171 11.73109737279411
Sc 11.072363914512867 6.513399134188338 13.175122974743026
Sc 10.2503035806137 13.929978228817607 11.131948915615695
Sc 10.472894378589043 9.391945755248138 14.314168335701348
Sc 12.328473144449596 13.650448054894115 8.792566196719433
Sc 11.173902961854308 11.581629066070514 6.814122925962631
Sc 9.98605299557194 11.643764008185899 9.499225319065143
Sc 9.5545268332286 8.453041362129909 11.506141138815158
Sc 10.333635386654576 9.030479460907483 8.632685641721826
Sc 8.5475051047181 11.279053559813796 12.268810085667807
Sc 9.53943300014085 13.973536001945964 7.757862373803198
Sc 8.093134377674577 11.360998670317928 7.228712958949188
Sc 7.387629672878178 12.922450457236678 9.772321235019236
Sc 7.432247907436311 9.870016772691827 9.778433232322245
