22
Energy = -108.10899767 eV
Sc 13.006808488069577 11.076697977095135 15.115471857700488
Sc 14.282151798818337 12.52606047541299 12.660910783481626
Sc 11.18997231598927 9.274951716065598 13.552843620952052
Sc 12.68315517461221 8.451340769985578 10.223177812550905
Sc 9.823764878230529 10.960845844199294 15.474488480620535
Sc 14.127873390998058 9.483684323174682 12.748400842945095
Sc 11.3751694862552 12.864207845462062 13.587014692492628
Sc 14.835728157585413 10.65084096200708 10.11593640774937
Sc 12.70557502285623 15.148853773143095 11.958626094715255
Sc 8.166143905613186 8.866113838242052 13.743744403800166
Sc 9.616958059880307 8.626730173882788 10.948319631645854
Sc 13.391268383741458 13.492369085229837 9.62033237020406
Sc 10.482359218859546 8.48224631735858 7.985951664081765
Sc 9.040591436132956 11.381188952545545 12.54570605564432
Sc 12.019856073142812 11.145596542047869 11.111918240569945
Sc 7.661598981983466 8.613855416287883 8.586751724267367
Sc 10.373563693840213 13.804756542641211 10.691515716158685
Sc 11.833229262055536 15.995703475448629 9.222044011241334
Sc 12.519307922314145 10.762794418179368 8.18987948643412
Sc 6.914521875508583 10.111372609038094 10.96536779101802
Sc 11.001049453618252 13.458234158262124 7.82072146720783
Sc 9.439201636985588 11.065971902451002 9.247228968020593
