29
Energy = -146.36256668 eV
Sc 16.090588458179617 11.246702649558072 9.282140029777272
Sc 15.218362531930232 12.18641538174055 11.963165644802796
Sc 15.492587730476886 13.5273670076132 14.694545325822203
Sc 14.282907522078188 10.579412803636554 14.466767115293978
Sc 14.67903274912986 9.21053948172344 11.426545838098024
Sc 14.30431970402796 9.078898609789789 8.34509603743346
Sc 13.546165385102189 12.708777850339766 16.589511655994304
Sc 14.040642069079846 11.825119702342604 7.211393918563979
Sc 14.305231619611824 13.907983790260245 9.40492614052814
Sc 14.521898200430742 15.068592275185111 12.286295171197008
Sc 11.691747976470294 10.025947400506716 7.3009750094068355
Sc 12.838224424430072 11.317771587537717 10.195597430949217
Sc 12.638478781007986 12.92704006267288 13.646158369897728
Sc 11.888944852776335 8.393215349435442 10.051701050975996
Sc 11.996874280355048 9.473750198199063 12.846525746120255
Sc 13.144320952961856 15.491429246063833 15.025443067299639
Sc 9.233130831900652 8.82583880863183 11.617670247891889
Sc 11.799200756632565 14.390787948792466 10.975210298878824
Sc 9.867518698119309 11.778950399764751 12.535049279826529
Sc 10.968403945002093 13.915233423682404 16.337037942271863
Sc 11.417786569571659 13.156226703170535 8.217117934264225
Sc 9.865486154155212 10.837331220896782 9.505619022723518
Sc 10.990725648765332 10.965121213264187 15.411039398891406
Sc 7.808409850526172 10.233070526935398 13.981962331112943
Sc 10.005440950587628 14.731520583440666 13.523182496325745
Sc 8.928546480214365 13.668200342991565 10.423255559007037
Sc 7.244100166137194 11.029462372605206 11.064739344275319
Sc 7.141624924353346 13.187353031458978 12.906143331596958
Sc 8.499204498694207 12.778525129711769 15.388123093143449
