29
Energy = -145.21352855 eV
Sc 12.887476337940686 8.40335578814551 10.054149554291062
Sc 15.709201486139479 9.180764428893564 10.134360889386958
Sc 16.594009285235543 10.40228361004599 12.682082894455338
Sc 13.446128144177928 10.508349067322946 8.060595859710459
Sc 13.951505146330932 9.066882471353981 12.874540322841165
Sc 10.518971189201277 9.466494104530053 8.696509456837743
Sc 16.295823989642923 11.5688273376093 8.67328578911952
Sc 10.974247899181766 9.8965776553707 11.765495240807438
Sc 13.82069946368485 11.383983098348878 10.933322637090436
Sc 11.122439606053238 12.197525285170613 9.491001729377889
Sc 16.309832367413296 13.023409230434538 11.189852337616236
Sc 14.10735284467291 13.594606001179127 8.87534635388984
Sc 15.03475045920954 10.01266038791596 15.505307042076168
Sc 12.092530664044938 10.666166194732424 14.711436574543539
Sc 14.505902532029253 12.364237724619302 13.799596295344763
Sc 9.02532078945703 11.566766780664233 13.437591710808205
Sc 13.440233919309492 12.47479666117383 16.735070900750983
Sc 8.422679717375104 11.10029370285365 10.522446556257465
Sc 13.830759024861743 14.765563944215334 11.710970726622122
Sc 11.641688293640103 15.078768150680705 9.850633839725713
Sc 11.481146766538076 13.13873306357097 12.763523726860221
Sc 9.008703491841132 13.99498239729182 11.092852535066342
Sc 10.629460104162682 13.259089113152697 15.906954364111952
Sc 12.98538766777089 14.96328706664348 14.930376804356824
Sc 6.582403629652599 12.80669302497666 12.34008970547108
Sc 10.985148863604678 16.095574151354207 12.719053991073249
Sc 12.18021782801354 15.018936396672297 17.81813451740952
Sc 8.691938315890557 14.549959862550123 13.934569639690256
Sc 10.47756032499504 16.256395119120675 15.785949309985764
