28
Energy = -140.45845269 eV
Sc 18.7208502388414 12.150954104590499 11.630441121077661
Sc 17.17377901525963 14.774876207671007 10.920031678222237
Sc 14.189283747451142 17.601301211120017 16.591843161836664
Sc 11.551422922549563 14.676570737107665 12.666009468460137
Sc 9.849711421762148 13.861165294483515 15.097707826792625
Sc 12.762805253116586 15.741377922681027 18.752390460131863
Sc 18.099383890721306 13.988876451943554 16.471216608342615
Sc 18.887491202466258 14.37975113095788 13.613780045057597
Sc 10.876675909609988 11.394184770018569 16.42576821528248
Sc 18.716910289145392 11.59379161011761 14.723339046457443
Sc 13.011200552231692 13.632897206789433 15.08519083768003
Sc 16.298442582199545 11.207300343883976 13.103789979647344
Sc 10.92884662892501 11.666005719143335 13.48447997195464
Sc 14.12930626083553 14.710282635453343 10.98168933233148
Sc 13.495477805724564 10.624292256444974 14.917458694363852
Sc 17.58956929582439 16.97314452809715 12.730890647045332
Sc 13.139485948279207 12.755762929379681 17.882896081856313
Sc 11.558560349765456 16.148546237826487 16.0478211826373
Sc 15.941443758495094 14.194694676796527 13.62246253132188
Sc 15.546405164231398 18.941730633287868 13.915558307915818
Sc 15.170464855455077 17.421395364722482 11.262406682355468
Sc 16.820768930571614 16.627019011850436 15.421235087841124
Sc 15.164553667498442 14.88427705668488 17.118566400081075
Sc 13.570763795198543 12.245261129447211 12.359519599826568
Sc 10.443618142000334 14.044838593817982 17.997649727436702
Sc 15.957681029682012 12.205152381805814 10.341708531360576
Sc 13.899171902675185 16.438554544415613 13.777914677159606
Sc 15.860772829390664 12.155528853489253 16.046143241508876
