21
Energy = -104.24803546 eV
Sc 12.51523226785652 7.39255880271468 11.299761671055881
Sc 11.785582755945743 7.641786436206832 8.119449370587835
Sc 14.37794607015945 8.946274567571738 9.24539023277406
Sc 9.033541789285907 8.37315814834328 9.48699208892679
Sc 11.680217001664708 9.61105699325587 13.493499768586922
Sc 14.16778143133757 9.987205122641354 11.98760851334773
Sc 12.712288030296088 10.411343997345528 7.209878525737699
Sc 9.6323527651028 8.037686679225121 12.346035529843947
Sc 9.796836762938302 9.853770863879767 7.15423630031056
Sc 11.688041015070132 9.875922369737482 10.04085320109894
Sc 13.593608721905504 12.119091639672114 9.70977010212142
Sc 9.595224263707586 11.366317558532659 11.339848761144482
Sc 7.643557944392017 11.177884674762696 9.113467156796633
Sc 7.1341639582963605 9.40972417892485 11.675245090097627
Sc 10.580283374178753 12.436180219250447 8.426829718669758
Sc 12.297743363766696 12.338179971937896 12.554111178351347
Sc 8.773706135468537 10.64873262112645 14.043335758141508
Sc 11.39518821867399 14.259296349333221 10.64747844387512
Sc 6.897434610846132 12.305961279285016 12.126131735857262
Sc 8.481394086598744 14.00111037336167 10.236268226330669
Sc 9.50825928672397 13.70452732213136 13.112739924541147
