20
Energy = -98.68812078 eV
Sc 13.612372787590258 10.964923520447082 14.768391269153684
Sc 12.478593989335648 8.34749590307786 13.594262860173494
Sc 10.483417912162933 10.455115645021541 14.862686944067573
Sc 12.265408611586192 8.539270737650831 10.378591027063974
Sc 11.678493572639477 13.281524485181196 14.226619950432962
Sc 14.662797129887064 9.816745072490047 12.10078458857821
Sc 14.154222251486091 12.941913427097035 12.349185549456696
Sc 11.901109566174009 10.98730955072859 12.292232097066924
Sc 9.75125154568165 8.737037463249042 12.312343712287072
Sc 9.223750499551883 8.444378338637076 9.226374267299105
Sc 13.591884430519187 11.312505021789729 9.683171404084035
Sc 7.591423643331977 10.400753911256379 11.072260993895751
Sc 10.212483370751716 11.053509237242949 9.823463411399974
Sc 11.596434471009104 10.091787391388543 7.570623475276797
Sc 11.351358942602129 13.878384766203844 11.235261221132367
Sc 7.44641042161989 10.697281649710032 8.175822292896253
Sc 9.144954014349759 12.390886930786307 12.734521416519206
Sc 9.408893858811053 12.098290873678565 6.836562122040302
Sc 11.665523014896296 13.159069929499642 8.315328261562742
Sc 8.54493415723179 13.24986695847412 9.585733626316832
