28
Energy = -140.05874642 eV
Sc 13.996670339342558 16.533583814716373 14.767509046372002
Sc 15.325145451325032 14.130445677407524 15.84151163367539
Sc 16.2718065945734 15.26966576599464 13.207369770251994
Sc 10.916097597303272 16.255204372448947 13.521312573049793
Sc 12.523790886007284 13.849520352822958 14.743875745834156
Sc 13.55715163798044 15.178876722983981 12.043432105509282
Sc 8.163900158395258 15.802951576089896 12.21223836818898
Sc 13.923436543656308 11.163674199676612 15.80513241454359
Sc 9.497721959151031 13.611942340083187 13.677762352557146
Sc 14.861362947180316 12.563975570550399 13.165521268270803
Sc 15.827375526496823 13.740009402480862 10.618419535862918
Sc 10.63174554954194 15.049921877059784 10.77472867506578
Sc 11.178644012913388 10.798678814519477 14.684595706433868
Sc 11.795152134198043 12.525769785754571 12.030875251830071
Sc 8.59104339416013 12.926532007805072 10.90874571369808
Sc 12.66347910831917 8.386914915788571 15.648808503888592
Sc 10.50326294942194 12.202275041090926 8.742348285704736
Sc 13.535493725493549 9.678141794104313 13.102921819409376
Sc 11.361348736266761 9.996880573172335 10.59560690846756
Sc 14.390246801848898 11.006314244774707 10.517175932946776
Sc 13.120584506979505 13.527379269108533 9.351564610394528
Sc 9.088648704251495 10.480594496180213 12.515137567527843
Sc 8.452063650885009 10.064131979418795 9.542044884152567
Sc 11.032674429405285 8.15299254712393 13.09869315068791
Sc 13.039367381546386 10.68198779777696 8.041288084892038
Sc 10.698008015224598 8.832783246805226 7.982157678142131
Sc 9.763339749408527 7.5296909229871725 10.394026636701321
Sc 12.928918060394633 7.933681680643715 10.06959400667725
