22
Energy = -109.41780962 eV
Sc 13.778086835395799 9.170743779833238 13.43282040495957
Sc 15.507953202154159 9.93499311547944 11.024021388395518
Sc 12.67011515039759 7.946967113831171 10.610786791791158
Sc 10.682259830048467 9.071711689753537 13.057652811711847
Sc 14.232276498537885 12.623847665669775 12.971466554742898
Sc 13.765868630230049 10.150602388867878 8.468708307290754
Sc 11.861082054035709 11.408397382447 14.436912613897924
Sc 12.757565721519082 10.61287852379158 11.160206995638154
Sc 9.449489760568653 7.741507472071161 10.640357286475677
Sc 14.567773375577815 12.68722947083108 9.916319162168662
Sc 10.711025024609977 9.52847218625605 8.445800031440177
Sc 7.536630196210447 9.418273913429507 12.365565011683902
Sc 7.462434939746064 9.546411320534137 9.25864051142222
Sc 9.575029732727371 10.833980701889146 10.799840327727722
Sc 11.593933562430513 14.462085114153926 13.992342845113116
Sc 12.87635537447208 14.996907488269787 11.04909398483005
Sc 8.991073999281362 12.10385805478719 13.480219172568868
Sc 11.46064822616062 12.811926067917266 11.912348694712493
Sc 11.698951944361099 12.697205703123123 8.876631977534915
Sc 8.664394058389734 12.244779258235683 8.384533849908813
Sc 6.99029116333738 12.132552152069087 10.970576935146406
Sc 9.360883341997946 14.179608038907904 10.81641308435892
