25
Energy = -126.05627006 eV
Sc 10.455601288290763 10.659683141626212 7.751388823326506
Sc 11.935395348559771 13.199128805291972 8.344508541453804
Sc 11.00152651832349 8.125349080715475 9.425969983133538
Sc 9.331407947973148 12.986636861717837 9.62343063807982
Sc 8.84217867903607 9.995302058638043 10.922177922195383
Sc 11.043266166465635 15.743757845940907 9.882117663008934
Sc 11.502788551050347 10.753994899670268 10.375899527165263
Sc 14.19144973670474 14.291889526950946 9.9738199540518
Sc 13.905835952002263 10.92445249020236 8.747109390025734
Sc 13.758570446488914 8.725066458433844 10.986560497011366
Sc 15.04880628649601 13.951598483935728 12.94993530009205
Sc 11.767650726794056 13.659168516105211 11.573537734216563
Sc 13.86827957353934 11.594176722805033 11.75073953071949
Sc 16.20857228075357 10.597050897120635 12.619246443283961
Sc 10.04082103754539 15.365666635607015 13.118421241219947
Sc 8.787290704770111 12.595983350056287 12.567650706967186
Sc 11.046152342190105 8.468784805881082 12.477202938373672
Sc 12.925800573163153 16.190046084199526 12.24794547422145
Sc 13.661571040631397 9.189442833229977 13.923121043417238
Sc 14.34928670521894 11.767913392100471 14.867601557099887
Sc 12.432420285739877 14.137073645785815 14.616640223858546
Sc 11.445994691919385 11.364747604090697 13.430406717194309
Sc 8.959130612358448 10.086245258338975 14.308094601512877
Sc 9.693969534806897 12.902589110684596 15.336080577181207
Sc 11.629081882732104 10.557100404425332 16.013241884743696
