20
Energy = -97.72376085 eV
Sc 14.146187282918172 11.234809590767034 12.92243277683297
Sc 9.639163710665892 11.706938470463411 13.616930872716553
Sc 8.636287767072574 13.541526763573994 11.166873410661658
Sc 9.218012139561715 10.776336190337332 10.5494357258626
Sc 11.948887549160633 10.288174698074798 9.321969710283284
Sc 12.607555595127447 15.054911305012967 11.124512837647046
Sc 14.916866380125814 14.068980725884273 12.636488212858394
Sc 12.244430925932315 13.340263848869423 14.132498489101703
Sc 15.730584523755342 10.304087398873763 15.329382455144858
Sc 11.677324013901734 9.441859331189566 12.335776878564344
Sc 10.785499979150302 13.24882604707207 8.977152113761724
Sc 13.201024325187491 16.069615018787427 14.025338730562481
Sc 14.354300287747558 9.308231742959615 10.706546078412138
Sc 11.450282746945756 12.316951926949356 11.507051767279448
Sc 14.702147128269463 13.080727325092504 15.52684447005529
Sc 10.253056484717558 15.08688337709407 13.08649307917236
Sc 9.904385087241199 16.05173000520036 10.24419033918654
Sc 13.957741787529091 12.459240638198406 9.979657234572784
Sc 14.196967744689143 8.344488067076288 13.770936262978173
Sc 12.655563821976916 10.501686810199077 15.265757836021265
