28
Energy = -141.67220175 eV
Sc 14.069581877541912 12.070497019116647 9.271713328079787
Sc 16.22933085568172 10.700968949532195 11.765106494434427
Sc 13.629773449362082 9.537509466701698 11.001522743541853
Sc 11.045521499965075 13.594688500974176 8.39881559023556
Sc 11.297328797574316 10.68985110929454 9.382631015553976
Sc 12.931970182143592 14.67707084440341 10.294387813867544
Sc 15.650980289685272 13.773627258192251 11.494443589819095
Sc 13.983079556744272 9.237439971160448 13.940377107138971
Sc 17.792311087064867 12.673377508438042 13.54663702567741
Sc 16.853893903290825 10.05732291595316 14.87473443397892
Sc 12.68364693196354 12.215955456067833 11.973838382704919
Sc 14.895120418391997 12.145275051365118 14.032518481771492
Sc 8.522720145529403 11.919143093482148 8.48797510718292
Sc 13.308074829942157 15.106474693528373 13.205208866716701
Sc 10.529458825948439 15.76280979628161 11.586394475130701
Sc 9.861965548978995 12.813673101246856 11.073664147644962
Sc 14.368184483075728 10.706903072320795 16.617603957151143
Sc 16.568169227957185 12.756263483378486 16.455400838597722
Sc 11.016119931879775 9.625083737784486 12.524804880109553
Sc 16.081826362279507 14.959935802643843 14.471442337431913
Sc 11.832032092982566 11.281885494280411 14.91295902626297
Sc 10.726539701706704 13.907955638783575 13.99714087422373
Sc 8.24358093992845 14.800805613300158 9.593090512477982
Sc 8.580183144301792 9.984373424528057 10.7595230229122
Sc 13.488922092502687 13.773188983576139 16.013512743056907
Sc 6.8267643220331715 12.388364917712025 11.044086790266022
Sc 7.979247082043942 14.552171949509079 12.699640626322573
Sc 8.75140897277336 11.511303831859351 13.53158192884026
