24
Energy = -120.75819074 eV
Sc 11.476150776350583 14.818984272185878 8.137902319951998
Sc 12.588273326996767 15.309345747698286 10.852623460241432
Sc 14.082113391267653 13.151705549092759 8.775232332396296
Sc 13.776605361219511 12.948242591036863 12.562710404282859
Sc 9.54925872861374 14.706251838942459 10.509815211712771
Sc 10.844983269222427 13.516452445117366 12.985462971495528
Sc 11.532677933556435 12.123834204188304 7.015301207446792
Sc 8.959365059773887 12.354726504190127 8.628426108804277
Sc 11.780230815475807 12.618979469519344 10.13685275792584
Sc 14.210287520238317 10.630612731222413 11.010229126958496
Sc 12.441250508892622 11.726061257257967 15.244432182323054
Sc 11.640359732801626 10.419715001569259 12.842265174075626
Sc 8.261995155434843 12.147096857214501 11.769549568595366
Sc 10.169118393872525 10.266511496084508 10.394185892234352
Sc 12.753989288548134 10.05453652985723 8.506753633190419
Sc 9.378185760457265 11.436003686010274 14.62141646709419
Sc 12.599810708295065 8.163376207927612 10.841322707579279
Sc 13.748097560516348 8.95330906427133 13.844649949332377
Sc 9.824702793382215 9.508349195298434 7.634036239217109
Sc 7.51097940058491 9.729434451623263 9.793454120860131
Sc 11.089954023639923 7.322250149094865 13.09098060004241
Sc 11.089584211993667 9.067988330250442 15.450548851915531
Sc 8.683689427317136 9.131297484621848 12.716826171480813
Sc 9.633125601326846 7.436223039303787 10.255996811689643
