36
Energy = -184.83496239 eV
Sc 9.281629463491303 14.255631482173966 17.391185722536534
Sc 11.59943352148966 15.520398664514932 18.75088169811556
Sc 9.550137774104877 11.686796722058725 15.553749700141655
Sc 8.949514506748313 14.352946996952719 14.297293709318886
Sc 11.933107148983314 13.016698693681258 17.082087968029505
Sc 11.280514728834735 15.727530328408958 15.72707584705426
Sc 8.971383158201817 11.86641123931113 12.528579372989986
Sc 10.037766860494191 9.070841928509235 13.515737383367739
Sc 8.589414311244985 14.611371119242381 11.26499265160016
Sc 12.361186692128976 10.314895654377027 15.171191709602413
Sc 11.037051405049665 15.758628711710502 12.348149974535714
Sc 11.638423294138892 13.086958445376649 13.855154454362745
Sc 13.984360020876707 15.22786675751629 16.890828646327893
Sc 11.377425934719675 7.4545264900032295 11.140201834327286
Sc 9.89218604811481 9.993331551588843 10.158616994624193
Sc 14.995732382080051 10.058490110367496 13.501534582996207
Sc 8.483892382070643 12.604477228414787 9.219018742346124
Sc 12.270025395518294 10.312777039356401 12.05582012784821
Sc 12.898804916729112 7.768512035067887 13.624634943014982
Sc 13.836869964156762 15.464440311888842 13.80358146683042
Sc 14.526290028156483 12.715637334171797 15.23208043038699
Sc 14.342871344207522 12.837473671715799 12.060440096235594
Sc 16.575290597684905 14.997955129706396 14.979228519693883
Sc 11.287602245225345 13.050372932966992 10.623440592621357
Sc 10.461754039131018 15.047404545259633 8.930848408477706
Sc 12.186565119344882 8.938119661435836 8.658147703975393
Sc 14.322229688800547 8.446357969024895 10.88633753376886
Sc 13.466857590441409 15.396902855780985 10.536882050924437
Sc 13.822099329059517 11.274574928729061 9.373084822426318
Sc 17.10882694834198 12.477703734694675 13.500334646185467
Sc 16.39124066247543 15.203709769545744 12.027977911210137
Sc 16.460330713845764 10.965829271207287 10.922225784490944
Sc 11.015954791625607 11.752429524539757 7.872239157095278
Sc 13.132804401202927 13.871715826896052 8.031143949509529
Sc 15.895291698476314 13.599959108307331 9.544108236959122
Sc 18.513629103372903 13.34097611603151 11.114659599212814
