35
Energy = -180.70740202 eV
Sc 12.790926803288736 9.127930492496205 15.906399935331189
Sc 15.12325609727386 9.499629497234121 13.982433566900493
Sc 10.179180334500007 11.892557284084722 16.033950422297107
Sc 12.820506050434796 11.763580751900502 14.700677931750286
Sc 15.7535290923379 12.201436347778895 14.93639929182894
Sc 12.986545961197994 7.702100429402009 12.975692507845206
Sc 8.203529547099762 13.938646893104654 14.333796122160956
Sc 11.292232376904593 14.629893324062103 14.952647776475672
Sc 15.354399627626789 8.65215279162765 11.149725755355773
Sc 14.130060982464897 14.313233788707187 16.084429830812105
Sc 10.643914933787217 9.601190658540773 13.801783488518517
Sc 13.232018269638447 10.54121215358586 11.966043549548504
Sc 15.979574581568741 11.776686017600351 11.980602412149167
Sc 7.84155897634158 10.857999140206031 14.31621891218042
Sc 10.231484706325125 12.542935611968707 13.075652731327436
Sc 13.73602882104983 13.86039469148755 12.864848360035834
Sc 16.197033475703044 14.93105897693954 13.502977418326237
Sc 7.813925699294541 9.369021869178114 11.561344299210988
Sc 10.160065565088933 7.54179342184245 11.602319942770698
Sc 13.645434575692953 16.600162791337247 14.248822869235335
Sc 7.395595531731498 12.274036128144887 11.847462774097565
Sc 10.361655783194044 10.560952680521137 10.865920464880933
Sc 9.325409561915743 14.272232201399953 10.712894168266054
Sc 12.45403402791841 8.514515502161553 9.830335878475667
Sc 12.185368162056918 13.021800264700898 10.193135404962932
Sc 14.38488859728829 11.024892560939666 9.236938001412625
Sc 11.543105801387604 15.824564227322869 12.121157260563134
Sc 15.03237466775675 14.040542578652683 9.972049405798481
Sc 14.456377636099052 16.551616702114334 11.4428574848775
Sc 9.260317735889284 8.698932817108707 8.924503833819458
Sc 8.436229165720329 11.74635850174064 9.054712793883713
Sc 11.399857382489014 10.914844726950164 8.001707376751792
Sc 13.332188988393648 13.445404643842878 7.447087714297997
Sc 10.424279749197101 13.842588310500904 7.855799899999946
Sc 12.413655703895472 15.777377814226123 9.199887844232453
