35
Energy = -179.73628308 eV
Sc 17.32349750961094 13.059145096656964 13.09953788511044
Sc 17.575686235391164 10.175609070686773 12.548591879696687
Sc 15.648216384678362 11.061499236726778 14.84294684553228
Sc 17.138910230123074 12.2237977458637 10.064384865496402
Sc 15.216906696870392 14.455429635990589 11.421718455391884
Sc 14.660263759943351 13.858559409976403 14.488799488097607
Sc 12.986638982274295 12.2021198852211 16.528156841263968
Sc 14.752795310110086 8.738692963966173 12.983221267555015
Sc 14.870537081659638 11.404259420154904 11.689120738266539
Sc 16.228006421448814 9.171174082225917 10.190361144862171
Sc 11.78532285043669 14.82110265513652 15.587561873699658
Sc 9.944505069566734 16.067045500581507 13.37513155453448
Sc 15.092063144080763 14.1879497946781 8.500378608131623
Sc 12.737135238403962 11.484261706771541 13.779735958527107
Sc 12.227315563426803 15.532607882630447 9.457011088394067
Sc 12.685475145949146 12.92346197851972 9.941071780211603
Sc 10.070190509483329 12.695675763823882 17.04955476015574
Sc 14.560383406227453 11.173708275264419 8.457418774725205
Sc 12.372905581747801 14.437452286239052 12.557911120822514
Sc 9.914056201353812 12.874034109877805 14.011774747971398
Sc 12.670155437736993 13.467436800630992 7.0254334318820835
Sc 8.661905360205157 15.051916703032477 15.967194251753691
Sc 13.155105487212818 9.031902538168389 10.348480172170994
Sc 9.75658566197796 13.840661663583449 11.13870934637021
Sc 11.051818305500117 10.9538287728425 11.38593991533517
Sc 11.562226656220874 8.553665661552863 13.050314723928148
Sc 10.51696372456314 10.192295708011086 15.56384118359678
Sc 7.221417460480448 14.795697434697118 13.508603019611844
Sc 7.539293293222767 12.046242187876079 15.34276273295425
Sc 10.048093448202465 13.44252842415412 8.27692504881292
Sc 11.348563536940533 10.668880213653244 8.317733599375343
Sc 7.358415050470415 12.250507121348058 12.258013053546637
Sc 10.046318267274488 8.445221620133104 10.381897079295884
Sc 8.808603123430087 9.859558971668276 12.995417600081337
Sc 8.615768095478382 11.08052326317947 9.797456936110827
