34
Energy = -174.28418363 eV
Sc 13.076348844448836 10.051709772359725 7.684136662393473
Sc 11.134347126195253 12.080895563464573 8.361851681389336
Sc 14.655401520887944 11.474061656624922 9.87457387577854
Sc 13.591414790147697 13.672267140805445 7.958678390021537
Sc 12.201416594237038 7.175975129512663 8.69713477859922
Sc 14.647356062863821 8.414578341569431 9.692539172811227
Sc 9.931734843215807 9.370203387331243 8.376852473788771
Sc 8.24575710269103 12.36040710790983 9.108440164502225
Sc 15.528441038173234 14.50260943782054 10.18863007336534
Sc 10.51651067392511 14.875112582963933 8.86350461581972
Sc 11.924863295299078 9.908532037924939 10.654241647125305
Sc 12.731595367327035 13.64472069635237 10.874036392230932
Sc 14.51910856696076 9.655626955229264 12.504751687715723
Sc 13.222128093120979 16.331788602212836 9.597326240272183
Sc 12.84697657071354 7.156101578190854 11.848950172925417
Sc 10.02767551247885 7.332888613386108 10.629209782507472
Sc 9.947241080987947 12.800551732663346 11.519376272465406
Sc 14.059060204507826 15.773072342759967 12.568093089430288
Sc 8.694305200700379 10.044965373859238 11.138755417920638
Sc 10.594021087987445 9.886334576807052 16.190598609022672
Sc 13.173132066116029 8.648087865861006 15.081365374249746
Sc 14.967105723518669 12.819367961096725 12.796346429842853
Sc 15.201329138350383 10.958836723039216 15.218664512026871
Sc 7.009925923668705 12.556358389775788 11.927580039071206
Sc 10.78180305602048 16.122920639466713 11.574576201019102
Sc 12.25478151801236 11.41973798454722 13.91822030758371
Sc 8.01683771494626 15.068264619575817 10.666304341723318
Sc 11.676027415056016 14.639979053292974 13.906316612665867
Sc 8.703798113493507 14.452757017364732 13.673605083267002
Sc 8.988689819156042 11.379197851880821 14.04848043655827
Sc 13.862714737690874 13.655251196913703 15.520888609657751
Sc 10.64447144384355 8.743338894500502 13.318570968857989
Sc 13.056464720202312 11.077688174601283 17.187800595779667
Sc 10.706745487155802 12.924307463602693 16.11460074971855
