33
Energy = -169.35530446 eV
Sc 14.76498584499128 10.088561228437404 14.426569103979057
Sc 17.412516541951604 10.059922105866752 12.42128298460878
Sc 18.012298067840163 12.846809761503245 11.1814573107541
Sc 15.763757598516428 12.39408808373941 12.810313654811734
Sc 11.79752533922898 11.438668736726749 14.732431636714288
Sc 14.165324664204219 13.422055937424094 15.110231430026653
Sc 15.668001686346667 15.355428951997315 12.878692303643437
Sc 10.468491702673854 13.922766096972621 13.259129314761138
Sc 14.801761705770751 8.40654009444174 11.84808351863847
Sc 12.352362967251977 8.384016120363508 13.717378217494218
Sc 15.665042229235548 10.968148290090848 10.141966451132358
Sc 13.094598255650922 10.753941690489805 11.996013932743672
Sc 9.301923805527752 9.968864447115529 13.735743665298083
Sc 12.61454761681966 16.11114109930391 14.178344050078433
Sc 11.320480405334083 14.175504626818832 16.120809361195164
Sc 12.408483100286874 6.566313424494726 10.871758848589018
Sc 10.222745128595681 7.527948884105637 8.841494335232042
Sc 13.205298935806882 13.802314947831487 12.275642937414132
Sc 15.355075605442506 14.000043850593318 10.185379523527217
Sc 10.630982396199027 8.763579318711159 11.33437654207033
Sc 9.169932457014614 15.932170335628014 14.845768898660266
Sc 10.527910462995658 16.787874262467003 12.187420965166742
Sc 12.875318038516369 9.098047437477254 9.316202032167377
Sc 8.84018851897224 12.714935518419926 15.313243033350695
Sc 13.330084783718313 16.381971698839696 11.016602045563324
Sc 10.211052177382685 11.66548469661957 11.411973711600607
Sc 12.855473837295115 12.259603710307402 9.441793752133016
Sc 7.996045890460572 9.840763361772405 10.59293359625964
Sc 8.117042736779124 15.0689451998668 11.87096175920904
Sc 10.745034182721383 14.519561521543187 10.214484605507167
Sc 7.518184606426742 12.248060087109678 12.614093477870071
Sc 10.289213663565919 10.614919580698615 8.686832654442716
Sc 8.032551526164918 12.766843000828658 9.720166092839646
