36
Energy = -186.27581542 eV
Sc 12.788973187560691 16.767262965395883 11.574603440944813
Sc 14.284631154907224 15.712716060129416 9.200085647686956
Sc 15.388930766468494 15.24275225089527 12.27123273086834
Sc 17.557054524546892 13.255835923795365 12.889127757624879
Sc 9.811816080274074 16.908949120489403 12.437935232196352
Sc 15.172245476124814 11.943566896294442 12.07560139875529
Sc 16.03820388015839 13.369961049491568 9.796687530041995
Sc 13.275443819561719 12.933715720663042 8.11113492704781
Sc 16.092355160459586 14.414497546259371 15.387699967634848
Sc 13.650987302746241 16.43654442347789 14.511155824558626
Sc 12.84105306556917 13.582227260486512 10.928632870715235
Sc 11.26458879884909 15.562366626866265 9.33505523087301
Sc 10.745049576427043 16.27479967295984 15.596399933241921
Sc 16.063503774839873 11.209105338292442 14.82832430345487
Sc 13.293068614028346 14.777549454310877 16.90285194009852
Sc 12.019622746078724 9.99408930384551 8.062883650696085
Sc 11.34832579061861 14.716326293599126 13.281348544505665
Sc 15.147984199050187 8.777456365232311 12.312937376882983
Sc 13.645764335683262 13.352718046182147 14.338020383729056
Sc 9.320364387164226 14.256905804453995 11.100769995558155
Sc 14.526375441570524 10.489930677395666 9.545512729879757
Sc 13.592296686120314 11.551885171699038 16.67667852534949
Sc 8.6330555112527 14.362932877899965 14.049147232716102
Sc 10.370245787297893 12.327909557750665 9.097069393426969
Sc 14.21470812610614 8.572887978493608 15.4681318956851
Sc 13.336923488784622 10.506399084685917 13.77164543637519
Sc 10.879718884261981 13.132853643424134 16.06233416167801
Sc 10.633993850285124 11.920764925978915 13.306646419813601
Sc 12.852067053833931 7.909785598573598 10.12141662126777
Sc 8.433834686827007 11.32701986184973 11.459027274948022
Sc 11.090696625416752 9.773426362720473 15.523280010231172
Sc 11.895922138344348 10.529224216961907 11.086168368556434
Sc 8.296557816054765 11.242068323561933 14.740098296809393
Sc 9.88738687126494 8.913130357226219 9.938466274587885
Sc 9.580557334194715 9.099047388083925 12.984629903580435
Sc 12.284165922269473 7.863430046975546 13.129945200019355
