36
Energy = -184.36299355 eV
Sc 15.68658888721499 16.07070991675727 12.72824402637714
Sc 16.80073215128895 13.308460807869999 11.423499710356582
Sc 16.40261455104299 13.474438841018328 14.326829633641584
Sc 17.17269467955112 10.799975265980255 13.439833018227729
Sc 15.418378219373537 15.456683573660769 9.627660655397483
Sc 13.502167785641577 14.362038676594118 13.338025974608588
Sc 13.948268178071553 13.108387498542324 10.679618300772395
Sc 15.771571802163727 12.736049832291137 8.469861326312678
Sc 15.638288809539427 10.386484039142593 10.737751594639665
Sc 15.055000207039477 8.583251701228532 13.67270674822766
Sc 14.201677034060442 11.434294202040261 13.229658531573838
Sc 14.304211729332593 14.37764133484523 16.169897368786422
Sc 13.031119899159215 14.138972321623513 8.180164974959851
Sc 12.971935772962862 16.356666364738118 11.149448055831025
Sc 12.718634782925351 16.921974299682613 14.432931443590697
Sc 13.201395527664582 10.843293288501624 8.839845005973899
Sc 12.650429256436569 6.598922340791653 13.471941367152509
Sc 15.31638896910324 11.102704707036432 15.88084406670985
Sc 13.144790910054494 8.615809274814712 11.29162855038734
Sc 12.10688246961708 9.460130233163309 14.240131089637535
Sc 10.40478241079674 16.17650514965389 12.705176731711163
Sc 10.91555494815422 13.31154931330059 13.607151287097109
Sc 11.435394633290276 14.875618322463437 16.17582642655035
Sc 12.349873232353263 12.087270664013246 15.883734977197774
Sc 11.55947619757472 11.107210842226918 11.516024178070452
Sc 10.901772080747365 14.07859923439897 10.581965623310312
Sc 9.049499963230597 16.128687643955384 15.196079913187143
Sc 10.525889117397673 12.043816332006498 8.244246329361753
Sc 10.23456885310168 9.308444811330878 9.47153673235209
Sc 10.219204609726487 8.238313950222878 12.284329122360965
Sc 9.029682804959757 13.09679853356441 15.836236605695886
Sc 8.19887483726986 13.921065858695249 13.041644515229027
Sc 9.108669500498367 10.86013017136666 13.470822482663133
Sc 8.73159684711586 11.944236621686397 10.572181402239833
Sc 7.606929327035979 9.337213462076615 11.000995779822025
Sc 7.795676324449328 10.48348791643063 8.17884828579441
