39
Energy = -201.77289522 eV
Sc 6.828473301518983 8.498315080566012 10.764569119697807
Sc 7.625909505915892 10.882560985277806 12.319767467891731
Sc 7.907232731146976 11.054147724030276 9.341601036672001
Sc 9.698188523390213 8.927435860204818 10.198261688382535
Sc 9.15458665623174 13.69092319471166 16.691316747374103
Sc 8.98533509708112 8.335008708293648 13.077407344325296
Sc 7.860739911384007 13.736038233078842 13.890246815545636
Sc 9.118691437506744 11.056408750245367 15.010865065427403
Sc 9.137034142568348 13.25820762644513 11.149254416540478
Sc 10.702610901762004 10.813333718257395 12.366743552349217
Sc 10.704668498447257 14.8459715423364 9.051051755675612
Sc 11.009760479984655 11.613702118572999 9.312526151281368
Sc 10.783198470300498 13.61593956874715 14.099524683792303
Sc 12.534683357551074 8.951525500021646 8.744087539467392
Sc 9.354745045769555 16.192075209906847 15.15545593056432
Sc 12.03485305152214 7.977635296785689 11.812862830243514
Sc 11.739105870741206 11.900040295516735 16.560748735208275
Sc 11.682419656555245 9.188259374334462 14.78692540435656
Sc 10.046205603658267 15.948950991282953 12.096632781694492
Sc 13.31343071653822 11.62926133340846 13.996803853440197
Sc 12.034940006924964 15.114274283192918 16.327864041795866
Sc 14.347068035818893 10.161249793072932 16.34159087191517
Sc 12.234171900440144 13.76863672658965 11.238491132207207
Sc 14.816982300701543 7.76094978595493 10.315204083404554
Sc 16.51679058044779 10.049154681234603 11.4181097799658
Sc 11.92280469231979 17.181883791630554 13.97321945192791
Sc 12.81680138514646 16.61548121063054 10.925907197109069
Sc 14.568508881494772 8.847172586494002 13.472683060853038
Sc 13.493670937919934 15.59574511452813 8.040270276961252
Sc 13.946727317528604 12.802335783544404 9.044764087350748
Sc 13.573302866136956 10.420201277422079 10.997798583079296
Sc 14.60933351478752 13.164715051482569 16.150911616488095
Sc 16.31129204717978 11.296421445880272 14.296158635621874
Sc 13.723852539075603 14.93470754680803 13.723604852410617
Sc 15.499030527356114 10.240114448886535 8.546883949258095
Sc 15.177418592290033 12.869042204518301 11.969668364480842
Sc 15.48067800830198 15.222622114142629 10.114982136501435
Sc 15.96404970763068 13.899131721726942 7.337708174794441
Sc 17.075958472436582 12.55372936164419 9.762335176751002
