36
Energy = -183.49531251 eV
Sc 8.626400363219167 13.930137653101358 11.015424742171959
Sc 9.134974316281612 10.817716950708062 11.891556365497154
Sc 8.607874092261335 16.97457486344479 10.374143365530808
Sc 10.443807690841448 8.024022680961155 12.569947327283469
Sc 10.691663304577622 15.247228807786028 9.169227007416128
Sc 10.705353601552943 12.126651130721662 9.532462171669001
Sc 10.57503429253613 9.128472035656719 9.729772730126577
Sc 9.316565580874794 12.989339594754917 14.081863883465264
Sc 10.602141014943852 6.242950782504631 10.232349646829912
Sc 10.522877949302655 10.19204658467492 14.729755941443784
Sc 9.230534432419283 15.888783491598872 13.1954109558246
Sc 11.50018888987325 14.015092779381083 11.922542216016758
Sc 12.161759034450274 10.7148766005189 12.06747622403317
Sc 10.639392208535336 12.341144912299233 17.082489493417246
Sc 11.357089841855787 17.15875304081599 11.534573211831207
Sc 13.166409247606735 8.55395015488294 13.951559796724524
Sc 13.440791036421455 13.65013635613382 9.363573390847565
Sc 9.855997870042762 15.07601973905101 16.182665612609323
Sc 12.499614330553275 12.681833912751127 14.780050246603803
Sc 13.376712545384406 16.66324992852864 9.357081366257692
Sc 14.721951558742203 12.53993524005361 17.01505234971587
Sc 14.72686428539615 12.801059884019779 12.260419799425382
Sc 12.98929572293196 7.788316945785422 10.913690199485316
Sc 12.054646715776492 15.886465960806966 14.410409994218794
Sc 14.918417276477152 14.735455001591369 14.897108772489133
Sc 12.871034929794023 10.240794760970353 16.594243162501623
Sc 13.444323706132288 10.515099990184535 9.321666942067898
Sc 12.632702800938105 14.61850344098724 17.225330262450672
Sc 15.940867043663278 15.029962998760602 9.864834339301781
Sc 15.226034176692405 9.69785793400619 11.730012604045625
Sc 17.181961103492686 14.460458755492514 12.530299652034726
Sc 15.260982390786996 10.72702661250987 14.691456614252132
Sc 16.26735173353869 12.049213529451523 9.90069695634892
Sc 14.227613333447776 15.951161241839166 12.099213301530588
Sc 17.553432380915293 11.516197551167744 12.616869749128954
Sc 17.230662258565953 12.953008033557945 15.199852786859438
