37
Energy = -190.23856022 eV
Sc 11.703512479446594 11.609372053190597 17.3429975093498
Sc 10.647810587763319 10.998392322050659 14.585756417277599
Sc 8.914594254034302 9.699907461105965 12.167253292992802
Sc 10.474391956550901 7.57055469407402 10.54177526611508
Sc 11.912789834869661 8.576767308241633 12.940424814093854
Sc 13.615759414181179 10.160797610625567 15.311828098142271
Sc 13.363692735333093 6.683749201487316 11.193156363728725
Sc 14.683467737373045 12.25890368807849 17.30719961326308
Sc 10.09104925071683 13.915351972506233 15.727678406620413
Sc 8.71637954246548 12.846215519823296 13.001269677153175
Sc 12.476794779534258 14.469257005811045 17.722725018688056
Sc 7.3721275689538635 11.838288797538867 10.559089304207834
Sc 15.204213768094487 8.082111525445725 13.377531339758583
Sc 12.93955918637717 13.164475383250283 14.982681392604857
Sc 11.279451956152874 11.44570782484199 11.604799220991097
Sc 9.7563529388813 10.32958042762985 9.272138581816971
Sc 9.269374015150692 16.15949560131031 13.564648550545414
Sc 7.393432580965342 14.847387653976197 11.299533430188866
Sc 9.74015125031598 16.57874818734005 10.703076933179073
Sc 15.059269997797813 15.029363636260387 16.280325124706938
Sc 14.123741024992686 10.550197711334466 12.305262957179217
Sc 12.76921935609596 9.296961802130367 9.814680906793022
Sc 9.697317238922375 13.548888921834717 9.860187527605353
Sc 11.308827387961784 14.40995703572274 12.547705007833002
Sc 15.751003704485896 12.521410194554942 14.205487672906113
Sc 15.708258988015503 8.435119834661906 10.552382853228739
Sc 12.186946448408293 16.191952619271955 15.163217783332984
Sc 13.924438701052145 13.456041677712395 11.242243911180811
Sc 12.491922369365787 12.297902609101829 8.815963172599378
Sc 17.05099219127979 10.538905950325935 12.141533126713949
Sc 14.615243598132773 15.493670258671196 13.31537907365132
Sc 15.415114113262492 11.3638538918189 9.607384505773323
Sc 12.329705049103206 15.340230670765745 9.544291152291605
Sc 16.734883809374054 13.698821647676496 11.333661627105641
Sc 12.316807644183617 17.147243695175476 12.110526920468157
Sc 15.09697364921779 14.15195760705589 8.56003448936588
Sc 15.013297780654192 16.319869102177417 10.518012847762828
