31
Energy = -157.09338398 eV
Sc 12.114478853121344 10.613725865874065 7.340593361869615
Sc 14.420068677002629 12.624829528459856 7.51537677435684
Sc 11.462195115801597 8.286373493513441 9.372948078180242
Sc 13.604266361493558 11.03702328065796 9.884308261919593
Sc 14.152798010225371 15.164399396604239 9.241781929811287
Sc 11.778125103060766 13.256000760000907 8.706536389021046
Sc 9.60035949486744 10.918699867623062 9.096749660493112
Sc 15.998516631594494 12.808045511662725 10.209099754916956
Sc 13.652807166473568 8.464639273810628 11.60316801193743
Sc 8.823328410318256 8.491986294108237 10.891780728456055
Sc 13.22574887623767 13.619967297630362 11.6442822424785
Sc 11.141919270438775 7.220013793561283 12.294029891749723
Sc 16.762007526903286 15.604852100067948 10.650362133321313
Sc 11.47549178595019 15.935476875187737 10.647525522335275
Sc 11.167359008453607 10.236586279879214 11.49922306605784
Sc 14.970604390792188 10.928838041118409 12.770751368962951
Sc 12.908280353518428 8.982510105072546 14.504060108366746
Sc 14.170489854049904 16.27875422663549 12.141523597206742
Sc 15.932875300201655 13.808952525990453 13.069336971813113
Sc 9.751833257064325 9.46283695429745 14.0518084300657
Sc 10.148003855357544 13.2885448107535 11.412148305784115
Sc 8.142997596304328 11.246159011384442 12.210790831552174
Sc 9.714167574871997 12.543709758726296 14.404656669835132
Sc 12.275496354081866 11.75697821534142 13.856182729950582
Sc 14.340929632251449 11.88572428346108 15.760615326793454
Sc 13.670174027225563 14.588743317930678 14.638238933993
Sc 7.715877028635335 14.128032301594622 13.312015251869312
Sc 7.349097666089376 11.422951929485585 15.167299433784908
Sc 10.929286947388174 15.259081529142804 13.617594942106873
Sc 11.617050036770385 13.576049332723397 16.43144848415868
Sc 11.1184919970131 10.705730888206777 16.483459973179524
