31
Energy = -156.30017036 eV
Sc 15.794731106679073 11.175499181493949 15.565600830250043
Sc 14.365941600506034 13.635784052167335 15.14591230740705
Sc 11.604044440476866 13.915618449001261 16.35217816616946
Sc 12.815331160901508 11.032090309421395 15.783959738601215
Sc 14.15785789077441 8.82048378569572 14.04571822602018
Sc 11.298318659590688 9.315473375455882 13.359647161164224
Sc 12.121011583009915 7.325813715117404 11.082270595471762
Sc 10.207779423779117 12.112040467967713 14.330952654157034
Sc 16.08173831883806 10.75377351189067 12.833653973907872
Sc 9.285612186964535 7.384739122873523 12.258427689001719
Sc 16.10449764272499 13.643029122972397 12.792429203138193
Sc 11.853019299451416 14.70021304966778 13.486500911878686
Sc 9.200724260882797 14.930033743000692 14.860827354944481
Sc 14.627831185187606 8.872804567946508 11.18248522649819
Sc 13.291625728521812 11.815396906067066 12.865983312596288
Sc 14.421295052459016 16.125792676231978 13.410418283974582
Sc 11.874394112552523 10.270772368529517 10.442060710832001
Sc 9.363776660909425 15.871189158927923 11.7943216116074
Sc 15.005698115822087 11.612968761391052 10.1212242108006
Sc 13.58584667521604 9.07098961787279 8.441389087945675
Sc 10.66493504391856 12.955949326755551 11.293797563383666
Sc 8.920290877571258 10.454925858165513 11.736559616696718
Sc 9.649967849776475 8.474129393005901 9.531899844117996
Sc 12.262069776459358 16.96147591313818 11.473444538470195
Sc 13.648811030437491 14.319555409990315 10.966567065737305
Sc 7.962971215197935 13.387224281828406 12.52795768623181
Sc 12.519930883668838 12.378665779619428 8.533369878755996
Sc 11.145029757288453 9.882637283110201 7.299647481335995
Sc 9.414567503136768 11.628817882684963 8.919895557306909
Sc 8.037962043059448 14.271480110193032 9.742697877467029
Sc 10.893854520429795 15.06530236774407 9.330547866084142
