30
Energy = -152.48399484 eV
Sc 13.15387140422896 14.219353824969113 7.955994761938836
Sc 13.612861214177192 16.481254701172762 9.895850196602536
Sc 10.947919429600466 12.043438904075565 9.130602431867095
Sc 15.673294512136277 13.913153390213413 10.21981495610702
Sc 12.076342217572945 9.116499436808557 9.561917071976929
Sc 14.002198125654306 11.556208067963588 9.056452151105544
Sc 10.05283311279828 6.916349876408661 10.369787369660735
Sc 11.9131931416182 16.49799377725694 12.54378868218968
Sc 9.18307575328304 9.804154480374283 10.598696149377746
Sc 12.720938876528766 13.867013057699193 10.733110799073597
Sc 10.554629708626488 15.418296344961117 9.917769010488824
Sc 12.652268893545964 7.216573439419043 11.73359416837516
Sc 9.557064527611933 13.061530694511568 11.74509569033374
Sc 14.814286030597088 9.246554408494081 11.10984627024555
Sc 14.628635857872021 15.494463626126452 12.56521204846189
Sc 14.321048211404504 11.943510287015025 12.245340254433062
Sc 10.256776480283042 8.25162604789879 13.121595902946606
Sc 11.53558902337877 10.716132832427018 12.048198227623958
Sc 16.371303315650255 10.300077710148942 13.583082164869829
Sc 9.160787392312557 15.696155880585756 12.863128255902904
Sc 8.641036025639476 10.706912277121445 13.433983213827567
Sc 11.944056521167358 13.49796027088366 13.765336854451014
Sc 13.516213043758132 9.209730829109187 13.863745043208612
Sc 16.308593544733053 13.433233844522887 13.758344914642747
Sc 10.914970438907247 15.867408562051331 15.413411907426049
Sc 14.189213423308871 11.844667055976009 15.290826470257937
Sc 13.954763862397815 14.984775786676426 15.394183088185052
Sc 9.229630846687806 13.337581980268949 14.981974307852571
Sc 11.121102023549753 10.791544384239069 15.111449065467788
Sc 11.786763604561413 13.361104784213762 16.783129134691716
