35
Energy = -180.42788492 eV
Sc 8.359472578907623 13.827290412249141 8.901046012949795
Sc 11.266514250390443 14.232430374484597 8.003608407399891
Sc 10.076964495437862 11.25083838998109 8.237465613526473
Sc 11.747068970604724 8.65691984444039 7.665772059101861
Sc 13.149827449018735 11.422409758444847 7.462776445241466
Sc 10.100808813576666 15.682223028737857 10.35113938995999
Sc 7.988956936084011 14.24776860037483 11.918718880952634
Sc 9.77809740721419 8.696253551285077 10.10763044699761
Sc 7.998033604562821 11.259585558755212 10.718199099179206
Sc 12.987145791911193 16.27794496684386 10.463474480260308
Sc 14.557143879228411 8.842089033880029 8.539207943689323
Sc 10.559333712532402 12.858086648465012 10.746329707194674
Sc 13.566160089699807 13.464499885197425 9.613870656288457
Sc 12.439885104978927 10.315448373795045 10.139341987393117
Sc 12.610046026931048 7.312569499722326 10.340371531149136
Sc 15.796131235101434 11.454974791133338 9.364514770511299
Sc 7.720111922759762 8.675000105727134 12.479509304597183
Sc 15.614169246823586 9.005941717055077 11.338980690907924
Sc 15.530661684403547 14.650755198181306 11.586909386225244
Sc 10.716848588359635 16.289224341932368 13.171881893487596
Sc 10.500146747048841 7.320116018636215 12.860844436128003
Sc 7.778363006170003 11.446527957721473 13.880354223032592
Sc 10.284002251627605 10.326286108888688 12.70991463801638
Sc 12.698247683688324 14.188890298680795 12.535219916961006
Sc 13.141823987638666 8.765935226738478 12.92780561261732
Sc 13.975304298721234 16.52027588821798 13.595264143417657
Sc 14.497113131929575 11.675823517724115 12.038570642011635
Sc 9.08767704047047 8.872870982995494 15.083863106314807
Sc 9.973943582040787 13.480162657591977 13.903858866175609
Sc 15.122100857052809 10.15615760163601 14.581169440700807
Sc 12.264606179492077 14.666907679256104 15.486224964230619
Sc 10.112214094114293 11.484786656124903 16.15751596364299
Sc 15.011130069265523 13.6808198187877 14.47384062931709
Sc 12.023330122976958 9.023835519172373 15.643963245486047
Sc 12.513774860652827 11.683668316181745 14.407977640169026
