38
Energy = -195.9366991 eV
Sc 8.911735719090037 15.17980313663457 13.53173011521881
Sc 12.49218412295758 12.567833807827746 18.102238516263867
Sc 10.69616616636599 13.928752270131207 15.774983007151127
Sc 11.793485174140232 14.83690614268288 12.973168711986485
Sc 12.938063356094226 16.874639411460635 14.863071458448703
Sc 13.622686911128538 13.87320060709431 15.534143564576334
Sc 16.181556697384234 15.75151420002679 15.449708568756021
Sc 9.72626566053075 15.689929906821952 10.648428011141977
Sc 12.907562467319522 17.25345574521366 11.636992521914207
Sc 12.648008488028546 9.53018184603863 18.333114854275006
Sc 15.706511345787922 17.83336004906856 12.974430196690415
Sc 14.200950791930014 10.960213030955698 16.264545772304764
Sc 16.062682652083804 12.804879016127819 14.042700077587941
Sc 8.816219562610843 12.080816939263372 14.011458366320603
Sc 10.718816943255813 10.8410556113994 16.498444937514044
Sc 7.47860952026869 13.548506561111026 11.419209001362514
Sc 10.290513228891173 12.946264498172338 11.564460238702884
Sc 12.029523003757845 11.679529612973703 13.996220108647817
Sc 14.650359292770574 15.311006761397772 13.163364218778437
Sc 13.904524486707299 12.930098176367489 11.46438175772004
Sc 17.543640395537707 15.207495705879124 12.74250749755395
Sc 10.084954876533166 9.147422438942568 13.630463838225799
Sc 14.522272108559733 10.169117665749852 13.13972791281866
Sc 9.130576279434585 12.89601185908663 8.916337182857383
Sc 12.494614010357418 14.992087960793143 9.612144020517393
Sc 15.475190821760151 15.574526465545333 10.407390385015091
Sc 16.753419637463377 12.625064520973869 11.034272221549363
Sc 8.580194747110017 10.548651742630064 11.142648676507275
Sc 11.65718424216463 10.08825420670888 11.27888987069333
Sc 12.61008288178777 8.771607416792518 15.2243406281734
Sc 10.067151819099802 7.658037631207034 10.820905607491646
Sc 12.058072649516594 12.122719876043528 9.08530069555326
Sc 14.82267619553969 12.926399954410522 8.557460019658185
Sc 14.532929563295054 10.266846348892031 9.961542383921683
Sc 12.733471094681063 7.649562346826639 12.312544802143085
Sc 13.17397393141278 10.24098187115647 7.255809971928179
Sc 10.255467316640518 9.789141460283501 8.561722764058489
Sc 12.56988370136135 7.989241345883404 9.224090237139588
