32
Energy = -162.59451715 eV
Sc 15.139057681184099 15.83127078144718 12.489196218438922
Sc 15.50045599720549 13.016677706451311 13.764208043644132
Sc 10.786060125140265 15.59696390600926 8.743172292262148
Sc 15.00923398104624 12.93581209835815 16.792044072271953
Sc 15.483657934966327 16.20625857654111 9.34883491916242
Sc 14.580225608339449 15.826840929230364 15.58533850969553
Sc 15.713859402322091 13.355069254162029 10.648879084123632
Sc 13.188469962749728 16.982393934635986 7.605069827513528
Sc 12.958645230873293 13.794720976242708 11.838280799548171
Sc 15.717719708479585 7.531022172524232 13.555603628787333
Sc 12.667777706021827 13.523426251227814 14.923505202722742
Sc 13.369087848753129 14.206699578351323 8.786821347112468
Sc 12.84275931468672 16.80681129641931 10.602735332248859
Sc 13.509284185577634 11.146277160247445 10.236533432850951
Sc 10.230598246398241 15.166524767045255 11.738534651635804
Sc 15.85978678959393 10.307259833883226 12.11412030087267
Sc 13.628871201961845 8.331252246458313 11.70476157160859
Sc 15.506743131839286 10.206108435455082 15.179236513133755
Sc 12.274791438669354 16.378579142527556 13.583647167648468
Sc 11.392798630859104 7.073568613986574 13.047306309503945
Sc 13.159778598518475 10.895259709228213 13.395772126228989
Sc 14.220757307297198 18.410207647172466 13.9456416153591
Sc 10.814298522094894 12.722747671203736 10.046828843928399
Sc 12.168084625305525 17.449067234317138 16.232843771237697
Sc 13.25841479158599 8.205411906679874 14.969036878122212
Sc 11.014560558126133 9.830495346640156 11.591389516787418
Sc 10.297321798570497 12.45309134326513 13.211950411911783
Sc 10.679242558537013 9.683757055350588 14.66765061851642
Sc 10.131055001664405 15.127150462928947 15.199072898874485
Sc 12.241368800261066 14.531224435600107 17.45870317603232
Sc 10.228354759752865 12.42084518204424 16.369964535207878
Sc 12.826916237931156 10.86825177294355 16.594415119578613
