35
Energy = -178.36554133 eV
Sc 11.414683929915894 13.044928957591864 7.491045712976264
Sc 13.62407971180922 10.914096127979498 7.5892513036069635
Sc 13.739019640389468 13.411404589586406 9.364846666283594
Sc 14.579760622748882 16.16006492554683 10.889943751876768
Sc 11.748773736740116 15.67299222777577 9.582187598272892
Sc 13.619125066205353 8.338298109980473 9.163151384137889
Sc 12.220813003270809 17.797374413072095 11.721197655144362
Sc 15.747071568019052 10.518625750215522 9.907984914068328
Sc 10.572961372616458 12.927444948193434 10.370104502171705
Sc 15.432746449541709 12.809463298402642 11.950133857045492
Sc 12.967830013294405 10.843003001549308 10.700946287455784
Sc 10.90797616447138 10.256245621243687 8.613908900678243
Sc 10.027313235101055 15.663338458365168 12.065171448418885
Sc 16.402044993696745 7.787953641054532 10.600129844385759
Sc 12.636559674914782 14.263430802704468 12.34726465089442
Sc 15.3696222935188 15.230165926528379 13.605089744968806
Sc 14.687705278401548 18.00767647708001 13.503554943448309
Sc 13.559320216159998 11.22152923893386 13.737717028743145
Sc 12.2485589745028 16.55480279563667 14.418567773599255
Sc 14.77793556790039 16.192375566197757 16.153065817583904
Sc 8.649519379303497 10.491703474617262 10.911913544133794
Sc 14.021889530147233 8.437565403049396 12.1447549100914
Sc 16.393249065383785 10.050574207544727 12.859491457029794
Sc 11.04669776608563 8.578992773601591 11.279938726411535
Sc 10.640736423081908 11.347310394813242 13.029368198793025
Sc 15.785658852122328 12.72093221639864 15.12492283741864
Sc 13.081842178649728 13.838941460686911 15.376171060357825
Sc 8.12824075570112 13.014519402397143 12.52805859361127
Sc 10.2234387614867 14.019683302490861 14.63001593175399
Sc 6.44286484656583 10.541189641164031 13.146855407654975
Sc 11.655338553214765 8.81203234015021 14.343093497493856
Sc 8.763429401593564 8.822914498034024 13.44958381070511
Sc 11.357644942654522 11.255649614536933 16.053932540803
Sc 8.375288084310089 11.521318063242733 15.151078193038277
Sc 9.319171798969252 8.997848048099037 16.31523872819651
