39
Energy = -201.4927372 eV
Sc 11.488290952945542 14.616823587719047 7.337433087950035
Sc 13.661758010386786 12.578704539671588 7.771970525046661
Sc 10.836914864878684 11.786268480510326 6.809840682788247
Sc 16.442883278829648 13.476827185872612 8.842153560465965
Sc 13.97778884096872 15.30710923293729 9.196068171124272
Sc 8.997138207735585 13.481313570212409 8.465528924939289
Sc 12.577193662770153 9.748775775116732 8.338415203697252
Sc 15.39246541108649 10.690298106370447 9.389613467644764
Sc 16.372904036113244 15.252359089969735 11.11548277659252
Sc 11.110433909907549 15.262778149093318 10.279783803415793
Sc 17.173137046182465 12.31217522741762 11.632206254688429
Sc 11.348017627428666 12.185973911672493 9.853720657373694
Sc 9.429245277307539 9.8644022723818 8.65822810800679
Sc 13.454373780493183 15.721745884886838 12.236476403612665
Sc 14.20570011660797 12.913359643174724 11.16743081156524
Sc 8.127366750780581 11.532449906888175 10.522653249031443
Sc 13.142055471748925 9.900832493107066 11.491109545029724
Sc 8.610870592010889 14.20410848886218 11.613714339949988
Sc 11.0247741332282 8.177546063028876 10.453296531823858
Sc 11.221987069091321 13.538156183401906 13.070515105761567
Sc 15.897820220533776 9.679591106128118 12.145612365572338
Sc 8.29810564909067 8.7277194526024 11.56858960814372
Sc 10.451228325725852 16.228447821421216 13.38174106665789
Sc 15.697146906026502 13.981898299785684 13.783327361386734
Sc 10.391568470287053 10.605440409035422 12.578393964490791
Sc 8.0682240312043 14.696345079455423 14.46693329379691
Sc 7.485832348084295 11.798195713149118 13.302708537981138
Sc 11.005574420648916 7.825214401449959 13.366843365584867
Sc 13.989948544776007 8.683827437230415 14.278704263542247
Sc 13.461665990063862 11.72262501508892 14.191640914075712
Sc 10.459888453870606 15.03190266966384 16.19745806561145
Sc 16.365774110739633 11.052623380188614 14.706545728587296
Sc 13.158917958062856 14.92977769933272 15.105937224707482
Sc 8.547155490861615 9.296711674329933 14.559660403371431
Sc 9.563252928881315 12.275426643404103 15.421593385719055
Sc 15.13646682618598 13.057172742515265 16.683388639110866
Sc 11.420715702928412 9.81108038346681 15.576910533682218
Sc 14.250107822940075 10.289471822863819 16.857669224237156
Sc 12.192054877394563 12.554482743758303 16.965798417268218
