35
Energy = -180.24548992 eV
Sc 9.552234417122797 15.378408503552846 14.171125483834517
Sc 12.677774900315486 15.953322194593762 14.06860160037267
Sc 11.689645547712134 14.040081770146722 16.08158840541594
Sc 8.595749524294716 14.948075143516695 11.160008537305401
Sc 14.493120797241707 15.330534409652278 11.502056227241695
Sc 9.285134013876371 12.213520691157905 15.366686573223237
Sc 7.683939489120621 13.170014359079524 13.069558287706924
Sc 11.412801664250985 15.76009940221145 11.36666496904709
Sc 7.326717350011334 12.223167996264575 10.072225638200514
Sc 11.258521519066282 13.267337450281161 13.273796827874577
Sc 12.174340367755457 10.960779982792594 15.593683335229821
Sc 14.117506063639544 13.353166322221941 13.966910033929421
Sc 10.213821902313708 14.090617584808403 8.847094242757455
Sc 9.524502746028121 9.197961146851577 15.72900104054852
Sc 7.646743178617292 10.286826434889797 13.305093482459384
Sc 9.809860587929949 12.083167798967008 11.095587654712707
Sc 12.841689329160014 13.047104493649725 10.49900501312957
Sc 10.650844774567434 10.025323658912399 13.084837362424018
Sc 8.984635922278187 7.557419937114049 13.268442271474013
Sc 11.989104463749396 7.855918150510558 14.479698912143196
Sc 13.75070493377754 10.427452855799402 12.84671676647623
Sc 12.927612783606303 15.643871188415222 8.746173333217094
Sc 8.695714428605218 9.228788644300016 10.622855829531714
Sc 15.699300949982751 12.373132795010134 11.312314093820062
Sc 15.290112145497693 13.956105662242184 8.78867418433892
Sc 12.630397151181288 12.763147984873063 7.483390377501219
Sc 10.038838070956302 11.004265545147327 8.249832608357552
Sc 12.333366622416582 9.965821044166942 10.16481109376698
Sc 11.371889319067476 7.28963747946038 11.439451889170222
Sc 14.152616965609354 7.420993428024002 12.323849307148334
Sc 15.743570965054097 9.352867158366898 10.83862458030041
Sc 10.66200528939043 7.9845657983240645 8.607677964075396
Sc 14.808031538865121 10.953032262667781 8.63602018085148
Sc 12.594763564382761 9.618140843892924 7.071555170604223
Sc 13.743419013699885 7.652488081090554 9.231057575099838
