35
Energy = -180.16586068 eV
Sc 9.48666861057355 15.72632752756403 13.885742093772736
Sc 12.51220805753332 15.590956958220053 13.09355887578088
Sc 10.142882611487869 15.407248188230394 10.998954651219103
Sc 7.103012517648907 14.346592508706614 12.373702021065805
Sc 8.122292222377363 13.675104964826842 15.322019995124586
Sc 12.906302182328817 16.059387590705267 9.996671279733974
Sc 11.337292460876592 13.438840761687361 15.027529684524511
Sc 15.089986338003998 15.00139665082872 11.592483894773267
Sc 8.424898781565531 13.523669601011335 9.575415744744504
Sc 14.131877332453604 12.919100155469689 13.864242098154966
Sc 9.532269436350296 12.84839430585913 12.659482591630589
Sc 11.16791383328189 13.74425257916784 8.539552234266484
Sc 6.889523141635882 11.618232721142368 13.761005467734913
Sc 9.588507009001985 10.916190438568028 15.290620158236836
Sc 12.558605135953158 13.216705748247445 11.237441678780057
Sc 14.355799360820514 13.619618671643579 8.853369231879
Sc 7.18414838396628 11.22593396073083 10.690771615646016
Sc 15.656796739870655 12.058233521023812 11.257819087533674
Sc 8.603242752575152 9.344709083915584 12.730518091777403
Sc 15.060699313248156 10.169365323248314 13.393343685385187
Sc 11.865424381348335 10.583664701877366 13.136497107298771
Sc 12.887578426927126 10.314199269048574 15.646112352141985
Sc 8.487629410632385 8.695501262499846 9.726737623195039
Sc 9.17468152335494 11.066537540437306 7.78756197982703
Sc 15.779749793737876 10.839825928388326 8.545838881208894
Sc 12.737781903811278 11.195061019102054 7.79875456451216
Sc 13.461469558404232 10.015736669152188 10.497201207901975
Sc 10.339960303071102 11.041092724852822 10.238237107465464
Sc 10.824157026532182 8.171219122267047 14.622778775801416
Sc 13.465566737391002 7.832982524115229 13.20723639172162
Sc 15.959098313080828 8.612590828385834 10.754643782515192
Sc 11.315620777738335 8.5656045434856 8.555052074286772
Sc 10.833670687749633 7.71035669106873 11.56116367709044
Sc 14.394461175540432 8.404623725843264 8.003591925886289
Sc 13.450087195276115 6.918096606809417 10.257539220578028
