38
Energy = -196.89300816 eV
Sc 13.46278572733795 17.926014925985392 12.526720552618979
Sc 10.30841153611784 18.42533563668736 13.012295306516913
Sc 11.895918172878588 16.732542262771382 15.220734661309594
Sc 13.924096183458781 15.180090386930333 13.604758851518081
Sc 11.4122506616851 17.73780390101149 10.200755180505169
Sc 8.82135734942093 15.868636550849125 14.15129268417693
Sc 13.384801895836414 13.847288304294592 16.36315821352938
Sc 13.845086430272955 15.731353209085666 10.27618286735069
Sc 11.298443396410097 15.73962568651112 12.421598705679395
Sc 8.741634885383808 16.485589816491828 11.123900227905356
Sc 11.828087904193561 13.003260191593705 13.842147766631438
Sc 16.48099363701755 14.179065424087174 15.111637513353557
Sc 16.363106110402555 15.571589106461449 12.154107482895798
Sc 15.374379674074063 12.710021751309496 12.926303516559035
Sc 13.001180731442725 12.96922951024777 11.088621692591147
Sc 16.01653091333641 13.282198063471432 10.069957673598674
Sc 17.078734624464637 11.0957299035608 14.701430172149346
Sc 10.394131170185762 14.233829943468034 16.02622973010977
Sc 18.18301870994349 13.109877858853709 12.67433477247265
Sc 8.599470503173837 12.13692356584888 14.761678536281924
Sc 10.854807332910784 14.591410063795085 9.62340538898947
Sc 9.176225814536986 13.472967550583144 12.10596978439975
Sc 13.990461454053357 11.155128305328445 15.079518090120931
Sc 11.118482478094602 11.239872438443875 16.239867889830006
Sc 10.802803347365339 10.47161655023279 13.16069275958968
Sc 16.78330405991917 10.367144583936026 11.687261591370625
Sc 12.887622914839683 12.451776605511686 8.307927556828853
Sc 13.589874000783048 10.242257340577392 12.036034062968358
Sc 7.960550338722874 10.514979454829717 12.253130664745006
Sc 10.484061154852133 11.379625138583265 10.271800350034697
Sc 15.248456623053045 8.552727201582734 13.776791108314452
Sc 14.920868687057794 10.640793637825066 9.390770401337802
Sc 9.277254862771212 8.702601819695037 14.41881680819895
Sc 12.390811422784498 8.700848196096405 15.219004270343913
Sc 9.740198879846647 8.438106687935504 11.252895156681205
Sc 14.920080325677569 7.925907811013583 10.712421603251665
Sc 12.317035345137082 9.144200267438556 9.529995903596829
Sc 12.339309450930822 7.596064970619842 12.459187739924257
