33
Energy = -167.92244918 eV
Sc 15.564427746721186 12.93757591316344 9.82166903809942
Sc 14.049237988867747 13.817046945426487 7.165288571108108
Sc 15.581334951602535 14.9943868902674 12.272125385017748
Sc 13.821665019798154 15.50267750957332 9.774887314530135
Sc 14.660942628978463 9.911725702693635 10.731728100711331
Sc 13.285710323210711 11.304793174537815 8.500973298012946
Sc 11.786034434393729 12.096365179629823 6.113002926367681
Sc 13.5726615221969 17.305229718381376 12.266544402511244
Sc 15.209003403817375 11.971135689429588 13.002586901508105
Sc 14.487324348248027 16.792590289370136 15.075284819895128
Sc 11.458931225696597 13.831784597378965 8.607948562732126
Sc 12.916949314674236 12.993780148219425 11.217869472628356
Sc 15.541347769132049 14.03776953557506 15.295787056037142
Sc 14.116885425625966 7.093432850078198 11.524940660222377
Sc 11.159834668739345 15.620729908756093 11.537989971397787
Sc 13.040849855980778 14.547094854175928 13.769641382390626
Sc 11.551375467240357 17.029413100741685 14.4576351118342
Sc 11.381449315980573 11.680117766374734 13.716864947957081
Sc 13.518444499857644 11.851225681894496 15.773371553042747
Sc 9.772347946574587 12.684174196794098 11.302126807747438
Sc 13.68995955910949 9.419531904986943 13.600890479153023
Sc 10.327021459260076 11.000018662349689 8.625409460735193
Sc 11.69079142438091 10.333254062767299 11.245000614832747
Sc 12.082818896965067 8.30585135211146 9.410091147742444
Sc 11.463769117628924 9.270029882844499 15.729042011695183
Sc 12.483550344707375 14.75751347903703 16.520493971909985
Sc 11.444961199860902 7.588703701942546 12.484350928159486
Sc 10.024305745282007 14.366844152424237 14.215163806917113
Sc 10.416260010716305 12.159746455403308 16.36958044262004
Sc 8.306774806864194 11.73238672248977 14.025508842193442
Sc 8.994793433241604 9.509482299831745 10.919837903483396
Sc 8.514138416058879 9.80577239082688 16.3971936886203
Sc 9.387213347832471 9.078209477596047 13.717278699365187
