31
Energy = -157.50318386 eV
Sc 13.895556770530328 13.98825258386948 15.246430224239676
Sc 12.338675420478847 14.25712720197992 17.69249017681098
Sc 15.539140623233203 11.838545474874653 13.93734885002702
Sc 13.576839037650132 16.481162216103733 13.962115171128863
Sc 10.994186419118506 15.345335110263061 15.231546175347017
Sc 12.784490930678642 11.466476814706562 16.313061732744313
Sc 16.20447520228794 14.668127845822946 12.753792247951978
Sc 17.2439877204617 11.8606673516844 11.495963999769103
Sc 10.056099880056133 12.772861667172155 16.36377654871865
Sc 15.957394340339867 9.204114894214266 12.649041668995594
Sc 13.579714253672062 13.819130652929477 12.195981534923545
Sc 13.034406707792568 10.131122657766536 13.55119662851856
Sc 11.285701922067203 15.782166554256804 12.251756434178244
Sc 8.601113456541372 13.851601687652161 13.6584483334996
Sc 14.235425905367807 16.341057428839306 10.937269028873255
Sc 11.288906367046732 12.709201280938915 13.684301468668437
Sc 10.350144362986558 10.053158354453164 15.034763024006534
Sc 14.496310141485273 11.134488157880547 11.13829180969472
Sc 15.387202160198724 13.795861199778797 9.855280485359298
Sc 12.283479249450624 14.144032830129508 9.507559515133687
Sc 13.307523395826962 8.594163231107341 10.409362623935074
Sc 11.457475927186783 11.247211888051298 10.801343997596108
Sc 9.658036163885901 13.734164802939638 10.92853818668999
Sc 10.81704899684152 8.552477515646434 12.19452656377236
Sc 8.848756172734209 10.97451846294061 12.532388026040955
Sc 13.565863353647304 11.59758374685262 8.388235661472375
Sc 11.452622325199858 9.515571194183039 8.191263957714884
Sc 9.033768040606082 9.542986656172763 9.848769760651706
Sc 10.823240773745718 6.995287868247353 9.591108299905093
Sc 9.954132474575493 12.123785053999372 8.41524102638076
Sc 7.317846529219573 12.138232301234448 10.263725027874898
