38
Energy = -196.14632586 eV
Sc 11.148334720829702 7.8268799448316555 7.378897914067542
Sc 13.23610418281281 9.77954719041894 8.388840829095184
Sc 10.424512619589082 10.786249006957005 7.61490885408949
Sc 12.78815304629741 12.870954543921412 8.416119038223535
Sc 15.511875008444985 11.81330394579769 9.431575640711793
Sc 9.20146631825286 8.689030420318124 9.387324444343564
Sc 11.905418320911517 7.914035865165169 10.420127024295947
Sc 9.830834738384722 13.566947212453863 9.250084618961024
Sc 17.996676631980566 13.348695186614005 10.037929784738328
Sc 15.335155714723767 14.856882254090761 9.605417925082362
Sc 14.08214356593577 9.941268446807733 11.61450309471242
Sc 11.426721943637475 10.865193205201352 10.419377866267471
Sc 8.516589539494323 11.35671227930524 10.801643646768717
Sc 12.10090145991949 15.44637128686085 10.023151025923399
Sc 9.290347929002008 16.515008112625004 9.96780927477867
Sc 16.319111619501392 14.093684854826272 12.388374068166646
Sc 16.913826628659898 11.177249284798457 12.009202025671229
Sc 9.734631402770106 8.946388466397135 12.390694835660844
Sc 12.526312855694048 8.011545426010498 13.643264253946287
Sc 10.68112178472358 13.260325207610052 12.094570012382633
Sc 15.432072812530922 8.958393411652219 14.125063952021586
Sc 13.665710934480018 13.141907836971273 11.376949443204124
Sc 10.761774634562244 16.19228075579676 12.656221026471858
Sc 8.765289910488931 11.55893964553256 13.925070696610407
Sc 13.901736734486189 16.01795035584519 12.498502553600842
Sc 11.732137362680309 10.85294350120508 13.666380149052047
Sc 8.14892811085847 14.46629323775795 11.85739270000886
Sc 14.772055514796161 11.9015928545157 14.15163010252849
Sc 9.607998291198449 14.454117904745654 14.815941915007771
Sc 10.311724292540708 9.013435382298804 15.475949083986677
Sc 15.090060626079149 15.04331223074242 15.21831927596258
Sc 12.504340552872646 13.93956521342214 14.400544649458746
Sc 13.179126275289752 9.860702743311464 16.034238687566564
Sc 10.80641396834369 11.989280011718835 16.327914194203423
Sc 13.683369409054572 12.966224497600074 16.968406702823994
Sc 12.530204072266933 16.75986713391149 15.360203173895323
Sc 11.367497480816624 14.824172838577931 17.341676889446287
Sc 14.015544927684804 15.943997583964391 17.900378990787157
