37
Energy = -191.81182542 eV
Sc 16.507975061295085 12.327280955267616 11.995241236602212
Sc 16.17024356157932 15.600438592962213 12.409765397067227
Sc 15.313491887919458 13.963483978105607 14.911001453573453
Sc 16.01672067628412 11.019552109643117 14.584133809644436
Sc 15.55793994379493 14.172194859329284 9.537264490473248
Sc 13.373686289122547 16.14442743917312 13.792545502982998
Sc 14.145126652758849 9.016360772409444 15.096159668218242
Sc 14.240122901049405 11.428434494773487 17.22687706705669
Sc 14.010316141853046 13.738149317476559 12.176201537737164
Sc 13.696400178420145 16.5280876813006 10.624699277163634
Sc 15.56819145659717 8.889774192908122 12.219971162732739
Sc 14.700622169682159 11.190116342163307 9.657522312164154
Sc 13.132332797821043 11.867517890018586 14.792731783420377
Sc 13.611519690792745 15.60479287106196 7.46876294442858
Sc 13.824726520714671 12.670840689615932 7.157840223337165
Sc 13.564398085282097 10.750820856356055 12.300052610438362
Sc 12.24566416405975 8.01822658047675 13.034024734637722
Sc 12.94637775423805 8.808803977147887 10.212915534713423
Sc 12.38628270002662 14.217411940266443 16.32706936342717
Sc 10.923048489383072 13.72796675944671 7.148283404891368
Sc 10.648810702278611 10.534835666173134 13.923876514587052
Sc 11.308242275341511 13.870211940739388 13.438001578510034
Sc 11.106305152484 16.532958365298494 8.64992794503836
Sc 11.388153462521851 8.711182974878485 16.132175435259487
Sc 12.399468513043358 13.954229133083448 9.686544430551423
Sc 11.643727138422637 10.976121891038247 8.530825630087271
Sc 11.106568132413758 11.565392951573282 17.022149283904437
Sc 9.994152734599773 9.026746041812926 11.000640874506617
Sc 10.815562919355601 11.842562368175415 11.290057102774446
Sc 10.749059330295438 16.1070574717141 11.679728731908218
Sc 9.237445023668576 7.961576110552551 13.910446364049426
Sc 9.180176814405808 12.968662266878356 15.220068453446038
Sc 9.391044925104067 14.363459363885733 9.635599902795956
Sc 8.600384511292306 11.530111024508958 9.516153973540865
Sc 8.58701236524933 10.078611486908354 16.01039058114423
Sc 8.494959001477339 13.712224542453756 12.286442800742346
Sc 8.054579570737655 10.73996401933226 12.73137532987817
