32
Energy = -163.58972674 eV
Sc 15.71885920978627 13.604534281907577 10.675459503208847
Sc 14.483541048375786 9.857097225898368 14.591623525997605
Sc 15.981593966867823 10.573555532428164 11.44743153331175
Sc 14.311196718854255 12.68952934197374 13.131399613943346
Sc 13.242558718317463 15.361062213239723 11.447303869589993
Sc 13.600707896115546 14.124354432417109 8.50942264262128
Sc 15.701995950340224 11.746186934893139 8.43017289712669
Sc 12.231732004252262 7.6931382946397076 14.378758130370965
Sc 12.950950494295242 12.33249843252306 15.902511189358137
Sc 13.383358265290875 11.429994883753459 10.460492552097778
Sc 12.703897376781915 11.260016967853845 7.510995827344548
Sc 14.631410303987055 9.113674517589025 8.96851187879329
Sc 11.544981523261821 9.097806919262851 9.396938536577057
Sc 13.505383594488489 8.626522292665054 11.818295043919413
Sc 11.800173401220682 9.713228735459477 16.4406645695641
Sc 11.928039930537341 10.715599735293093 13.546566129077389
Sc 10.792976385252297 13.834098560045872 7.2676762165308295
Sc 11.15908376823809 13.422122585562674 10.497855260340547
Sc 10.384805214611571 7.575239803660246 11.82929614654714
Sc 11.219710318307571 16.104830362061154 9.063869677875877
Sc 11.50301190855593 13.918961490234913 13.601857197126131
Sc 9.684327809887796 10.500175815166923 11.626661674767861
Sc 8.452548447265565 8.732940003558157 9.48959929320501
Sc 9.659781665432416 11.45038930450707 8.636809660711762
Sc 9.834049448525624 11.997797015345535 15.333948241162531
Sc 10.086158068472674 15.974651187849718 11.746092731436425
Sc 9.40416928244359 8.915597106574191 14.549728064059474
Sc 8.60737339697139 14.32645672987342 9.46550007641743
Sc 8.687552285972417 13.355099511641637 12.479852673287912
Sc 7.360552273762894 8.557397575334658 12.1809302613777
Sc 7.112288869481952 11.372349924207045 10.609446784899403
Sc 7.320206422433107 11.015663066402452 13.72332562048907
