33
Energy = -168.84752709 eV
Sc 16.004825145829187 11.11187556152349 12.633727140111308
Sc 13.849582431492717 14.021427279293162 14.020890880699007
Sc 14.065231567082636 13.049630735025673 10.981954035253171
Sc 15.269708283913516 10.56895432663423 9.45471299505367
Sc 15.123752903984359 11.830543855274758 15.610204097069252
Sc 13.51320471902435 12.954152469061457 7.969807468841536
Sc 12.673920528086017 15.513891956705068 9.619461660992004
Sc 14.88267837883611 9.027447567473429 14.682879760641987
Sc 10.850798146041685 14.727004181539924 7.31234366458244
Sc 13.416743599486175 10.052789442722183 6.907648784588211
Sc 14.206341038136616 8.627064019989712 11.747750422056141
Sc 12.682780802803634 13.394788875470484 16.740830494031396
Sc 13.20690143239312 11.03014086983107 13.226581123761296
Sc 11.404816943190033 14.626107310800101 12.272878018066319
Sc 11.010537692708446 12.950107324517047 9.771502403152528
Sc 13.678009891121537 7.832702337067064 8.889624612453943
Sc 10.661812453221732 11.535683163984656 7.054673711832869
Sc 11.211440194871527 15.484837471150938 15.352567174884232
Sc 10.927494231731817 8.529287551639085 7.848271113902972
Sc 12.375261207796347 10.322906858329848 9.867392131142193
Sc 9.555021176627333 15.594950086807376 10.043136975432974
Sc 12.525874662532912 10.441285799754745 16.162630572628988
Sc 10.863210363671959 12.651697420828082 14.360169681856926
Sc 8.688050913910544 14.799320782814299 13.955416965211457
Sc 11.17793947589425 7.838136095858883 10.881019283094203
Sc 8.395578800556809 13.26868178532434 8.309758013687055
Sc 11.957387473844076 8.398081818833198 13.931968592921327
Sc 9.397584161831155 13.119200380502939 16.653256250792133
Sc 9.073570798910684 10.366904732782336 9.501289661462526
Sc 8.531810653819582 13.020652689763756 11.450766057216256
Sc 9.683622298080012 10.000289485873996 15.416921695702422
Sc 10.16104567684287 10.457772315568779 12.33435253112138
Sc 7.860483943987088 11.904169240019021 14.19559748231481
