32
Energy = -162.51746698 eV
Sc 14.314553607882475 8.176813889410548 11.265666263186763
Sc 11.253062468813857 8.762422325354567 11.054418643463178
Sc 16.01023384077415 9.316706665034546 13.461757941421526
Sc 10.35497606082022 10.165102947799598 8.470863902943293
Sc 13.062856987660805 9.896229746354567 13.34663786273615
Sc 15.14694003826666 11.519699727383276 15.560596793841063
Sc 13.236932233463431 9.964227531131362 8.922003566360925
Sc 8.801112391683514 10.83168746936261 11.140868855074446
Sc 10.04985519608321 10.085853908236102 13.867509222573059
Sc 11.993572355090183 11.928345510838376 15.720330633973298
Sc 15.01395069397138 11.146653471411215 11.169917030154132
Sc 7.342846265322527 11.523274556273593 13.747161683669876
Sc 11.723249973062954 11.751036774683316 10.964514210871847
Sc 16.972508306293957 12.356542256204062 13.309871106392409
Sc 9.24516864771194 12.847319655364304 9.050055479258239
Sc 8.989942200315218 12.045520222506841 16.156512664301044
Sc 13.638775977955229 12.831380545424368 13.351073218202261
Sc 18.564682590606814 14.822722710729296 13.140149379269806
Sc 12.170959418231618 12.730925273319984 8.126221246448726
Sc 15.200653548957922 12.306673866940434 8.374551219431346
Sc 10.167430320731455 13.102113228146859 13.433599527145336
Sc 7.838285302943465 13.800401273812813 11.664377291870965
Sc 13.85992314929935 13.982324126492623 10.527775449153435
Sc 7.581432550365714 14.325297020367593 14.79405285110951
Sc 16.87931417418764 13.754618014183816 10.694438926848138
Sc 16.9849928150375 14.093635407145898 15.600185386830564
Sc 13.86191256607662 14.40657429635338 15.787187319732388
Sc 10.751051623606187 14.756024398655084 10.746831645392264
Sc 10.563190098270322 14.783572748108952 15.861466412977665
Sc 15.593109838631698 15.123250421378724 13.161386352341964
Sc 12.308246126423157 15.498063937449597 13.3022849818256
Sc 9.346647742076636 16.07334277003059 13.197428603323234
