36
Energy = -184.09716881 eV
Sc 12.173112224366909 9.054729933112721 16.018658514483477
Sc 14.888648154973291 9.563785012807175 14.619896254481741
Sc 13.841018119155933 11.885843552138759 16.343937091505992
Sc 16.073423863628584 9.942598872193528 11.465056989332522
Sc 13.613158155769975 6.882534316518853 14.384398509620134
Sc 15.52302587860795 12.29759292678124 13.552370279241925
Sc 15.482421641677664 14.399886063193739 15.831243284075812
Sc 13.33331856392926 8.83556428249193 12.091625785325899
Sc 16.76317699135727 10.771474406534445 8.542177411223994
Sc 10.921104017200262 11.781649771592047 16.836528827622097
Sc 16.397495039198695 12.952939927728604 10.613713994637285
Sc 15.931208282958018 15.415626938304287 13.01329783041391
Sc 14.058308972624813 9.667254590138217 9.09100400135267
Sc 12.38034700333811 14.570032800707772 16.559741446567852
Sc 12.268988061057373 11.20303070586334 13.90025626872361
Sc 13.725645121716413 11.794910022979728 11.070461121151135
Sc 10.871317043687979 8.028879402573434 13.541459735648909
Sc 14.103490395946416 16.91979113286313 15.313884217495252
Sc 9.386263778218662 10.37606177797925 14.496091848828055
Sc 14.328770433530611 12.697837289312151 8.276917176713708
Sc 13.936993229272456 14.87436743343475 10.564316727967286
Sc 13.62658817193336 17.290015483570475 12.455283883617543
Sc 11.143572118904025 16.54406975615027 14.286207203346564
Sc 13.20363403681055 14.437248782360655 13.619620673445723
Sc 10.629843955507036 10.128224797337056 11.355175206296254
Sc 10.903179471962558 13.302311590291673 11.427065234272368
Sc 10.181446020207671 13.527279133525251 14.559993041714671
Sc 7.971964463437239 9.243321297688855 11.980173788048035
Sc 11.539566370485533 11.639501080209307 8.81721603209226
Sc 11.621459330782214 14.691557619466755 8.634951254700225
Sc 11.067689645632223 16.273654772481617 11.242673075130629
Sc 8.63680011212132 11.53859858753302 9.5357925110897
Sc 8.188568614210359 12.24127568924725 12.377175387755761
Sc 8.69070308593803 15.28797511132318 12.698098163915816
Sc 9.589285924471799 13.187019553769225 7.098159856409215
Sc 8.712622029601842 14.529804631973281 9.725587261737546
