39
Energy = -202.1521252 eV
Sc 11.723011388589752 13.543133042577868 15.725804768122785
Sc 11.127773002161284 10.142839225082954 16.074971917829977
Sc 11.696723556026758 11.11812905489569 13.629978908442869
Sc 14.231012905470457 11.77993891562957 15.385758531411202
Sc 13.782836063631226 8.881358545138283 14.15953430272258
Sc 14.30696006561304 15.210971611547473 15.22513008018158
Sc 16.191413262485874 10.682313664761 13.189160053120343
Sc 10.98943249124179 8.016643908123289 13.751895666611174
Sc 16.614336891262088 13.510428233498958 14.271231734139201
Sc 11.566218615109708 16.709662884228404 15.097093135767532
Sc 8.991533666153293 12.391180851702982 15.010224916447056
Sc 8.67509327521112 9.630483434713856 13.699120544279907
Sc 9.025266383691513 15.415900096889077 15.35240354026925
Sc 16.008269715462408 15.787740816392628 12.596845109326273
Sc 10.745351557286977 14.61492861141213 13.001802704941753
Sc 9.122528964877024 7.2023006851906946 11.195277351826293
Sc 9.349970884686089 12.146136391909515 11.966464557813692
Sc 13.781527559105546 10.402540944697105 11.36774777944947
Sc 12.846126212470752 7.3885571128929435 11.539966238112328
Sc 11.392338028828734 7.416821962756444 8.971567822890675
Sc 10.611614716553246 9.573009281115358 11.02132268971988
Sc 14.23698225441098 8.70934754091303 8.990799990459125
Sc 7.471408795461894 9.914761233013726 10.866404300259513
Sc 7.584012326103988 14.51050574286379 12.97745558375871
Sc 16.61509741438295 10.244973204796906 10.076726057886308
Sc 15.745186953507549 8.019178477291257 11.708669432738107
Sc 16.34102644853 13.09654556740715 11.137868980267134
Sc 13.861950045690458 13.549242955465143 12.826061827292932
Sc 9.448898996350186 17.084336143251342 12.747291816991419
Sc 8.971823696096397 8.898110551019712 8.572304726433755
Sc 11.858908852447273 12.981988573159734 10.452907285218043
Sc 13.15704511771495 16.62704626335244 12.612987309381861
Sc 14.423941200555864 12.138898069389494 8.83693349123516
Sc 9.14280368076702 11.914856740208146 8.91602624231522
Sc 11.816292295932014 10.565517835376621 8.356878300798412
Sc 14.126975856890544 15.065565124089325 10.042816241356062
Sc 11.38967947605941 16.130564526004004 10.298568365439891
Sc 8.954521982524794 14.70058423551627 10.214426845232895
Sc 11.495420944451848 14.001781513426254 7.977243091946025
