33
Energy = -168.71591138 eV
Sc 15.655080019930292 12.950592818270607 15.72743025844946
Sc 15.636674100859148 13.714105699586996 12.764997759616076
Sc 13.044691149541359 14.019457229376766 14.607378559418859
Sc 13.451740063562461 15.666323775005681 12.149013428796142
Sc 16.674379850411025 10.916219849479914 13.486069575859078
Sc 15.627318018283798 10.09555439771208 16.398722529821104
Sc 14.519740974182904 14.386171123553563 9.46184489454878
Sc 12.967459367764583 11.79747486572894 16.909788047538537
Sc 16.283708551287955 11.970928056315136 10.46239486685556
Sc 13.257401850258452 12.649776033464985 11.26732073249426
Sc 10.491380825206871 15.017225328078368 13.156651771668274
Sc 13.722264597543145 11.033122830833461 14.106339916046652
Sc 10.43312043860669 13.396442048969421 15.799371202446487
Sc 15.071500852925984 8.273338096381472 14.069405880534536
Sc 11.445719346975672 14.969053265116266 10.175428005014636
Sc 12.924751299517151 8.776728673058985 16.150093819457386
Sc 8.29192669145951 14.418621386043068 11.13987618315519
Sc 14.56372565117252 9.700463764168987 11.382831194740827
Sc 10.823892698701517 12.060526789819091 12.806747335721859
Sc 9.210670557142818 14.744906536447298 8.055175996967309
Sc 13.888652401171017 11.394805221130198 8.673818231444061
Sc 11.925364905701798 13.320574677378406 7.532150724410102
Sc 10.49412272822247 10.481391019787562 15.254712907927923
Sc 10.02838947372883 12.323212121038736 9.740094861604828
Sc 11.574055364895516 9.8836539646927 10.582699509935496
Sc 12.03971095665681 8.63338907684095 13.25065892760747
Sc 8.256350313737022 12.687903196264118 13.95885081877954
Sc 7.4888324861825035 11.524946035456695 11.39296530670546
Sc 7.115351189607406 12.730569862591754 8.757275158831876
Sc 9.161883592445148 9.487610420180092 12.477733239727817
Sc 11.2726007109047 10.268675402299683 7.578004042217129
Sc 9.099538756972951 11.963086427739144 6.70079525334237
Sc 8.59041520732601 9.844039537671831 9.146706566856917
