38
Energy = -196.95683924 eV
Sc 17.117752476997072 10.148866325257572 15.858432164713252
Sc 16.304422575672472 9.290630782361202 12.669119435984296
Sc 15.214577824645778 11.34461285086904 14.377587356303373
Sc 15.831074164570568 12.121290484129272 11.417204901431173
Sc 17.50285540352694 13.08757084168487 13.835682293141796
Sc 14.577815737149466 8.558143960894903 15.038409996130115
Sc 14.779649257763941 9.973662514377741 9.908484943396562
Sc 14.059455987811056 10.98765109387581 17.049505038951015
Sc 18.639076630783872 15.684125624462254 14.124866382231804
Sc 17.435873969531833 14.737599257494077 11.064163580860418
Sc 16.216240229144443 13.170275793360398 16.587317405968296
Sc 13.08025689689713 11.290958557471663 12.471004485874847
Sc 13.344218419724147 8.490074131548582 12.208418754799013
Sc 14.74586989026253 13.219605070823539 8.912726077930333
Sc 13.34595842421587 14.14741936380649 17.89319112846628
Sc 15.099666864978007 14.662416171933 12.83155037163324
Sc 15.743072522906628 15.929696359677655 15.330037340343821
Sc 11.756768904588457 9.834864276784465 14.786448033438196
Sc 11.311298202820478 12.20857618702224 16.671388777302138
Sc 13.522936424896455 13.509420390616 15.082797935816766
Sc 12.8127244137474 13.842989030508823 11.10965429081587
Sc 12.250786072400382 11.399560507615062 9.407410647982298
Sc 10.417091109672596 10.056359909315665 11.701874906966033
Sc 16.68577904524833 17.200601340130063 12.564398757281754
Sc 11.630226690467161 15.093839350567789 13.472237754669488
Sc 14.672113439609145 16.158735066857428 10.26716965522313
Sc 12.76896533878428 16.47649681165357 15.927252986470037
Sc 10.568480066297838 12.389442260501792 13.522750046451584
Sc 13.682648996978081 17.34064934051655 13.23163023203124
Sc 11.813966632762906 16.86124407238649 10.998630399225723
Sc 11.83360179321773 14.656461702270805 8.687010405524656
Sc 10.349140749019865 14.901211968228779 16.54168916359773
Sc 9.98868332409945 12.802575914500967 10.444933794909542
Sc 9.234407656392738 15.41724643243272 11.389487484313921
Sc 10.342370601373002 17.415268371732964 13.934868916307806
Sc 7.85283943183199 12.51486733999773 12.458592143628328
Sc 8.54261702751614 12.085804886085251 15.523428475619978
Sc 8.639331951027739 14.733873080170666 14.178433045159103
