37
Energy = -192.24232722 eV
Sc 12.73349653017293 7.875458662541899 10.861769045988414
Sc 11.09741275320694 10.513719565395569 10.27565994811694
Sc 13.534704664612539 15.964997937239392 10.783487328185528
Sc 7.857439525493077 9.078899384456271 12.640869241223477
Sc 12.114103450427814 12.14711844859554 7.223074357543526
Sc 13.741357087490144 11.884451576682132 9.553763448479744
Sc 15.279203848735824 9.418139485368789 10.524877057279477
Sc 8.08822678842281 10.89434732776172 10.368050350653279
Sc 16.464271694301956 15.364419428783886 11.282926126386846
Sc 9.900435379969675 9.83998428618043 7.66983355479064
Sc 9.66156456576135 12.694636773138932 8.647042838510437
Sc 11.88124554677301 10.387138007472045 15.230773862502868
Sc 12.974074758733444 9.286441310895956 8.18110168227745
Sc 8.702903985507392 13.982284305420166 11.20302882755035
Sc 13.235074336382278 10.646532978410193 12.370286283334323
Sc 11.352753177992813 15.542240099433497 15.990825435051843
Sc 12.313264254547486 12.746662413222905 17.19115987344713
Sc 14.3760808267322 14.561131507573261 16.226906381426446
Sc 7.152377532560448 12.005630703464352 13.675664854761184
Sc 11.055662728183083 15.965794659047353 12.496893302924661
Sc 16.54091929445329 13.879310733413629 14.027527952356277
Sc 16.377666664387895 10.939317310588397 12.85997893657411
Sc 14.477151352868654 13.366549288915925 12.13414712895716
Sc 14.316784236245912 8.543095817079616 13.620384965817234
Sc 9.514182908252428 12.651240409610192 16.06958801289326
Sc 14.097014017598685 15.951290175591495 13.674867302189117
Sc 9.048323949774618 14.545495472649234 14.025191125665307
Sc 9.785904701185457 11.548040185148878 13.001928818180264
Sc 14.634178363078794 11.727118112766272 15.114714621094544
Sc 12.116338484873804 13.517295862777846 14.286901496388602
Sc 14.786071332659173 14.402624291591408 8.699587423633258
Sc 11.670897799972048 14.874268009994305 8.748595489328785
Sc 9.639397237043896 8.073864220243635 10.235464219505072
Sc 10.837899365587926 8.525731727346813 13.032698554886435
Sc 11.634258379235591 13.338085130018777 11.168600670568681
Sc 8.834610747612977 9.821429188986928 15.280598177385912
Sc 16.659240413844774 12.390417419470435 10.207872290193725
