34
Energy = -173.56154665 eV
Sc 14.21860478757858 17.84801258048798 13.181611501522864
Sc 14.394583032579298 15.571432419176785 11.366965324157722
Sc 12.025938258914726 17.23087776976979 11.168620894127189
Sc 14.996443564446965 13.09597358839738 9.413134550119347
Sc 12.242629839494164 14.630828439604237 9.41689249929929
Sc 13.829625453430298 15.409650594737775 14.640475543020633
Sc 14.38414952783266 12.666181994111291 12.593936130404927
Sc 12.60028523815292 11.93853520472704 7.5531963950848775
Sc 15.244607009501792 10.515878134625673 7.726970836407737
Sc 11.329365001734322 16.96020310810723 14.093428212339928
Sc 9.643661196457352 15.169132558590773 10.989965118559642
Sc 11.864087685193937 14.386353119793293 12.589230957195683
Sc 16.3546837297238 14.553365217355749 13.475853024562213
Sc 14.552461542469104 12.781514380657287 15.75358912502903
Sc 12.858292614687516 9.090319846615026 6.679735339435086
Sc 9.86674062822276 12.615324371962599 9.15513091206172
Sc 12.467950562572108 11.696717375505807 10.472249312897807
Sc 13.950034658284405 9.579997291561943 12.739187410826931
Sc 13.5422188307012 9.03502259901763 9.60562420343405
Sc 10.675935769547326 9.79155406638667 8.812409837610579
Sc 16.345626213824048 11.068029154152098 13.986907057008441
Sc 9.843397909890001 12.219286199549687 12.300319039774097
Sc 11.46655718629594 14.097731859926386 15.855998333236819
Sc 8.197460768088167 10.500908462636163 10.657549929290965
Sc 9.17773201489184 14.651497386250272 13.954110517135046
Sc 12.073671236913523 11.555261516992598 14.310935059406821
Sc 15.950406614196257 10.646012905016095 10.809141252775634
Sc 10.891662453061251 9.393870937266671 11.836878922179109
Sc 9.420350510349191 11.87927608570274 15.561618392669622
Sc 14.17553955839684 9.832097922157192 15.805060203972317
Sc 8.574011061523107 9.657659363435968 13.792054732916158
Sc 11.793086500524392 11.060392344306267 17.215391489005587
Sc 11.268139995559999 8.90558498987514 14.933336065113506
Sc 9.158886376558682 9.240582725612924 16.87837026206979
