30
Energy = -152.42492662 eV
Sc 13.923995600406501 10.292348673253263 16.44298512133321
Sc 15.256601891976047 10.408877953214528 13.677955622257214
Sc 12.41945593506236 7.964476563015595 14.74554178037533
Sc 14.329391520283435 13.068336640096508 14.993564610982277
Sc 10.853313367530198 9.802669736476467 16.712135921246734
Sc 11.871224200134678 12.62895035473659 16.70408461216445
Sc 13.829924265839537 8.336800566541989 12.117949480656588
Sc 13.76658874863134 12.546824041882743 12.209225452799878
Sc 12.125011611755511 10.854991989206361 14.14708038983071
Sc 10.969242490071402 7.709102487240882 11.664506919467032
Sc 13.871214688211483 15.41599842320158 12.336043033160788
Sc 11.356817880807332 13.882839919323766 13.66565170190006
Sc 14.692191427480134 13.655621706526656 9.560576789194293
Sc 9.25990446409389 11.996283716238384 15.260786655260318
Sc 14.881861849725047 10.482882795685668 10.340670217556232
Sc 13.030754349182857 16.293883975913648 9.548460854050242
Sc 11.05274931937721 16.362299094189595 11.736750222331214
Sc 11.873753315774046 10.423453730825532 11.009621541428318
Sc 9.583320550645169 9.087229492658388 13.97960511387627
Sc 11.61864091276485 13.556116842408994 10.275035438817778
Sc 12.904074750646643 8.339648563720216 9.210393575309133
Sc 12.895420562081666 11.42230925286092 8.170410409278897
Sc 9.553249779254164 11.64052788866585 12.330941291322608
Sc 12.652294284468704 14.385838855102158 7.367139927734897
Sc 8.802989871716164 14.493105441663754 11.737604815859045
Sc 8.538502944764549 9.346567825474905 10.934017454121516
Sc 9.932366238868704 15.456862159332939 8.840617554467011
Sc 10.27225677541216 9.923672270478221 8.618098244441152
Sc 10.311242464591755 12.728592796683143 7.128749520912178
Sc 8.809920222199555 12.36206031967906 9.56323610749984
