31
Energy = -157.20256683 eV
Sc 15.577839875912721 10.95757536038964 17.294699331929987
Sc 12.754817108775583 11.737405739543266 17.28125853954701
Sc 14.684588331725953 13.67284427738506 16.192737379753794
Sc 13.590897322959327 9.810419863174266 15.227277142670655
Sc 15.871048682679179 11.600763069928517 14.335686775234644
Sc 15.412481119265706 14.323343719450435 13.099682410417829
Sc 10.598810827597209 10.914387774186867 15.246358345044907
Sc 11.2347546843566 13.875350636332307 15.877678746841113
Sc 12.939545352069967 12.459330223542501 13.78343206400684
Sc 11.486863381209995 9.282704185521029 12.827912351817398
Sc 13.202494333333835 15.682815950837819 14.46611273128644
Sc 14.396886124495891 10.12469347644982 12.14992008032112
Sc 8.331798680369284 10.053233368107579 13.138468144885062
Sc 8.796926823351898 12.925975964290584 14.022245433242363
Sc 16.609182150895176 12.228474105735012 11.167622080677948
Sc 16.0919316604564 15.206219546739577 10.286184467859933
Sc 13.278706860840003 15.815938449478281 11.331817597721129
Sc 13.67655799560499 12.826718438693852 10.620440221721177
Sc 15.102308779452162 10.554551113246575 9.12135905214803
Sc 10.420008235448828 11.803251268731414 11.618732925850097
Sc 7.313784412113418 11.08682434343746 10.521296153308432
Sc 12.212279564945456 10.039560699451927 9.84775794774154
Sc 10.903851413697627 14.711712860341917 12.813344217836962
Sc 6.118605835861164 12.25893898700933 12.878178429577881
Sc 15.985052422666703 13.129100127260076 8.130669570990987
Sc 9.451824377943517 9.047957356592645 10.468653293595333
Sc 13.756495938198668 15.108617801192956 8.39040144560252
Sc 12.845141852407373 12.253927502730074 7.769685270224698
Sc 11.076282510091474 14.20431943869683 9.638854334474933
Sc 8.20074284399371 13.819232096651048 11.180210713246277
Sc 9.746450694551635 11.59760272140599 8.724660301556995
