39
Energy = -202.0347345 eV
Sc 12.860184763558912 7.662998480350156 12.2364589279983
Sc 13.99044252490593 9.381766965009316 14.51596848273936
Sc 14.58353725933236 7.43908882760232 9.471590143919592
Sc 11.557221922524304 7.095518045877332 9.62741456806591
Sc 16.64071614882932 11.11513065070394 13.993071503802268
Sc 10.984896448267618 8.110121708694468 14.670745029601491
Sc 14.534004923996614 12.133659878054535 16.119464775139722
Sc 15.62084532956933 9.302362335458739 11.726669088177253
Sc 16.31004192512985 12.307898388099488 10.95298797538101
Sc 9.708146436876163 8.234419409812539 11.889530455887723
Sc 11.611335513808044 10.982127668836904 15.854630129170674
Sc 12.830531494242178 8.608203302686215 7.441112641170794
Sc 13.02703510618966 9.900799579864342 10.162166540262191
Sc 15.760937715174752 14.142785560522501 14.048622200633384
Sc 15.293264372418205 10.411216776056124 8.50993595372215
Sc 14.11505237328136 11.743878570548063 12.682509360848698
Sc 12.529430171110457 13.663379750095505 14.433978710682199
Sc 11.431999405846657 10.443652277925224 12.8347083610616
Sc 10.230466081114914 9.72969927906269 9.092693031933374
Sc 13.900553443022106 14.521293098889076 11.692503254111305
Sc 14.220581453926306 15.317514118211516 16.457800442017152
Sc 12.301884959494465 11.577650331336134 7.463328178773715
Sc 8.914945319397374 10.426278585502313 14.283574920714702
Sc 11.929999780275631 12.859345888466084 10.184028116037577
Sc 13.893460442277695 16.67440834493942 13.820104323182209
Sc 12.011603912497804 13.617902509416508 17.430987384572916
Sc 8.316363357504956 11.011626678141484 11.211542228508913
Sc 9.994837699049937 13.187628036057996 12.567331820051798
Sc 14.435366625028175 13.467909526878554 8.73730758219972
Sc 9.384094305302051 12.69681413562355 8.644524151205612
Sc 11.293718019066361 16.15120108563881 12.527458873627507
Sc 9.523648319883348 13.37286485714586 15.544694058535926
Sc 11.216335229709765 16.075181767581398 15.591461346214471
Sc 12.916913828259492 16.32809490597271 9.818050922661769
Sc 11.778548310547265 14.537835077227893 7.668878713892689
Sc 7.131681931118864 12.837696864005133 13.552963915438191
Sc 10.038077217020648 15.400542987992344 9.989532911249531
Sc 7.598206693152985 13.989861160386065 10.912931033082229
Sc 8.517710793078695 15.55117442100424 13.55846341425667
