31
Energy = -157.61552202 eV
Sc 11.012700037314792 15.786985708920275 12.567754895387388
Sc 13.154035986036302 14.701120325828889 8.262478847540798
Sc 11.623588292920957 14.231686047518027 16.392401146951237
Sc 17.025883616510153 12.237234915472373 12.000470408884507
Sc 12.663194872980629 11.617348280457522 8.136544653236173
Sc 10.838576569025916 16.05240684099513 9.576928411808115
Sc 11.680616266125849 12.959335629156255 13.794786775316622
Sc 15.600303095227828 13.803282961677645 9.8519704669489
Sc 16.492594526521412 15.206078203192266 12.486410707122205
Sc 9.142818462239152 13.929236620893318 11.064765049895312
Sc 10.283404167632892 13.514782978581794 8.138688664990113
Sc 13.724098089737303 16.010864231514528 11.10971892830671
Sc 14.504526685833786 10.948040067135407 10.452425745878896
Sc 10.084254214419284 10.958804168391696 9.933909231840524
Sc 10.899125949083212 16.92153680466905 15.330760973410513
Sc 12.328171995676728 8.892689573197574 9.699454274551398
Sc 12.02868454059186 13.27449694266286 10.625163629443222
Sc 13.494936326348698 15.538351776017 14.349342316886116
Sc 14.206961780232838 8.061524746401876 12.00327339390628
Sc 10.103581462743156 8.230213195573976 11.692591000547525
Sc 9.137761666776294 14.466085790275812 14.522574433762369
Sc 14.717388190616076 10.541736175908575 13.416418190415223
Sc 9.773913680724563 11.876767525233813 15.987109897211573
Sc 11.909382143388061 10.308166521902272 12.333598736703054
Sc 14.368621936260139 13.353944034188343 12.505856866083537
Sc 14.301791508671796 12.683427041494355 15.511442916756435
Sc 9.011400793347113 11.63930956515227 12.936920962733815
Sc 11.996169437035869 7.522617945484836 13.957703976186933
Sc 12.30529685489849 10.182191797019453 15.402946677048241
Sc 14.688512197799373 8.174100093666006 15.091973976731966
Sc 9.626853020581946 9.242702555253477 14.447086744824592
