33
Energy = -169.02249236 eV
Sc 12.533915804534608 18.284686291029615 11.357719897246394
Sc 11.00689018397297 15.929469825194339 12.532752829750104
Sc 14.079024399058008 16.23483344960656 13.09303837197097
Sc 11.911730470167901 15.85461399593393 9.534601823771343
Sc 8.610840959409394 14.489666589390783 14.096246418318332
Sc 12.235264859189398 14.253134780874547 14.751455496046587
Sc 14.653565012546746 16.63960288161199 10.240610271908855
Sc 9.751015440065325 13.829439373142721 10.721442528577512
Sc 14.496090596168665 13.905396441832215 8.872378260887924
Sc 12.973839159213561 13.935747731648505 11.553348608679073
Sc 15.132056603801171 13.308626759992565 14.185003087650594
Sc 10.067505534094416 12.884347524980765 16.358790008812516
Sc 11.714180739363323 12.699852892755757 8.595049645871175
Sc 7.478815974253722 12.37318184353361 12.116574230991755
Sc 10.26067481297635 12.345133007215773 13.364995129620075
Sc 13.036326842711514 11.786622644533571 16.507683834686972
Sc 16.087113266592656 14.1887760075456 11.44694905828799
Sc 15.70294802325912 10.525185639022764 15.365360855503646
Sc 7.827603385974983 11.589760597235347 14.935427282801044
Sc 13.088140963230071 11.060375468122762 13.739026021788789
Sc 8.914237800499667 11.002902162700847 9.658287576862042
Sc 16.96903253783503 11.40671382229929 12.77816397458639
Sc 11.461825168724944 10.759276014453125 10.968003590387628
Sc 11.294691359943185 9.689124610502864 8.044671839889817
Sc 14.043261292087697 10.890351948082076 8.038807906843422
Sc 14.599977880548511 11.420752627588946 10.93963703906279
Sc 10.614764568729282 10.022972832670172 15.326654563907391
Sc 13.421430656029962 8.734265556464191 15.628550193452805
Sc 8.977038559469138 9.6963321711913 12.587272443365942
Sc 11.872097178608758 8.350206931295485 12.881293775182742
Sc 10.189019724000163 8.118300437356393 10.214288133438124
Sc 14.992521044511507 8.939285778774261 12.86779968267236
Sc 13.320900023942903 8.62158470604332 10.0744972336236
