34
Energy = -175.17071931 eV
Sc 16.62555582687594 14.556266804600572 13.667617997355693
Sc 11.326375139322472 14.33044797297666 15.502806686963423
Sc 14.201994974603508 13.050822988166814 15.676624790243464
Sc 13.843192671744294 15.937952312491504 14.510780731004822
Sc 10.44287874034943 16.888241075776545 14.223061458833813
Sc 11.495389620927883 11.408281713346042 16.632638717257265
Sc 16.0488205856468 11.24261696723027 13.571851282692343
Sc 9.216204057445447 11.149500251893063 14.51611515284875
Sc 9.162509870951501 14.070219373392174 13.086864051452128
Sc 9.354711164485984 16.66639201716503 11.48140230565342
Sc 14.344000964747513 13.623899460443136 12.691323772535977
Sc 11.880848707507104 12.167083644346265 13.714046446429453
Sc 13.700782331737999 10.203333140854964 15.087273913855
Sc 11.879214242609013 15.182380926953687 12.372873154250998
Sc 10.959091438920987 12.664898600148737 10.668185739915835
Sc 11.162946586947678 8.713054599891818 14.781084695289804
Sc 11.273144973997828 15.545556599838815 9.377360029749653
Sc 14.744590219716017 16.222533748549637 11.625016806845514
Sc 11.114282829672927 6.967756285490556 12.0271209408807
Sc 13.75131609438744 10.956889912105172 11.567147518449028
Sc 8.609454968335616 8.47395547337126 13.053645121598748
Sc 16.363295678624503 12.558710642729855 10.851829795862661
Sc 8.544135609090041 14.231980541095943 9.897933824701854
Sc 8.26164825024407 11.263628548987882 11.576658566045683
Sc 13.854074522524268 8.20108563459468 12.968041159829353
Sc 11.4760171440439 12.952350456054702 7.757789758887448
Sc 10.972857399324639 9.805285647675468 11.99829973065262
Sc 13.671092939011587 13.742964504093006 9.7529319857066
Sc 14.345558688027383 10.949972237563173 8.696180672149316
Sc 13.223336359617544 8.229828210832396 10.050754274464063
Sc 8.918036701320057 11.445727949068699 8.648226864238353
Sc 9.19075855911364 8.596720332778322 10.01505138188049
Sc 11.460814192387407 10.17874527254946 8.747687864479134
Sc 16.043521462144824 9.374303111028238 10.953442217569773
