37
Energy = -191.15395202 eV
Sc 16.154607825723723 12.755756407336259 9.635366831068135
Sc 14.234681259663406 15.07933773146662 10.926684281120519
Sc 17.329858250469282 14.457348247254417 12.296986811706866
Sc 15.3915444421779 16.737301687856615 13.324721526576857
Sc 16.881756432744154 15.347994638510698 15.41542642515704
Sc 17.62667776175059 12.58618944062561 14.781153915076375
Sc 12.3616756431306 16.62118888512354 12.859564554714153
Sc 13.725125791618966 15.65514790689738 15.774417579490104
Sc 12.033108115714201 13.917357646048327 14.031879109688251
Sc 16.297037699491806 11.314565623203379 12.44994726362557
Sc 15.40237730650605 9.729275986106433 9.925999121527175
Sc 13.784087787186534 14.134291972186812 8.18479389843572
Sc 11.596288356717501 15.92920287078838 9.252111873150314
Sc 9.614877209199152 16.722875454235243 11.408610691773434
Sc 13.581264790217697 12.04764119336147 10.920680864800334
Sc 15.214708579540442 12.898332976137691 16.688641032807684
Sc 14.963530733566339 13.782426266942679 13.686194706989873
Sc 11.017656955643728 14.092532749852037 11.385207279087005
Sc 9.546513355817293 15.521604323290163 14.119452093735202
Sc 16.009634078287327 9.944941508750807 15.350520324803924
Sc 8.624693903349634 14.42866083929944 9.739520085241278
Sc 12.04840471586648 12.871728791382736 16.852675491184932
Sc 11.262330970040576 12.649764447981802 8.738169766193094
Sc 13.933628220796294 11.213340177007051 8.012239120185843
Sc 13.950390024521132 9.256567665069767 12.506007199423351
Sc 9.462942380239303 12.524652552023042 15.138764803186842
Sc 13.548789256965987 11.231962222444555 14.796424709292403
Sc 7.019687436996372 15.674499051045814 12.186838708452775
Sc 11.167724071754256 11.285764234735613 12.817394423621199
Sc 9.293319469130362 11.201089324288185 10.498346010555377
Sc 13.653278954680982 10.230800838960791 17.496339819698562
Sc 12.032729271258157 9.652352815186797 10.055529313347659
Sc 8.375058797188055 13.1047814708767 12.531222199420688
Sc 13.378184482012497 8.224480277936271 15.2941934888382
Sc 10.942234233037329 9.993346379764345 15.715413951094325
Sc 11.125903200382757 8.433714350379251 12.977073028275125
Sc 8.547861175027156 10.057336895836146 13.391950838518877
