36
Energy = -185.202347 eV
Sc 14.441039077602593 15.659845862789004 10.260502081775662
Sc 11.324368953794057 11.636852523720812 12.258542296743085
Sc 9.538042009748478 13.479405436431247 11.075903886216304
Sc 16.09338397905587 17.607071628127624 11.804748451207397
Sc 11.996500656408818 11.576475087175117 15.123900099171005
Sc 12.878652005208776 14.453104512225538 15.51528452674171
Sc 15.307274835737354 15.956084405687344 15.983267435199178
Sc 12.576622562525806 13.215970623676409 10.089012247024444
Sc 10.549833221229786 14.207310969579142 13.66254858547799
Sc 16.42628575474349 18.174292570138444 17.567370711444948
Sc 18.96640911378363 13.468782223636257 12.080325271646753
Sc 8.942192578913518 11.930700541678329 13.913615285525795
Sc 18.6174278776689 13.46410591384516 15.092553264273468
Sc 14.724418084070162 15.154583961880157 18.8250331133247
Sc 13.583181556483511 18.435749641536493 16.373049677374087
Sc 10.309818974608318 13.75223069362771 16.606562673105294
Sc 11.581280169844822 15.969069350613172 11.497130420598113
Sc 14.17735537100536 11.094228664175619 12.776971419880361
Sc 11.072989220350438 16.79694211256433 15.083575000161188
Sc 16.515196397602693 18.32916405732435 14.635587315772161
Sc 16.54282437094482 14.953700923292528 13.292400067843007
Sc 13.621509353857045 14.073065935759193 12.63686665473632
Sc 17.553166295297732 10.916244197528165 16.41706231252631
Sc 18.230593654063043 16.20920484303251 16.291591309003156
Sc 18.841138967134167 16.53211235369522 13.039919748960418
Sc 14.747154073149456 10.160193281500582 15.66662841826087
Sc 15.459033121332888 12.899909492835354 15.188602421006276
Sc 15.942075107035615 12.890967066340222 10.977585224416964
Sc 13.608793983258666 12.583369059865388 17.647312645340797
Sc 14.311949190015971 17.90455147330091 19.45452915589642
Sc 17.129639567284823 11.28834967526192 13.46510971771555
Sc 12.23178773278745 16.17401856970385 17.874115004831918
Sc 17.28639940893047 16.260957391275234 19.473534209177565
Sc 17.55293867277837 15.47750923201167 10.456008261438562
Sc 13.732532471104138 16.995752490498173 13.575211155923737
Sc 16.948093212792585 13.680024815821039 17.679941512412867
