35
Energy = -182.34085554 eV
Sc 15.736494003805108 12.867357393622873 9.447749429224274
Sc 16.794549975334057 13.972677133477275 12.360218623561462
Sc 16.379543657427373 10.858109195178471 11.322858904304198
Sc 13.781815113492868 15.243232290112923 10.005814454709602
Sc 13.479502891639735 10.909383619865368 10.3574116203557
Sc 15.494358646269179 10.960339088833448 14.287311580569673
Sc 14.814094339043704 13.94953595083934 14.988298389570263
Sc 14.498938741210281 8.596446827996004 12.29207535066174
Sc 13.159337988615476 12.900708709584624 7.928235881617509
Sc 13.453381265275944 8.678668200391355 15.311171564369879
Sc 14.325974393108595 12.963827954710862 12.138668663962054
Sc 14.125696982578361 15.848195773095702 12.998615694554518
Sc 13.039312278771021 11.715057177340116 16.137894251745063
Sc 15.01946944918212 9.85384123296872 8.473245373586451
Sc 12.650494740592183 10.620478327373956 13.419277183376478
Sc 12.503822081914365 8.093828164542536 9.964989773854324
Sc 12.049963198150207 13.651541845844248 13.68012463295479
Sc 10.707674576559159 10.358915355997016 11.053515303084959
Sc 11.540695044034527 13.282981849551001 10.51002883408092
Sc 11.393135145477345 7.971645573652832 12.898525615490648
Sc 10.906423799871078 15.644228326089372 8.819051825878978
Sc 12.055314952027155 15.690137162173507 15.458452261997884
Sc 10.51965813789349 9.969238282647582 15.408280424582541
Sc 11.347660294406483 10.138690110119743 8.149445032773771
Sc 10.24698738229919 13.026968230359632 16.02177571978796
Sc 9.7624042691319 12.053615697282686 13.103589204280096
Sc 9.294606911057368 8.221831851459497 10.076136461481227
Sc 11.23577589097154 15.975456569971024 11.860268369986779
Sc 10.183059125325135 12.992988383918094 7.8394320192624285
Sc 8.586724112851359 9.271925410125204 13.080954493458904
Sc 7.615168805037358 11.862552110720529 14.826047866866821
Sc 8.507465782076373 11.20018257723498 9.34840362754298
Sc 9.143374413845967 14.772299767290948 13.984909616321868
Sc 8.781444847984504 14.049877807399733 10.710056793741966
Sc 7.128706549130899 11.46974156345662 11.844710707053645
