30
Energy = -153.45320141 eV
Sc 13.777618204136852 12.848718014402554 8.377695447508334
Sc 11.126550866317483 14.287864326228659 7.799466199725956
Sc 13.570497642528217 9.539068348398066 8.69469165260353
Sc 10.989342896833788 11.161974323949284 8.161796408048831
Sc 13.208761830390129 15.620619823910438 9.808761915903373
Sc 10.127869816017297 15.847601495481074 10.07885805477742
Sc 11.243531304164721 7.935678154537092 9.498287698825177
Sc 15.734035133420218 14.21018803868972 10.739351575351764
Sc 11.605208966096686 13.243164416389355 10.520192461518977
Sc 14.705796914481489 11.397932823896578 10.788099688504795
Sc 8.834302807813247 12.984491166578621 9.810543935109388
Sc 9.027953634392858 10.023572496134033 10.236089403817584
Sc 13.529447145901813 8.205579859078835 11.731256536963292
Sc 11.841738523823325 10.335490133148635 10.946782850721922
Sc 15.086141440294508 15.482278641217572 13.669454710476925
Sc 10.252310765980528 8.455823764902256 12.503757657925837
Sc 9.394192329310945 14.36643583900521 12.734829881443895
Sc 11.976440332660205 16.04646801558197 12.53814000792891
Sc 8.08983169859446 11.458372020368929 12.712062458836051
Sc 13.526789804144082 13.537476705380138 12.655366278458999
Sc 13.652569916292485 10.808706637671255 13.50947525719229
Sc 10.87333484397743 11.843257444963486 13.427968885424278
Sc 16.20966175045549 12.564468643638047 13.377442820317826
Sc 9.464378474606551 9.829574101834869 15.135568385474164
Sc 11.689343287486812 14.361955360227396 15.05258327452076
Sc 8.995069257911696 12.792483038680459 15.404902399692334
Sc 14.386928040862518 13.025576247154204 15.600000963346142
Sc 15.010975923574609 9.972013703172168 15.745692253469747
Sc 12.264666778876613 8.641501441479848 14.721699643150961
Sc 11.978865522397662 11.345820827644136 16.193337146704966
