35
Energy = -178.36809221 eV
Sc 15.420018006197425 13.079730544117393 8.983352200731597
Sc 13.472792104846917 13.262426405746597 6.506116782620279
Sc 13.513822543911637 10.742075728104453 8.01433591068396
Sc 11.659088827573928 11.056752491311684 5.675109768302273
Sc 15.434533246603136 10.50140909898284 10.564212279365401
Sc 12.557062544683454 9.188405950019234 10.674565925911402
Sc 17.277422685181143 12.722713490822482 11.480903117970874
Sc 14.457050728537446 8.981319243329729 13.221825622279978
Sc 12.974351477077924 14.990383661607044 9.108275607812862
Sc 11.082121761853747 12.673435131216449 8.129183286313925
Sc 10.669094633610266 9.666959593622686 8.248841152992227
Sc 12.999281857660892 12.427839124532253 10.6618135890361
Sc 11.577596605542952 7.854554886157965 13.39463252968934
Sc 14.953162722841888 12.067647118013028 13.225169028573017
Sc 13.500716545480175 7.604017664239186 15.772514879601822
Sc 16.746421237469818 14.295027390967242 14.042840631771647
Sc 9.720700779989171 8.29249758636924 10.90105710283201
Sc 12.016365863774874 10.837276716522005 13.393339788821743
Sc 14.965971919784794 14.7568418767786 11.578759638742724
Sc 10.05203982618193 11.242316447676322 10.833239926131514
Sc 13.938944615467568 10.620814626281325 15.772850890809504
Sc 11.080200630887242 9.443943205344208 15.940402808963828
Sc 10.538300783121725 14.396568026227175 10.966984104584306
Sc 14.337910436593454 13.801270006427817 15.826329890005258
Sc 9.181003095361536 9.765588593470746 13.526981646503087
Sc 12.455437699160605 14.122648419166355 13.421060906008284
Sc 12.38945959420524 16.685090952227842 11.852188466994383
Sc 11.458351240202894 12.583148479832431 16.154801873148514
Sc 8.690224924010591 11.55488537488299 16.087403492484444
Sc 9.43091880835932 12.925322030709598 13.570072750370747
Sc 14.347069832322957 16.3986855656724 14.246448366738239
Sc 10.02435654117258 16.0658687522748 13.608498952578401
Sc 11.94587852802989 15.757130708576335 16.00786856292694
Sc 9.147894065647625 14.454081470145098 16.098929675328275
Sc 11.910824307886829 18.291309504497804 14.412883566821062
