38
Energy = -197.22498925 eV
Sc 11.344052037845154 14.722075623760817 16.087322748401466
Sc 14.857433842436137 13.685565120532027 16.085984960321692
Sc 11.078090459971145 16.58166724348008 13.413661359723513
Sc 12.546255163617595 12.152531046779599 17.301635477706352
Sc 13.160898234326126 14.657306196533021 13.879898743163018
Sc 8.951448163105887 16.64901749670607 11.48885783606184
Sc 11.94188964176561 17.324005467726916 10.191615143347844
Sc 8.791153012709842 14.693872328970338 14.079651235972605
Sc 9.884463494307411 12.057882780370475 15.924445248428833
Sc 16.076419640039823 14.812499031843863 13.229004923692939
Sc 16.296568183095175 11.777444298824909 13.913820264971969
Sc 14.008280210675938 16.982065679897268 12.404839093246673
Sc 15.061081409437016 10.643695536319779 16.710205337562325
Sc 10.796170451124828 12.811742989454322 13.158892928566518
Sc 13.255422503322242 11.528794598712746 14.554059222507687
Sc 12.431746306996654 9.190465120346747 16.195903739455765
Sc 11.590674023295847 14.696834783290495 10.994428651836737
Sc 9.83797392584646 15.768145063730977 8.79277854910224
Sc 14.297510063003305 12.742120384441874 11.826794043938325
Sc 14.88658281722454 15.196727807550197 10.265320014869536
Sc 14.772935635627189 8.910465125722068 14.067179906728555
Sc 8.51369583774523 13.741831117342288 11.129781958287953
Sc 10.435635741524688 9.81207034234165 14.043827984737959
Sc 17.129734467569435 13.031876858327152 11.040831877075213
Sc 8.04402346069251 11.499935768852486 13.405902907962993
Sc 12.57621301209394 14.649074591180797 8.191139798394184
Sc 9.782663210056786 12.809564743369812 8.50808327375134
Sc 15.024270063522216 12.369370063633584 8.925403335314467
Sc 12.839755332395168 9.87324761482891 11.922356187623734
Sc 15.799965798162471 10.16848943322234 11.169911921901603
Sc 9.830767573553924 10.83580731140284 11.060819613345139
Sc 11.944413768274357 7.359981414732777 13.430446476120457
Sc 12.180997894958615 11.959966302137843 9.695781516435234
Sc 8.989800796362644 8.19928942186738 12.03358392389304
Sc 14.276720867702346 7.357498896863182 11.325053785935621
Sc 13.617607783851767 9.332155899571204 9.028730163935029
Sc 10.460772064855014 9.666271699512533 8.455186889473813
Sc 11.45394533265735 7.7927340363702555 10.453893521850512
