35
Energy = -179.15226274 eV
Sc 16.472028482388726 9.923313126654383 14.529193815874464
Sc 15.204393764270726 12.519893903805878 15.559612907626178
Sc 13.88603720183999 15.17494986219737 16.355152823490304
Sc 17.383423972824065 12.344357256019881 13.010473177217484
Sc 17.891917122665888 9.428745350159547 12.059228041443536
Sc 15.428477276706092 14.97276863013732 13.686010282007956
Sc 9.140259242916423 16.847318354191806 14.615851548074296
Sc 13.351713086815924 9.859767237254074 14.848078159309956
Sc 12.257201165188878 12.265454802736697 16.449657576307537
Sc 12.342015775821523 16.899725346998594 14.41635257838407
Sc 10.688719245188006 14.972008117889475 16.288629310338706
Sc 14.752300662152777 8.775865296741944 12.219550144570617
Sc 10.295546354806664 9.48459388609834 15.325321984081612
Sc 14.582003725798698 11.830952990738488 12.793439311923699
Sc 12.596157484959079 14.083027246754257 13.943944803803438
Sc 15.877418082304308 10.828435443458964 10.286902338433167
Sc 15.62205824989541 14.055819769406433 10.739165139708314
Sc 12.514795045035473 13.69695863617036 10.858327161506507
Sc 9.305900147984733 12.218143165385344 15.904353488976007
Sc 11.23049758597948 11.577255645999827 13.39450621955305
Sc 13.626680710630877 15.463007573293515 8.628569441366022
Sc 14.183983389195843 12.64597744550677 8.54201449930509
Sc 12.907353438011757 10.639706767449068 10.781184328308846
Sc 12.334294452556694 7.86784345233115 9.891663523026903
Sc 11.35940305258549 8.687658708470465 12.652771861614855
Sc 7.6033812063113775 14.756880901045811 16.10335957473135
Sc 13.65479736920221 16.392018883391852 11.559734465405784
Sc 12.85216503746982 9.979487702250882 7.961992955833405
Sc 9.224213734702271 14.002447558633463 13.681208302716708
Sc 10.678424563903842 15.946613664003431 12.019458727360025
Sc 10.739054492619312 15.428713226561973 9.0942689942839
Sc 9.595256354041595 13.05955362541663 10.80666870113694
Sc 11.233295452769642 12.621507382123408 8.144628133243728
Sc 8.679378888003866 10.683683116591666 12.991453309787602
Sc 10.252738039667983 10.141921306664274 9.936567166954093
