32
Energy = -162.73646845 eV
Sc 11.984542419983223 16.58989010425135 11.123648218353896
Sc 10.373890354721679 16.30214473934842 13.81297442640479
Sc 9.611983759531034 14.953384232299461 10.267625520789533
Sc 11.892169677525331 14.816083750154448 8.486073640800706
Sc 10.07603755417246 12.475838183245425 7.651829796469598
Sc 13.437496222558625 15.988939272683089 13.797921419711686
Sc 13.95129236369537 14.382706258347403 10.471774482950236
Sc 11.390286612987136 9.80508793930718 8.02485424698168
Sc 11.463420856851409 13.94623667750213 12.665853809260133
Sc 8.305429340389232 14.183446312852812 12.855988213278081
Sc 13.40746212450814 12.21562483733763 8.03658039429174
Sc 15.268219418098317 14.303947882091698 15.852180129950181
Sc 8.436343423313996 12.262418012845618 10.266885176713103
Sc 8.450596815597851 9.917333162203269 8.075362088217233
Sc 14.60914477477957 13.321336482710588 13.154573629694944
Sc 12.070601326940974 15.769461965565252 16.432900337357392
Sc 11.629640599590227 12.227300299570183 10.213531594597946
Sc 9.885321305100728 9.744379275401334 10.656325403326743
Sc 9.607096019596256 11.471598223226357 13.117894740441574
Sc 9.821320770263206 13.656760444081277 15.380616735204283
Sc 12.689797604304914 13.165041670805726 15.429939475262785
Sc 15.010086204836881 11.532571332180886 10.781497740970499
Sc 10.973062914016564 7.1817186911054725 9.809577780822389
Sc 17.00512306045578 11.816705677950948 13.308506939990982
Sc 13.076179667064405 9.12382027248849 10.413033676129448
Sc 12.752355365318053 10.84968340706751 12.906327973006874
Sc 11.00892205287502 8.326256048705027 12.929283934984431
Sc 11.365807010153514 10.508244867058044 15.527845081859414
Sc 14.73086123065691 10.9826477961493 15.236001003803292
Sc 13.30609766842084 6.654496939359693 12.014031301089865
Sc 15.286531109944079 9.226149596169709 12.708096474886359
Sc 13.327010271484566 8.230325478425799 14.666307288391282
