37
Energy = -191.98774711 eV
Sc 16.599829832210688 13.367440906162383 12.524317067897979
Sc 15.11101692933543 10.865194709403916 14.328568527668686
Sc 15.775294071855033 10.080586806286068 11.353795953069252
Sc 14.242216190629739 13.798661272206564 15.015543311991044
Sc 13.364638090308564 11.45624929049124 16.888831593047954
Sc 14.730412707228759 7.943225168143223 13.278848634102177
Sc 15.754405463192112 12.387789205574801 9.544656270392423
Sc 12.693511826250177 8.753086481910398 15.391802224845692
Sc 15.30885199463282 15.070983736698079 10.16007996754994
Sc 14.235147519982334 15.921956363914877 12.796648596605625
Sc 14.066106629955568 7.440789639138084 10.475031494636031
Sc 14.054913317847085 12.797164858001121 11.993766979862983
Sc 12.202623936114051 16.2642597957225 15.084823593484378
Sc 11.965941756117937 11.39435045414581 14.250846770700976
Sc 11.16894036360483 13.610627104728207 16.26713071830922
Sc 11.863979635367178 7.200194680379472 12.740622742699692
Sc 12.738974935017986 9.773027647551645 11.767184580909833
Sc 10.521539384777055 10.581536508923008 16.705985890087327
Sc 12.282778959004283 11.959259522156936 9.705427986851868
Sc 14.376730434042148 10.001171560608984 8.552870469812962
Sc 13.6925987466384 13.669777543928054 7.722270660006295
Sc 11.259720633268438 17.102967713638215 12.394353304355816
Sc 9.747348222588341 9.254359842958129 13.99830232289469
Sc 11.760537508018393 8.761168266032312 8.946112039972894
Sc 12.373160148927104 15.172993878868885 10.087024703119486
Sc 9.285978833216888 15.403847182636165 14.231421977524171
Sc 9.90818036677833 11.988091920480612 11.653786778406229
Sc 11.63552044115697 14.231832532761175 12.96287722940824
Sc 8.86178056111095 12.236871009570567 14.591324047508431
Sc 9.751264956960082 8.814115991344476 11.131003809657145
Sc 11.955150589889668 11.208348478664416 6.930326796252731
Sc 10.375321968752347 13.617573378514077 8.200268131815548
Sc 9.387700088396691 15.056343159384287 10.958262104624819
Sc 7.445873090630785 10.691837673814527 12.009418036963405
Sc 7.237181265130897 13.651980627972048 12.513489390059883
Sc 9.454936950128939 10.682938984545208 8.815880887626442
Sc 7.61178326470385 12.84468243415141 9.710464652674533
