31
Energy = -159.39773316 eV
Sc 15.531550535166685 11.433899232176596 15.350637617239325
Sc 13.778831049478176 14.004940951994177 14.913203129443154
Sc 12.83248907196228 10.413614733755775 16.52558010908043
Sc 11.073904816519216 12.850654360140998 15.761436619214262
Sc 15.855371303927189 10.348877288688925 12.625317454535399
Sc 11.117811501670701 15.204456687603672 13.812735272886073
Sc 10.409910740673038 12.199178225916986 12.88455029361864
Sc 13.04948790600548 11.051962844187482 13.76917954398698
Sc 15.7249263496345 13.418010809286425 12.574404996315735
Sc 10.074443764363327 10.22339451446923 15.145325107244872
Sc 13.943351989766827 16.098076500675134 12.558208266853754
Sc 11.654937689542972 8.125837411809869 13.600727706805673
Sc 14.554064333914216 8.65946129023674 14.656811031846335
Sc 12.923100841937567 13.554307010801182 12.053095408179404
Sc 8.16696492042 12.674076821163332 14.386375162832016
Sc 10.863978664999523 7.475292188947403 10.598443174389786
Sc 13.903883851662144 8.283917269893257 11.413607834149495
Sc 8.995608352151214 9.323696539837314 12.438149684893647
Sc 14.341388239731154 11.410381589662144 10.187073276366393
Sc 8.832432447587156 14.562754910622859 11.901531749274952
Sc 11.317470170035842 15.75375505280395 10.672771902080198
Sc 11.670060647263833 10.048529959559074 11.261630788114473
Sc 9.27778165814003 10.009184732315218 9.370636493097601
Sc 11.120679594507868 12.637541903977947 9.834418248542633
Sc 7.895538786370276 11.927382535127272 11.258860952106332
Sc 12.240358452210081 9.606315620760276 8.463493203874014
Sc 13.279910958616215 12.400197128070214 7.483031935044595
Sc 14.042005299394658 14.591437129431611 9.602541453329582
Sc 8.64006646784899 13.810871848167665 8.883080816049779
Sc 10.36341796340709 11.855113917269739 7.099496231560285
Sc 11.415530613919463 14.7022285879968 7.734853446278845
