34
Energy = -173.87079127 eV
Sc 16.19303353094719 13.565264694696891 13.063681208877655
Sc 16.621157955833393 10.664359816094224 12.529702525053843
Sc 15.438395133633097 11.529035632573692 15.10946566302543
Sc 15.53246976294258 12.532812447384263 10.22204071737205
Sc 13.863521016996527 14.780619628949653 11.551736800090685
Sc 14.641615023403347 9.427922564558232 10.587672842085588
Sc 14.233077598139293 8.986452476491843 13.6137065411078
Sc 13.480710032477173 13.907510340284773 14.64268647380193
Sc 13.362268787357435 14.495505613317833 8.453333728709898
Sc 13.625364699709255 11.764617643216866 12.478171201524011
Sc 12.593418380916637 7.153914587202436 11.29314262856057
Sc 11.429105465360406 13.188216830502151 10.256597925942863
Sc 11.150184775735202 14.88518796778805 12.997263822286547
Sc 12.447247235761015 11.064019807266208 15.345252211564983
Sc 13.364605611719266 11.299290483836828 8.559395940898957
Sc 11.536910382902404 16.376683813965535 10.286812230308616
Sc 12.942192686756982 8.232017790669175 8.290786553395742
Sc 11.401215373848261 12.598094536330342 6.90905807989863
Sc 11.220249583905643 8.796939095087147 13.634073027531999
Sc 10.308057107638724 13.364258161524598 15.728288848256373
Sc 10.366131405910913 7.26993989512168 9.197645587665287
Sc 10.321334654574056 15.078837430617112 7.9900432149699805
Sc 10.265612671206382 11.87013419609825 13.197184787606112
Sc 8.341666964667034 14.63513832524406 13.624670667075062
Sc 11.460717046676368 9.84453531999273 10.642965530700977
Sc 10.422277598357677 9.87061252049272 7.758479581017885
Sc 9.573627300061677 10.29014192000687 15.89181092194446
Sc 9.469457000245551 7.13619814471034 11.95328478489762
Sc 8.881702623196757 14.91406036936923 10.61747536318178
Sc 8.923741864097932 12.347371433596967 8.747138573965575
Sc 8.124801209680788 9.598233643577803 13.280045739147596
Sc 7.591205589314252 12.107603372721844 14.845952190089731
Sc 8.486341625539378 9.546893941357588 10.261149045916284
Sc 7.678163489552752 12.299850668903119 11.68761219363955
