30
Energy = -152.904496 eV
Sc 11.140936571142955 14.348530481513189 7.936005932888082
Sc 12.00935426816006 11.397699820333141 8.045754848366188
Sc 11.022095701547196 9.270883234950334 9.981859506537008
Sc 9.738867902611705 12.501020237334625 9.724990718619676
Sc 12.718124313193025 16.480074211809384 9.485516345307401
Sc 15.87274888964705 12.260549281663423 10.483530947329747
Sc 14.29885714796999 9.591859700128921 9.288921746415816
Sc 9.862205473594761 15.853694149547758 10.241874131565691
Sc 13.89825860820239 13.615301912504906 8.765262407602687
Sc 14.881216814575255 15.207426627392723 11.35711172915605
Sc 12.901137920484972 11.202784163006854 10.939735339180418
Sc 14.286074651460854 12.803338518427465 12.864538833947654
Sc 10.064571621170467 11.330517214319155 12.461810158862741
Sc 10.456590149461505 8.301408264115436 12.902352714945033
Sc 11.953372313135667 14.005944242232593 11.038665971791643
Sc 12.01127687552063 16.408735445325824 12.599402873661205
Sc 16.89105882329711 13.230902179914226 13.313984959640353
Sc 9.381387746828429 14.464179173157454 12.966998244237104
Sc 15.531010790357684 10.225988507018306 12.673316917722934
Sc 14.270179004730547 15.191512899130958 14.63430127354788
Sc 12.496952998603689 10.499552445170224 13.965011592288546
Sc 9.810035562244693 9.927972080347377 15.28384418182128
Sc 14.786063554205644 11.98025912669471 15.580794356148829
Sc 13.166313248264165 8.264673177602976 11.98347685720883
Sc 9.80471299564526 12.905498445620578 16.049859562245228
Sc 12.463884257343057 8.129379379208073 15.265262656094643
Sc 11.828617382280985 13.419854970734015 14.124386676754469
Sc 11.049152137949529 15.810463113690592 15.486519381258855
Sc 12.000152316896122 10.885848110061856 16.94588549884811
Sc 12.7095325365718 13.788891464139306 16.913766213101958
