33
Energy = -170.06386753 eV
Sc 12.8156484195542 10.85050440580872 7.175991843205631
Sc 14.899502483436025 10.111698485914774 9.797380078338385
Sc 14.385435354311335 13.16816401825136 8.85256074945108
Sc 15.812076252748806 12.55680927513615 11.679272807519027
Sc 16.15622268276533 9.465732122028438 12.74100572616817
Sc 12.703774130844254 15.852136897528974 9.276797328640809
Sc 11.265596721429423 13.406004980882088 8.085835626508889
Sc 12.517175430572308 8.395981086038827 8.946474654112905
Sc 10.005524154650288 10.052455431063068 8.248625689730396
Sc 13.77096067174287 7.878361300766637 11.698354368295236
Sc 13.947260668545548 8.8704682224648 14.731691846527971
Sc 12.005981190364338 11.280832599599577 9.912998254886116
Sc 13.536443128684592 10.701755977489332 12.44800067863583
Sc 15.158269454568508 11.70650757425407 14.788912585534177
Sc 12.953247754564615 13.743302776621901 11.426775286432628
Sc 15.17431645299979 15.588929435305115 10.79562332461223
Sc 10.784395104910198 8.928707817632917 11.375111522836235
Sc 10.04647957699874 11.96436932635547 12.197204734571114
Sc 8.723979372347543 12.549238567208928 9.446698194434532
Sc 14.86990390826018 14.764845340217484 13.797594750190642
Sc 8.019352928464304 10.149588234536864 10.701069535965026
Sc 11.148126808276658 10.053432867749418 14.232159283196875
Sc 12.386021831951117 13.092825387681303 14.36421147327516
Sc 10.139081787004695 14.847821399923571 10.709565376293115
Sc 12.548113144348596 11.184794114052105 16.65170164870658
Sc 8.167131008563699 9.827133183803637 13.55442449996689
Sc 14.022442322244835 13.880300138183424 16.75924030259922
Sc 9.163331782129863 12.06630885090416 15.29514169753094
Sc 12.391232403127894 16.378219532035935 12.344136105184322
Sc 7.469577641865013 12.721954912823932 12.446086060992306
Sc 10.963946529283897 13.908852999743786 16.831448651398233
Sc 9.920981497381533 14.744400708353181 13.855939785798432
Sc 12.47220685778737 16.01581362242299 15.352278594401195
