37
Energy = -189.67240873 eV
Sc 11.602886602283759 9.967021581496962 16.98959393002749
Sc 11.579262635579619 8.140013948228683 14.476424672520382
Sc 13.879385635071623 10.290929028774766 14.806425628791509
Sc 9.0984146946892 9.03702592950488 15.844864195041609
Sc 14.372548521666292 7.531717321882682 13.56045084758742
Sc 12.536300711915406 12.660340685742364 16.125343843610473
Sc 11.912656675500699 7.426709326646805 11.502497462634194
Sc 9.262954743652541 12.095445610527538 16.43364438168573
Sc 9.156129052244983 8.810315692514585 12.692706911198172
Sc 10.633493677457311 11.11702217583472 14.087812678031822
Sc 14.946378326117859 7.6647487267076215 10.714752278786907
Sc 15.436742456274862 12.764121830302038 14.48256781114546
Sc 13.22132929696776 10.098429940416763 11.767555554812892
Sc 16.15631837844657 9.819189735857753 12.672555737786599
Sc 12.789188152047236 13.295754133869716 13.09873487395496
Sc 7.25980375013498 10.643050132549234 14.326244298445795
Sc 10.606928332191883 14.511785757745539 14.776110906471812
Sc 12.892390109685847 8.93476440940814 8.88718281311718
Sc 15.345264955922078 12.474004440837728 11.520923780933177
Sc 15.617632450899825 10.341875364323409 9.486363980064702
Sc 7.58297434421204 10.924978452669738 11.21938018084941
Sc 9.950145455751457 9.259215299658198 9.667567560627512
Sc 15.276466718567969 15.319281398112995 12.323810962221133
Sc 10.432317118868765 11.968990375861775 10.873527822500439
Sc 8.336090038671347 13.124742155414541 13.320862896117138
Sc 10.16726824624363 14.955236513325136 11.798993023398713
Sc 13.225226908819288 12.142811620036833 9.20977655556516
Sc 12.94716057910538 14.680025516031908 10.504092053203792
Sc 15.627696022610973 14.329664285958819 9.191238460565527
Sc 8.423036780465278 11.641837275238057 8.416125705610366
Sc 12.545310995594859 16.63705621388732 12.640275946761129
Sc 7.813204559587795 13.87177907903784 10.259609408430448
Sc 11.144388031304818 11.133220305891523 7.45863106263469
Sc 14.31464021773077 17.14399467287502 9.894614608155669
Sc 10.42538717405855 14.019308982923823 8.585637039182304
Sc 11.310234522502343 16.918586330022585 9.605835688898189
Sc 13.146942212540955 15.210204427931119 7.650121895511096
