39
Energy = -200.87520147 eV
Sc 13.276286539507542 8.958521687066401 15.911053952104334
Sc 12.116314321206822 8.620202407117743 12.997702945138805
Sc 15.095858923045453 8.57071280565579 13.706781741883004
Sc 9.318823390484757 10.290067341063438 12.424132127161315
Sc 11.902474099879132 10.86410114152836 10.706029082372146
Sc 14.855713343475008 10.150714116188478 11.189227169309742
Sc 17.289894219694457 10.600938737381533 13.125308256555327
Sc 15.568411517302597 10.932143183854318 15.61533397771894
Sc 9.38780963911721 12.776067467061555 10.480182403842932
Sc 15.559473965044635 13.096213541962236 12.207192190690865
Sc 10.66136860968854 10.208029078983577 15.250227494321653
Sc 7.1944531505798075 12.703784182170965 12.572380299976151
Sc 10.202373595880486 12.839672652536972 13.685074519556538
Sc 14.351774504604524 12.628845300139545 9.442455031034942
Sc 13.25724752312176 11.192380753554097 13.65397235704165
Sc 17.477379964648627 12.007553250957137 10.22452766913506
Sc 7.877511303515219 11.320949544145568 15.06393399951617
Sc 19.02287850615953 12.934709836227686 12.543286480250105
Sc 11.641358730662573 13.207412096274942 8.460281435721772
Sc 7.859069507402199 14.333686454559343 15.094550367352497
Sc 12.264047047722654 13.807197403450589 11.469526842008106
Sc 12.858876651198493 12.00285139842833 16.747953459179694
Sc 19.3529203810018 14.480300241658373 10.073183857986367
Sc 10.005956391256406 12.977863993785226 16.703210328263722
Sc 17.004072168993677 13.414042721698655 14.792565892805339
Sc 16.368905091985845 14.875437299255564 9.808049335734559
Sc 13.623842036059758 14.28650890288114 14.676904284923264
Sc 10.251293981956596 15.573057828463794 9.59329609702217
Sc 13.279640100174568 15.655331843570613 9.435473850327563
Sc 8.847452702209655 15.314962465191147 12.30427624511455
Sc 12.39636719530469 15.122568991440385 17.27705316805067
Sc 17.61147801867521 15.463023579879048 12.429372551177932
Sc 11.620417957761337 16.651466629848453 12.123121554002749
Sc 10.637777895043133 15.624847837452982 14.86524449132471
Sc 15.204663249495518 13.98647902052493 17.222245301863268
Sc 14.620320321574177 16.113442518553214 12.251756020682357
Sc 13.259899077441899 17.245420039618608 15.026905390959344
Sc 16.025473516183325 16.191725360563286 15.1150147673614
Sc 14.738782094977221 16.998309327855928 17.702343865074855
