38
Energy = -196.17108061 eV
Sc 13.073702296109124 16.996786975827877 11.307845470186688
Sc 14.66989900728343 16.63619448864513 13.828651615246283
Sc 11.047669958210799 16.331449679355273 13.45650947012672
Sc 17.568159586970513 15.449514139689727 13.584686415306408
Sc 12.946292676680148 14.490444198795055 14.94309421998346
Sc 10.351640493675609 15.625852609894029 10.43095658073789
Sc 15.897710644047464 15.979476089543379 10.885173893374427
Sc 13.185592460286436 15.058369380438103 9.068319311866889
Sc 9.912078695050694 14.252738244999826 15.895770359588115
Sc 10.414688256980362 13.616984194826205 8.133495925998076
Sc 12.428073897067067 14.137555132424186 11.877544046062987
Sc 12.086245500515568 12.550088916333538 17.21530884970517
Sc 15.252359173854844 13.72511584503833 12.734930292282176
Sc 8.945724756192822 14.110967249054827 12.894005439305143
Sc 15.775681728834053 14.388539708723084 15.835606528404412
Sc 15.51538858037603 13.014213771959254 9.598530526087176
Sc 11.25263850696056 12.247233152265082 14.239514391048647
Sc 14.23349891451104 11.74949458238162 15.052771678233539
Sc 9.167308437576935 12.026094144081847 17.845377902158972
Sc 17.962016228467405 13.637853190021481 11.320544700934736
Sc 17.35311529848168 12.296195775608169 14.11740092198438
Sc 10.236843929911469 12.383664376948035 10.903083268417262
Sc 8.40195118794508 11.752451473997136 14.87241945965661
Sc 15.813475098744792 9.425749945891432 13.871167654331977
Sc 12.774155635657246 12.020967844754937 9.326808366893767
Sc 13.539222035468645 11.051333273289494 12.114593507130447
Sc 10.544293257319099 9.994387605987582 16.133604112516743
Sc 14.776887566942904 9.880647447436745 9.264748861732212
Sc 7.86882266754644 13.597029828633175 9.762891582711564
Sc 16.559221180323252 10.878468232816015 11.466665650512516
Sc 11.5486694589162 9.328082256488978 10.224015353663203
Sc 8.959607872011734 10.82531970191137 8.88237561892955
Sc 7.662695298781095 11.252873978351568 11.648392293355416
Sc 10.198428283033143 9.890291798536241 12.916726069138477
Sc 14.119405463507068 8.213760592466475 11.696936014958187
Sc 12.843820369936832 9.040021883080614 14.335144769751109
Sc 11.176717629481619 7.207042664108025 12.40680786471119
Sc 8.713569294782776 8.434655718933145 10.848640521696732
