32
Energy = -163.57265122 eV
Sc 8.846982577267873 9.884353900510021 15.315290206690115
Sc 9.909582584040036 7.645940751534506 13.780915873991574
Sc 7.693677625401953 12.46056868276738 14.16992646151212
Sc 8.56439969317142 10.407604879447115 12.247163100167358
Sc 12.777838381456746 7.509012073664918 13.085474843052072
Sc 10.83724552479176 8.667991619408639 10.919127395174764
Sc 11.800171192105136 9.211336008048479 15.92055225890658
Sc 12.90804955591441 6.622792597718866 10.15676567528388
Sc 8.060520466975152 13.774618152324331 11.414889894180213
Sc 10.403179534551294 12.455147695968765 15.621479400430953
Sc 10.252254008388912 11.432264684483838 9.837108730507813
Sc 11.311981489298487 10.305609805268073 13.56456136784655
Sc 13.025547706274729 9.401799303483811 8.79193947004212
Sc 8.812559451182114 15.089790013017932 14.311320586675352
Sc 12.94628232848935 12.60828352463509 8.902086222039161
Sc 10.35475201714314 13.025507258563994 12.551250952149239
Sc 13.005803597448539 10.803547038683394 11.296431258991428
Sc 10.786551585068441 14.418860594233664 9.679720858169619
Sc 13.442758675084113 12.361863152276916 14.760873657999555
Sc 12.014330021751006 15.0075223236981 14.372724996563878
Sc 10.34134838088333 16.216717494705513 12.103712419738578
Sc 13.236256354526745 13.792393911237749 11.80775172245921
Sc 14.392520175161634 9.629305593927988 14.143435255033499
Sc 14.510222244877507 15.09652519485977 8.571415943901696
Sc 14.910527822319471 8.654842376515859 11.21574786321612
Sc 12.781741352812364 16.387167962424368 10.511365905326086
Sc 15.479247415911681 11.338842069552253 9.423185914397873
Sc 15.17426584071178 14.997995664536784 13.563421578192282
Sc 13.291690264516985 17.453545344586065 13.140944945690368
Sc 15.628873366110978 11.81604640883019 12.586603148651584
Sc 15.502881272079417 16.823214391634572 11.097762402338576
Sc 16.026173315384582 13.974209006777055 10.700334228928993
