30
Energy = -151.45670814 eV
Sc 13.758054749765446 13.475361557993882 15.958920610598224
Sc 7.700975776043947 10.997050499690722 14.479645385069283
Sc 12.10207072939294 10.1411782929211 11.83577711499075
Sc 11.870314814282105 13.674858612199232 13.298748131948617
Sc 11.900109630906897 11.332709746417715 7.408746910571799
Sc 12.661272322399821 12.747716800848558 10.392138447473972
Sc 14.222158147558483 10.596873977151892 9.09407730056434
Sc 12.984085068437013 15.489556793619705 10.776275310397988
Sc 13.687872563612355 8.230963342745271 13.704472995476555
Sc 15.153667511121697 10.41219219933627 12.050404820525161
Sc 13.883832980060234 13.672277416860297 7.929546769682441
Sc 11.221148359883713 15.250387575558994 15.752985311450251
Sc 13.026573519495042 10.995722172765344 14.576309165610535
Sc 11.141266230413255 8.9580740403979 9.16933430932569
Sc 13.827044457566426 7.931252697865771 10.668712164011987
Sc 9.067869742701161 10.94732200958661 7.354676193687699
Sc 10.343175872187498 12.188447169767471 15.717611289797206
Sc 8.837562170767594 9.285183142916054 11.553249358681754
Sc 10.031551664526823 11.654415966362887 9.815001940088399
Sc 11.152570576021061 7.333667545817237 11.955060474508219
Sc 10.883265443103626 16.51569425145964 12.988036359716066
Sc 10.797262565613517 13.956799180749396 8.05464269029205
Sc 10.33730961467853 9.297693058479902 14.308945438952346
Sc 15.819156007351662 10.867547428183789 15.021769926988583
Sc 15.548111614674585 13.309409762034443 10.337732290220702
Sc 8.812462223854165 14.28363240161373 14.11559229919197
Sc 14.84783394936312 13.139222696690492 13.22619248977745
Sc 9.869956984369878 14.474710388680926 10.997893862461543
Sc 9.685588632767637 11.82145233551504 12.772007170153222
Sc 13.706482098768127 15.951254662122059 13.96447120250366
