39
Energy = -201.34984649 eV
Sc 13.683514681456595 16.698678710934995 16.624448173342874
Sc 10.909072261786514 15.118380428387558 16.49120261009753
Sc 8.899816154866555 15.664975881575673 14.223338298903068
Sc 11.837441473626958 16.893528055174166 14.020488257975957
Sc 13.803757589954527 13.759310544707335 17.876248107141887
Sc 9.585200962199318 16.57663225635373 11.486742370635017
Sc 14.980710976989487 16.522480643992484 13.67894763001728
Sc 16.19007754990393 15.039423938653458 16.371604301878723
Sc 8.387441279066305 13.689748609182365 11.929875173214095
Sc 9.14371172944382 12.691751899391045 14.956194292968343
Sc 13.473382234504133 14.287691708150552 15.043566880939519
Sc 8.384097711438057 14.63692738962412 8.944632097884236
Sc 13.016554892120762 16.410598421042604 11.2056721941557
Sc 11.498211799413745 12.26147703940025 16.61537827344125
Sc 11.15783857355298 14.065293815522852 13.046995322750977
Sc 10.94879725780729 14.565003984345617 10.100378271609143
Sc 15.444331310877136 12.1219675343528 15.648074984041072
Sc 16.314626512333678 15.040742250045302 10.743796270962047
Sc 16.8648416944941 14.08932476062687 13.582743278564417
Sc 13.737116334093352 14.17622216898681 9.003475955750755
Sc 10.989558272908484 13.09046929848585 7.610786313467769
Sc 14.16704947401792 13.777614507214201 12.135050737994192
Sc 18.301409672272037 11.70804867559789 14.584873209293425
Sc 12.28476560428684 11.953334656883163 10.74253296317658
Sc 9.349788070361281 11.759690269806006 9.683776907973852
Sc 12.93683756764235 11.246164555143894 13.876618552658316
Sc 10.068582805769624 10.877894701014084 12.577433495214557
Sc 13.447638471712725 10.135845365007324 16.8174117756269
Sc 18.279874792647266 12.51355912986674 11.569680594637775
Sc 10.751295928067833 9.648946848507205 15.416178027290465
Sc 15.587996723424583 12.131955196209159 9.95180177833711
Sc 13.122028745268143 10.95143994795119 8.142008889883542
Sc 10.28254515159387 10.265928786254115 7.1653694538728345
Sc 12.75497419875363 7.355200373561581 15.78467057149106
Sc 14.151319655824702 9.601028603920126 11.053952565889308
Sc 15.941984020595202 11.282415710835767 12.850432820685043
Sc 11.23581804537613 9.299408341431404 9.952456806421896
Sc 12.136968059661186 8.463166228623995 13.000135812938105
Sc 14.958921405566949 8.936224516079228 14.46885235988014
