37
Energy = -190.45266316 eV
Sc 17.44808257505245 10.828910283176226 14.039741407334926
Sc 15.107527423573256 8.77077186716073 12.670275817119173
Sc 15.833084249245083 8.93528506065309 15.796101012528615
Sc 15.983794772236754 11.674669918178944 11.562267752713018
Sc 16.270235357383832 11.928088799885188 16.591497921571246
Sc 15.538544246015729 12.530264563912574 8.247347007751573
Sc 15.978244001715181 13.85769018843157 13.916365352481767
Sc 14.484633500071766 11.098599603106285 14.3471318870209
Sc 13.65493104068333 10.356424490908934 10.420744122647276
Sc 12.876847707115493 8.56013116258407 14.905615175598944
Sc 15.980091796387352 14.403110686177783 10.776966406432933
Sc 12.823340682176624 11.10143579925423 7.348492218618313
Sc 11.925551575394454 8.053390868067927 11.863609204132848
Sc 13.631734040327592 10.563633523927665 17.280101092197075
Sc 14.648918971806836 15.613146478536203 8.447246315988204
Sc 13.069557685327469 13.983520124970003 6.630818715398597
Sc 13.458397189349492 13.336404358627425 12.500738383222446
Sc 13.568956619879604 13.397424302212922 15.909321898674385
Sc 13.602716949794223 16.136046123880362 11.353010829058874
Sc 13.081233217549817 13.19133870584315 9.485745045719895
Sc 10.795732770720473 10.580507445294431 9.704985408898011
Sc 10.370485451077958 13.009119020354198 7.969474082543191
Sc 11.561753308692667 15.700994370252628 8.947631448452837
Sc 10.792442297708039 13.841627572725628 14.030827325093265
Sc 11.072484836961632 11.417291749975998 15.769509272504234
Sc 9.016399916250387 9.170309720096483 11.560796621451695
Sc 9.892678543101788 8.88701354902748 14.382915762240538
Sc 11.65817274087069 10.730961211699897 12.77534131955519
Sc 12.787390255966685 15.992879321036222 14.470842510595999
Sc 11.002397428352431 14.482608492159025 16.94661703854582
Sc 8.081837791098721 11.911000685167537 10.267101771547326
Sc 10.730521174450669 16.249252498252655 12.12172549360971
Sc 10.483164774619251 13.348287344435484 11.045879708156981
Sc 8.370933748078395 13.517329899197055 15.681127354718678
Sc 8.704347252613436 11.533757226624413 13.239392832560204
Sc 9.495331358444687 16.309546354275337 14.957997938337932
Sc 8.127588665212672 14.509334331157971 12.70827338200134
