30
Energy = -152.27257213 eV
Sc 8.937626155777776 7.775281338752888 10.853913060100812
Sc 11.776554443143597 7.566299408720532 10.041297738847943
Sc 9.888849080802848 9.181475389281676 8.109978227948469
Sc 7.495381997191163 10.260337256090525 10.100543543320093
Sc 11.182113044345346 8.239975441861375 12.964813327852971
Sc 8.636943331080358 10.166718914871003 12.94734454912561
Sc 13.229895719501428 9.748054567842713 8.595775969414731
Sc 10.52685754950651 10.344198049749062 10.588549635884531
Sc 8.99440961210796 12.70983191314614 9.118644372904589
Sc 13.849356029303111 9.372127512036794 11.652006748424297
Sc 14.002360771430892 9.581100734036323 14.792105986895473
Sc 11.37099862794886 11.869434333910544 7.677146934521357
Sc 11.618622911394814 11.154080898493842 13.447800812283122
Sc 7.658626951174492 12.928000960485457 11.97333995852508
Sc 16.591588093887136 10.195382464133877 13.073232355002888
Sc 10.526002147892823 13.46171152111657 11.719500950058144
Sc 14.343914977041608 12.157197409817872 13.238710114756575
Sc 8.989488310346008 15.4632846285977 13.409929812292088
Sc 13.00902525972381 12.330804308130645 16.019642798384233
Sc 16.09900541800996 11.828749480607158 15.60528875374572
Sc 9.446876305993246 12.773408866819066 14.705824865998771
Sc 8.75753703217231 15.494114418758112 10.382142739813686
Sc 12.828781985436978 12.131622480877736 10.287762509985562
Sc 11.504022306144885 14.679779509286032 9.093740010691073
Sc 15.70072051721257 11.705945098014928 10.476090124661594
Sc 16.981330168345426 13.283932604978947 12.905817224053775
Sc 11.959795221117396 14.481897019558968 14.112624343853419
Sc 11.374799205086962 16.37982777847689 11.670157787647662
Sc 14.9471460217492 14.605035906344883 14.819769176736486
Sc 13.97490066434017 14.592263849600965 11.60314699057885
