30
Energy = -153.00459478 eV
Sc 7.29286261372283 8.88801125738745 10.741824917664095
Sc 8.032775030956678 9.264769768972796 13.733458000490783
Sc 7.487753337213826 11.749154036079787 12.02378904847372
Sc 10.120281888063424 11.817730564130862 13.892266192661632
Sc 9.393186306338666 7.097584361964443 12.110568328552327
Sc 11.738173590662816 13.850196347270755 15.5688552468257
Sc 9.584776861985898 14.917199416729309 13.618761626160227
Sc 12.866404309985253 10.735207999278279 12.43851610691797
Sc 8.629930461378533 11.196370772650445 8.976631070302023
Sc 13.326031385818222 11.191365917260798 15.262638228456545
Sc 9.935559073750523 8.194537846826284 9.090166347329866
Sc 11.188738967317626 8.792729733874596 14.161050691309061
Sc 9.918841583048058 9.947293787791663 11.519336229763963
Sc 12.393827855436921 16.36417077118666 14.084952037544404
Sc 9.617732973560898 13.521907479165376 10.857837736936744
Sc 11.078700353298121 16.33098127283178 11.247769915654528
Sc 11.019516646297188 10.556840658118658 7.084612174544876
Sc 14.364028896435892 8.581027922668156 13.737358214065669
Sc 12.167289869487748 13.80402802948725 12.514448310335679
Sc 14.564633437830496 13.9287787698877 14.16735679708194
Sc 12.365031184409712 7.771953381437278 11.432461877261913
Sc 15.728759406702657 11.179256169724841 13.294443204009267
Sc 14.137189945177917 15.90934861246287 11.66700326527019
Sc 10.458041805510375 13.49226963368411 7.8167162987838985
Sc 13.820450709170053 11.81081503721171 8.004222395736857
Sc 11.679968908535786 11.667816000591273 9.763215880367417
Sc 12.80145971630573 9.028538562156395 8.781120739397265
Sc 14.990238109778211 9.693224753904817 10.697194649961846
Sc 14.796942037420452 12.861632587944698 10.911665562519596
Sc 12.784108551697255 14.52211006591209 9.373810584458099
