35
Energy = -179.71257484 eV
Sc 12.952246323822054 9.414074346532315 7.253621131158177
Sc 14.316162662549095 12.035212126270034 7.3048641473379545
Sc 15.388048327667164 9.760056161041598 9.284890111198031
Sc 11.384848562873842 11.951832714206232 7.139568824341191
Sc 15.532313508357442 12.962967718350152 9.879053825916495
Sc 12.733664510623345 14.151300702382127 8.891113172995091
Sc 12.843831692241027 7.960548572400037 9.732346175874584
Sc 10.258481455506486 9.66817275096304 8.969519555852628
Sc 12.78351500994432 11.140577969182155 10.034478747124327
Sc 14.179555394248613 9.086834166872748 12.14067149776397
Sc 10.018412122676214 12.70847083806305 9.751826589997895
Sc 13.407680483460705 13.895988790975823 12.004369360205075
Sc 16.495799779709984 14.068615970737492 12.367273714447622
Sc 14.445543172891675 16.11918101361494 10.893168004027299
Sc 11.019707163846013 9.116879280397617 11.862020536801628
Sc 16.662928954118634 11.118829969858352 12.003310109379232
Sc 10.935212287787047 15.324619047417235 11.102735543978495
Sc 14.243566420964795 11.697238262604536 13.49833076382068
Sc 12.479543428274495 16.617445825323152 13.292663124983266
Sc 8.51425143412283 10.825019146042838 11.60633590846731
Sc 16.394271058770393 12.877414823413682 15.026405839319903
Sc 14.989632712203173 15.591560407694532 14.348833596516998
Sc 12.508097257872167 13.741518935261661 15.129169226769179
Sc 8.19450720719232 13.836925009907844 11.915173270403322
Sc 10.866213413378754 12.287171896742931 12.783575072729755
Sc 9.157886976149399 9.728593155213796 14.31925177576732
Sc 12.110088848202764 9.882414889138314 14.506069867818796
Sc 9.96644842625302 15.207852205031736 14.022969508704065
Sc 13.920024848392716 11.476967658590219 16.63058488878016
Sc 12.400772194062544 16.275884864212273 16.438467093605915
Sc 8.480911315120649 12.620723548768781 14.632438555568914
Sc 14.830464090724247 14.412548362526687 17.124439957519513
Sc 9.798674419211034 14.44239976536842 16.877996409594132
Sc 10.689720367185847 11.612961301399386 16.43971869546868
Sc 12.262540240787294 13.60845044814114 18.217914409936338
