34
Energy = -172.15211313 eV
Sc 14.882738624530422 16.32258298553635 12.382608017155198
Sc 12.83338687513566 14.82150602644932 14.246964651925612
Sc 17.585584086738372 14.859291297774247 11.65898208269016
Sc 13.331416957964413 17.04633494952604 9.83717279047066
Sc 11.494888010926019 12.829895676095935 16.378701863411465
Sc 15.90880415491037 10.09984710140718 12.88610066104592
Sc 9.861006247155487 15.117528685247384 13.252249812390131
Sc 13.705128566987174 11.376424489140579 14.737211538827836
Sc 12.466820048157327 14.37492708002624 11.242847901627295
Sc 15.237369057197283 14.592112434446808 9.790063542516219
Sc 11.939360366514514 17.22190518193561 12.475379471768184
Sc 11.950477416928058 9.910419423988428 16.910848999434165
Sc 9.659370107361626 11.769481416846611 18.297501737675205
Sc 15.260010627565878 13.389017484770564 12.801400530937444
Sc 10.96903369150568 12.372087192006468 13.420664242810126
Sc 16.71936469242832 12.098617482233102 10.543001029918441
Sc 8.698995667849578 13.430614685113897 15.808166237498178
Sc 14.169761657204308 8.377396540752354 14.957667852414106
Sc 13.857387661085578 8.072914877204465 12.018276183001046
Sc 10.3788187594787 16.165719820303583 9.902592781277459
Sc 15.497551392048234 9.33094121478426 9.929203597628792
Sc 11.599993277962033 9.392767565021016 13.790294534563891
Sc 8.09141736917679 11.855670958381737 13.192337400192754
Sc 13.370229386239322 11.180271595741386 11.564555039851953
Sc 9.331528506424599 10.641990218875488 15.631640619992167
Sc 9.449808708388796 13.398277625606852 10.858300617392379
Sc 12.444906522296952 14.657363345453053 8.114338599170216
Sc 10.904049371058349 7.362431293702376 11.75956304501934
Sc 9.46062452708802 13.982994381195441 7.918297936572056
Sc 14.337596004845919 11.917064960206204 8.696492440008063
Sc 8.635352876203298 8.713215487012139 13.219832769589127
Sc 11.454893891581074 12.017798146186529 9.085139102948991
Sc 10.040777332676473 10.256200364866572 11.128670795360001
Sc 12.514329221863601 9.079015944009875 9.55079867525944
