31
Energy = -158.0686293 eV
Sc 12.506997377589363 6.90740106423252 9.83655762546823
Sc 11.512014109188016 7.897673640654224 12.622163673752073
Sc 9.568201033246869 7.386591786955061 9.625974742606099
Sc 14.246932221606562 8.599904585524982 14.55587060303548
Sc 14.516803010606898 7.552752332925854 11.83725547214149
Sc 11.567301559516068 8.417984987617931 7.515471107181118
Sc 8.992235437719879 10.067240857823569 7.983377781707702
Sc 11.160951708463479 9.708725655933428 10.158732828356465
Sc 9.87434356072698 10.73826951583671 12.950175011942505
Sc 14.099692614442363 9.606945031958492 9.532571244460689
Sc 14.666246901147732 11.652596959995435 14.84590746972836
Sc 7.948823269267275 9.868679126362906 10.851629174410625
Sc 13.234963867393796 10.35686023977644 12.391071368115004
Sc 11.759296564592741 10.462957496763554 15.189639123578198
Sc 16.083788496391662 10.00075136156541 12.499687025520254
Sc 12.32835503442714 13.275718840328736 16.210484297953933
Sc 12.043371485917163 13.06087586440291 13.148599089089071
Sc 6.880783949587381 12.124627916017362 9.168238129862331
Sc 9.559105199625265 13.232816948191429 14.762887959301207
Sc 9.853231880849853 12.479508377068488 10.315928911439908
Sc 15.166160540254582 13.046745579876886 12.170110269426983
Sc 7.582073223674172 12.818611633180344 12.162720119459625
Sc 13.009371269967064 12.652528937906268 10.157038791295413
Sc 11.759361979404495 11.580108376207939 7.708168967141791
Sc 14.38119646622757 14.78930096030271 14.49777664405797
Sc 9.17431665393711 13.156204092248739 7.415318035895362
Sc 11.536019202411252 15.66821312265789 14.557146189689544
Sc 9.906524023136354 14.990312391549498 12.084655934332579
Sc 8.057020552769915 14.802215914039708 9.687613204686743
Sc 13.036735267781609 15.442560388579611 11.72210344462203
Sc 11.141494096990987 14.872735664315012 9.111610407830307
