35
Energy = -180.25482461 eV
Sc 16.121694080623328 13.066803649240866 11.768794802673481
Sc 14.410645528458433 15.147376323528855 13.171980382803538
Sc 15.44092905613483 13.370144149625407 15.427398209758922
Sc 15.586802097796241 10.735171223618876 13.638957812420404
Sc 13.251862406078098 12.923790963319998 11.61408554932879
Sc 14.978609923563909 10.303037681858115 10.813079614956118
Sc 12.354056107685041 16.962079474373258 12.067935906933112
Sc 14.241777545101744 15.366268658418969 10.07085761521463
Sc 12.574093172357859 15.031395699360887 15.420407547876303
Sc 13.039400595799696 12.217323410465546 14.474310958740714
Sc 14.814119625004269 10.501084927138205 16.44156570966483
Sc 14.304879024589146 12.429960452755227 8.72655414896158
Sc 14.047212187037331 8.192594956659155 14.42576880294398
Sc 10.923847986787102 14.375552953088789 13.041996594090296
Sc 12.368426326489177 17.449431517085745 8.92098721170714
Sc 12.769245698538375 12.533982360679156 17.309682172972167
Sc 11.174244958776011 15.149921189787158 10.161197570065744
Sc 12.389796353268384 14.533816262715465 7.66631131211636
Sc 12.46002509862541 9.924509520344676 12.567086520669578
Sc 11.3586751866088 12.253735584680909 9.545404036560326
Sc 13.488609393088614 7.4823512109998545 11.461308201952853
Sc 11.961170951950134 9.786976786811227 15.95855033817383
Sc 12.697357735907495 9.620058361889669 9.081996106850374
Sc 10.179639693270197 12.46461187809235 15.328195232572336
Sc 11.52490223650557 11.601445574568295 6.817506982803292
Sc 8.665069215807216 13.85744923856044 10.994481228519577
Sc 9.97532346819225 11.400731961308658 12.015197767750719
Sc 9.159652067949319 13.239384037969264 8.0189895492103
Sc 11.052414983512122 7.455771168111113 13.50533356273964
Sc 10.651427682836687 8.304199710286603 10.732223556478193
Sc 9.416118724574561 9.735354583429839 14.49455187001171
Sc 9.515954078081903 10.17551310560449 8.729757150799404
Sc 7.582191858279181 11.931041396407135 13.336088084031397
Sc 7.360767477087461 11.446543321452932 10.292380198525974
Sc 8.09927766113172 8.967499847151766 12.035154216832396
