38
Energy = -196.58677343 eV
Sc 11.427134958291347 10.5958064399468 17.705740671275848
Sc 12.957882009604807 12.879208248677411 16.47848449899257
Sc 13.78615683027237 10.186758686413159 15.532673375346496
Sc 12.104007644641449 15.329571869496482 15.181566717105804
Sc 9.838697924091178 13.316402776055105 16.7140718305329
Sc 11.163398669621863 8.363003348265917 15.465035983738366
Sc 8.71001219231167 10.10199732885077 16.475121854337427
Sc 14.870093472629963 14.082813835193102 14.486670123011182
Sc 13.100025574733468 12.070703280201812 13.213330495124582
Sc 10.839823548121295 11.23783141162051 14.865079122226765
Sc 10.256078731143187 13.889979316740721 13.22711160958257
Sc 14.194934530386822 16.92334604287891 12.630514503913924
Sc 14.801680943225294 8.275883549550663 13.473863963948553
Sc 16.171086882611984 11.130182799119659 13.556007359339562
Sc 8.51913355179321 15.516452714391157 14.598403286466485
Sc 12.770604180883492 14.762628580974742 12.073902021030552
Sc 11.027978882790233 17.048163827917882 13.175760437250727
Sc 7.8920710375532135 12.308933549888202 14.549358733433861
Sc 8.920474749676055 9.483396020645374 13.448327883320749
Sc 8.800274279245562 16.285909392411035 11.57078926076274
Sc 12.059965625297371 9.18510319775567 12.60731863072315
Sc 15.691715816286115 13.714066142130074 11.664212870089026
Sc 16.91128671641363 8.594724673130822 11.247936923950498
Sc 14.602191769877322 10.447460149969546 11.162435449698593
Sc 7.7738626843217 13.33686231974142 11.696964333159825
Sc 10.328448055241122 11.468031070288738 11.420207013090652
Sc 17.387937594726473 11.452302107052917 10.502274798129092
Sc 11.746610594444533 16.950376942377098 10.241072610180376
Sc 14.163963238270194 7.543748005268756 10.624366986372015
Sc 12.699465959237475 12.577605026176093 9.915803419145044
Sc 10.238729263723664 14.32334069831783 10.099342191934888
Sc 14.333226854318529 15.53094977367023 9.66732449591309
Sc 12.167935445739387 9.627052481325935 9.369019981985325
Sc 15.346382644197645 9.723099712958277 8.55919703855045
Sc 15.389800059620862 12.816450805627431 8.658496983546112
Sc 10.323828092249792 11.97084171280819 8.231331662409838
Sc 12.183404654045141 14.520871257731118 7.7853807434114275
Sc 13.116092520477835 11.511662078808776 7.12036773758213
