31
Energy = -157.80369973 eV
Sc 13.227388936726655 9.705602933298461 14.766473885279293
Sc 11.14731308365127 10.994254231689395 16.22878992048604
Sc 13.711739408183139 8.296425503218579 12.2765110542722
Sc 10.393994928541026 8.202818907664543 15.071876389383664
Sc 13.610957599135128 12.612565896462183 15.08878982099443
Sc 11.095565511968218 6.936189648392584 12.246444683876437
Sc 13.015247642874687 7.3878776188461535 9.430779255242177
Sc 15.42110193382806 10.6994763569416 12.8949496936192
Sc 10.94035434835133 9.9977869985534 12.847649151213544
Sc 15.720485088176462 8.955415860174115 10.312495328007465
Sc 10.698608666381748 13.052314645951729 14.206951595035116
Sc 8.536020834374845 10.819398937454373 14.601815453207918
Sc 8.481024866687212 8.338770452669019 12.723113324921593
Sc 12.873714316537312 10.183196526817044 9.99899155880523
Sc 13.008790035458698 12.135964880001497 12.18204931785683
Sc 10.12077489721361 8.76736616460671 10.086880941790415
Sc 14.651933496077284 9.69456300934413 7.642074980322786
Sc 13.023151547119388 15.00037743581366 12.954864467103073
Sc 15.273691079163763 11.958089746533123 9.86323954949587
Sc 11.709653779981819 9.52880741309655 7.395811185556259
Sc 8.57218563546485 11.261035918185476 11.538252868063097
Sc 10.444299776165813 13.980520793213001 11.347301362057614
Sc 10.15459468864288 16.0910549243631 13.48982636246254
Sc 13.170351921078916 14.310688185775703 9.894732496941709
Sc 12.99086514605704 12.364736175347668 7.652932587246835
Sc 7.890039083351566 13.925324069170895 12.889158630966307
Sc 10.457715868160786 11.883901548070527 9.146761062504657
Sc 11.570333535689418 16.783854730849644 10.861851755847312
Sc 7.873078883053357 13.652993055360968 9.705229845774248
Sc 10.482272292387782 14.985994812228165 8.521102638408124
Sc 8.557966808871988 16.31342964056844 10.851322947928153
