34
Energy = -174.89544767 eV
Sc 7.515604061851203 13.19168495575037 12.047794969304626
Sc 7.790584487082545 14.253325741076837 15.050818154834284
Sc 9.554816986304335 15.515721485270712 12.853645292301403
Sc 7.090465904961264 11.291988959534173 14.590889483972958
Sc 10.128314786208168 11.812356449517658 10.859719245022367
Sc 9.629517942111518 14.535635351346377 9.924858674262262
Sc 8.40402250502668 9.873821483863358 12.16702490641962
Sc 10.97455709413818 14.52859148051488 15.572608720760936
Sc 12.291804707138605 13.35368899244133 9.401269051256584
Sc 9.227793857708411 12.133047230072412 16.739819601219217
Sc 9.707936229067633 12.375457919969728 13.86359852485376
Sc 12.508065781413451 16.496413514171397 13.678804489719981
Sc 10.472583893701264 11.582450150428851 7.885971512577381
Sc 10.347536385112344 9.011408078109811 9.559092980884856
Sc 11.984488968426803 13.877371411437352 12.38156957064762
Sc 12.308604941211815 16.163245503479413 10.620588419753913
Sc 9.719770929347787 9.547241886200338 14.918979889569801
Sc 12.376362989790515 9.288194682754435 7.255642926120712
Sc 13.95271250715078 13.758139006164306 14.531198910560057
Sc 11.021550021234273 8.006986660070165 12.321973199554309
Sc 12.153929685336392 10.679462962540489 12.912741187048374
Sc 12.980609942613466 7.424207577790629 9.599724156546738
Sc 13.08818365813344 10.393787843345436 9.9370641761395
Sc 14.812623936535873 15.398336940419808 12.002587909582443
Sc 12.20597324836336 11.58834697067682 15.827965309933449
Sc 12.658627242938568 8.60917896776709 14.986702351527583
Sc 13.901338115833742 11.976383143453585 7.339070090072433
Sc 15.284898645483555 9.300597579992681 8.296461007409325
Sc 14.537778668383954 12.513914308713469 11.530935638330948
Sc 14.725279968788662 14.754822249836508 8.99661526900096
Sc 16.08892146139634 9.930382822786477 11.167658048179028
Sc 13.992339191627396 8.290381067566639 12.318290449677916
Sc 14.837706953295422 10.655028731520444 14.080192537946141
Sc 16.224707499840775 12.168194526068985 9.217903128674797
