32
Energy = -162.77411788 eV
Sc 14.730576204188315 9.68848448802362 15.342278288099235
Sc 15.770168086351177 12.673031563244292 15.990620943606848
Sc 13.394553794998355 11.779465978861154 17.383801568610195
Sc 16.330221182960486 11.490741157168836 13.371197237990147
Sc 11.602007726068248 9.819034065042903 16.169579122673433
Sc 11.912505750265096 9.262213905393791 13.336333392796538
Sc 14.116972104452785 10.38767137636271 11.726176221672391
Sc 10.688685971897085 12.697115646421022 16.112467644621233
Sc 15.364943644761947 14.33248531069421 13.28941117772861
Sc 13.323769679126208 11.923590866755822 14.369649712458392
Sc 9.089278164843032 9.981569410468285 14.541116351529965
Sc 13.28549010290138 14.581805733063586 15.660307586412154
Sc 9.48384191546788 8.475438424222128 11.645674583349349
Sc 15.579569737959483 12.799406134604439 10.550136848529847
Sc 10.475112851558821 12.107753815887927 13.251354427386891
Sc 12.384528318470231 8.08472164173719 10.315158074533537
Sc 11.065939996350444 10.758047834465323 10.61596224861294
Sc 12.837561397140014 13.370736419564572 11.603130543867158
Sc 8.15655038548795 11.235098512473414 11.543634543935944
Sc 11.096839846857819 14.959936938693774 13.623025588501665
Sc 9.907653696880582 6.965154040079195 8.978733141081031
Sc 12.590069586497165 14.220754222521865 8.68667785739033
Sc 13.411888364170338 11.245711676874732 8.865536073727707
Sc 14.548789043119141 15.679059067593695 10.608190155573649
Sc 13.472103496524861 16.685273406698816 13.255935170745934
Sc 8.657600636849685 9.802400954329778 8.978707446572429
Sc 9.882143740148596 13.764118857000017 10.643535254069276
Sc 10.463935057595439 12.246759216999152 7.9212341372880015
Sc 11.375702699562805 9.183288280417539 7.754366232454269
Sc 11.630286815183334 16.275784795766185 10.709211798193735
Sc 7.7213447388413305 12.892263844269099 8.820582491837813
Sc 9.721351032621705 15.252647876031261 8.142270918723122
