34
Energy = -172.23664231 eV
Sc 17.031050174410186 10.830796545433385 14.905806235311235
Sc 16.288728927137186 10.825134920863238 11.941213527613648
Sc 14.804190479717779 8.927209133917827 13.978833308441777
Sc 14.27475815823726 8.788674280952478 10.715933117450852
Sc 13.763389793044817 8.926045174279231 7.614858113206735
Sc 15.627051949683231 10.74804662834523 8.852302909580173
Sc 16.224830895610097 13.000118407161368 16.758094723179795
Sc 16.604673805486062 13.54884764330311 13.537352033759925
Sc 15.878029723063213 13.378333094689735 10.218248854620667
Sc 12.132021022105114 9.622314328839579 12.775118463307937
Sc 13.385971827279626 11.743743046556979 10.848035663145357
Sc 14.604400223551169 10.451880043048718 16.694958004370807
Sc 12.713065927362406 11.647901395476625 7.760546828507055
Sc 11.57159178918293 9.602858341174674 9.65968666331
Sc 13.208943848278897 12.94554933776331 17.562000026510376
Sc 14.250797152836489 11.862216116646872 14.029912632371984
Sc 15.223252084831728 13.010814940441165 7.133428159379742
Sc 13.222818991205143 14.2817403626013 9.108213057326624
Sc 9.428596389561617 10.509467115328647 11.912718558728233
Sc 13.893606271206542 14.570011484861078 12.24106569147855
Sc 14.14456025281512 14.585475036312648 15.309779067726073
Sc 9.375436821137628 9.22507178223997 14.532699747979889
Sc 11.714307319880993 11.141939918321118 15.513977810314563
Sc 11.134990927706447 12.893730347008713 12.905595073984165
Sc 11.195631718111198 14.247825078971237 15.56283858195748
Sc 10.472925222036547 12.806791781867476 9.930725957750118
Sc 6.846101764042451 10.447032007473913 13.390234539219502
Sc 11.286280784086173 15.583655724976781 11.17840125761709
Sc 8.863478121316811 12.161621271057859 14.748970630828774
Sc 11.866642228421536 16.6541116377221 13.812855197423268
Sc 8.004978385965655 12.981176067117447 11.844196862540747
Sc 9.128472595572996 15.317980941197302 13.331495774906982
Sc 8.601038251368747 15.572140505894428 10.278052097094415
Sc 9.683936682830145 17.88327292974508 11.955171120443472
