30
Energy = -152.38161699 eV
Sc 13.994414163318414 11.00486854320767 9.55607794367108
Sc 11.350272391715224 9.597203770738622 9.014096477889114
Sc 11.461793147961293 12.64627800934934 8.595037105603355
Sc 15.902233095237005 9.864911467761587 11.437035141511226
Sc 14.209603985162612 14.059113411032829 8.816551559337508
Sc 8.386938106384735 11.290675057581565 8.32192531915125
Sc 13.854747342325094 8.01036490210078 10.087186424850062
Sc 11.231035331203152 7.402196687580199 11.275240326666967
Sc 8.753541277521832 8.527099261240059 9.737550963932255
Sc 9.697413435620817 11.605063942206408 10.885545215924363
Sc 12.919901232467721 13.247573970748219 11.501624148775663
Sc 15.897212256991901 13.0197531981345 11.213991372797304
Sc 8.992702734060227 14.363042091152032 8.643408373939167
Sc 11.675789940213448 15.503236537314562 9.866131622166899
Sc 14.508376015125403 15.872851264990752 11.147348571404187
Sc 6.9328055874741965 13.155417452889544 10.37231107867171
Sc 6.827832100096515 10.3287138652054 10.988255864766282
Sc 14.107058934469888 8.054560128070154 13.069377400798711
Sc 9.079438907062867 9.090667341940293 12.65321148731016
Sc 9.300261825315067 14.68831356182821 11.568821932975785
Sc 12.281339018590916 10.136721526685742 12.105135776607943
Sc 11.397800347701002 7.6707401169484015 14.25436658471881
Sc 12.056527799453537 15.826828219577887 13.00711955505234
Sc 14.727671757218845 14.393851167357457 13.735648398718181
Sc 14.767934095692551 11.313607616255352 13.646155234619856
Sc 7.954023831974113 12.039886780736886 13.233523185018834
Sc 10.679808164632899 13.207756490565432 13.595443568693073
Sc 13.371803286540526 9.495651818494988 15.638790473235595
Sc 10.741211007585985 10.529217327255376 14.744459737084595
Sc 12.86543012242046 12.653769895003158 15.371907540744111
