39
Energy = -202.36015268 eV
Sc 16.030888154777198 8.158336830833031 10.54855612254298
Sc 15.44158779982023 9.71101932164649 12.948064336707349
Sc 17.399654256719156 11.180209089650377 10.926677375029302
Sc 17.40840589432055 11.704394632672724 14.041651927935206
Sc 17.962779052464832 14.03631874270014 12.159876620023812
Sc 17.910639660630462 14.126373513178278 15.63249164606075
Sc 16.58411981542755 15.991823913898454 13.808594481579737
Sc 14.758851601517017 10.604562352458087 9.759944300645788
Sc 12.932977762653861 8.974976118136848 11.500520613353109
Sc 15.296295878970296 13.505959114926275 9.397242098582984
Sc 15.137814989943966 10.875432040368368 15.847521926260251
Sc 15.297895885769734 12.909041283055933 12.281181077859967
Sc 16.005395522732456 16.127595557558024 16.761244329825086
Sc 15.03765534592707 16.040085621469316 11.290698524674468
Sc 15.578674603660929 13.291583857766673 17.777889827903735
Sc 14.900278101164394 13.90187422461069 15.072564718740983
Sc 12.99876675593847 11.257205429080601 13.619605267285781
Sc 12.41436070695211 12.123407656755198 8.083521586831118
Sc 12.726960773306269 12.370103963424194 10.801612412083404
Sc 13.8654900341128 16.917627138053458 14.560615066323354
Sc 12.794481544103174 14.816267118171556 12.746489768058126
Sc 10.408404692661119 10.49990708523869 10.2306739841338
Sc 12.486438039031174 15.259761649980389 9.731644517902387
Sc 11.734008260249196 13.365544654326287 15.094004169607784
Sc 13.023323053594254 15.135895496561275 17.149565642804856
Sc 9.559280281965867 16.531337747780356 9.493369980249488
Sc 10.332378057266487 12.56496786422242 12.476456832764287
Sc 12.713395646103372 11.787483110273685 17.269478190391865
Sc 12.154188864740428 17.577118804245963 11.74550902582658
Sc 10.049955978966402 13.494780442900835 9.634806497534727
Sc 12.563471372364608 9.109584077753166 15.266726308641303
Sc 10.4205453451753 9.534787571380273 13.09245371223838
Sc 10.908543004162906 16.193499471874443 15.007561106286667
Sc 10.081992164539 15.559886338510102 12.102370496194947
Sc 10.164440664141534 13.723274764556141 17.351644160730373
Sc 8.692909370070526 13.915136260479983 14.483237846586754
Sc 7.705666814215878 14.240083322391692 11.398253404221709
Sc 7.940532378362111 11.268678620483627 12.575147298322676
Sc 9.893199399666711 11.118020431337104 15.511747558812873
