33
Energy = -168.26630016 eV
Sc 17.59725191546543 12.548066366293174 12.805091449495928
Sc 17.24017426636949 13.045609592421174 15.903996545592843
Sc 17.409248207518157 15.462103034129163 14.048761722347503
Sc 16.895452455648808 12.205521731203412 9.753577116315912
Sc 15.409831803750311 15.515405769503392 16.33873373151837
Sc 15.470070867176918 10.570178877073685 14.70025686513407
Sc 16.270557656638843 9.963421958628649 11.652488475751836
Sc 16.203309607804478 14.94309463532301 11.192083258912843
Sc 14.377521470171715 10.40611783321333 9.186005375767492
Sc 14.980183197571625 13.673171791408482 14.068847750825217
Sc 14.387767571319326 12.583944473878232 16.838139064242277
Sc 14.462285718295048 16.52997356732458 13.442514622286147
Sc 14.501193579742147 12.389389631648305 11.491325758136881
Sc 12.459107110347368 15.14114536169672 15.308035093737164
Sc 13.180995872244171 9.634360446621875 11.89927929993733
Sc 14.321796921951153 13.492916695919195 8.740297461019743
Sc 11.401171547981363 12.955503703119895 16.945191441227855
Sc 12.654032701603615 11.439226026906322 14.413655059065702
Sc 11.427208454137405 8.701813820800185 14.359089519015159
Sc 11.883112657259224 12.06860696583013 10.14272455323253
Sc 12.348555677595707 10.108446289155669 16.90510160355202
Sc 13.136715915471633 15.174990119765898 11.072650272035798
Sc 11.175270443539151 9.268282454628036 9.679248239117271
Sc 10.990252731583235 16.4128935385672 12.957770738608104
Sc 11.348983435948302 13.530728232247908 12.928663829779502
Sc 10.338642103041519 10.597800565998394 12.286683312019935
Sc 9.432461506834498 14.497546187982204 14.966960115153638
Sc 9.771905494911058 11.208745746390694 15.203921750139477
Sc 9.917885299713847 14.616070485192955 10.440389939287153
Sc 8.884906662170781 11.777960969591273 9.773250382476705
Sc 8.0155082071245 15.752014620459988 12.434646524835212
Sc 8.249479283475928 12.86562105889503 12.515959156667252
Sc 6.949297135900794 14.136360301678666 10.170358351919232
