31
Energy = -157.73698666 eV
Sc 14.183963264121253 16.004562275144494 12.39594619178862
Sc 15.863032026132498 13.618249251085013 11.845605192025099
Sc 15.12865018700733 14.191730867341294 14.727415639892767
Sc 11.184666202203747 15.766240935523792 11.332740980715778
Sc 13.332201410879554 14.135452712505993 10.02334581731686
Sc 16.998449339249962 11.715636275793319 13.98780956149261
Sc 11.854884435526698 15.566101520358306 14.362444120272354
Sc 10.325539334571843 13.178262647672057 9.566543518203217
Sc 12.506249708519078 11.434652941606203 7.857927851832714
Sc 15.211132830274115 12.04574294342123 9.238008227966752
Sc 8.163982991467169 15.038916953098457 10.801977432136557
Sc 13.052534356628604 13.13820543020234 12.995864106759472
Sc 15.144324309513074 10.5641785636192 11.915855672500298
Sc 9.021617395844174 16.24052438601066 13.426745796498023
Sc 12.528557223824448 13.419022632903443 16.273966876698214
Sc 12.370720001042804 11.160507951525569 10.801855843692953
Sc 11.801126870865161 8.459602040231758 7.419921763333855
Sc 14.16625201924801 9.241423139799243 9.017036259057413
Sc 9.935181000155547 13.314289572379783 12.628077016785372
Sc 14.303077641767393 11.160944980649903 15.005478770484975
Sc 7.0177846523869585 14.010716013200586 13.430910484704816
Sc 9.460924770982004 13.921952149475645 15.549114685289966
Sc 15.84925779355779 8.688601064981542 14.052730249866697
Sc 12.816409568979475 9.035440079016245 13.318963806785428
Sc 9.951825992760412 10.205016970014329 9.168847588074
Sc 14.61387496947796 7.5429580136081915 11.523574818648076
Sc 7.745008035474195 11.946917734893423 11.10764393160178
Sc 11.76421311715949 8.091800522958778 10.444953712462427
Sc 11.113082976252619 11.301787251869241 14.817099962827667
Sc 9.905421092277374 10.049350007083634 12.229138584418076
Sc 8.076112187789729 11.387183205278056 14.226964159638399
