37
Energy = -189.55643393 eV
Sc 13.317361517243878 9.267720800925158 9.810125202211665
Sc 13.73428631924451 6.747470453653251 11.647294496320367
Sc 12.733193857692692 11.939853636002537 7.961646836897097
Sc 15.451872601684977 9.395447674092685 11.981744118606901
Sc 11.960938272128626 14.444112136560747 6.342109055571592
Sc 10.012489337248944 13.02139674651081 8.011860830285162
Sc 14.830054104209509 12.00743507798336 10.362305098989706
Sc 13.952299765305497 14.651465789585213 8.628204408924326
Sc 11.03025580759031 15.646680160808835 9.007484251028272
Sc 13.499371765202202 8.225873744625625 14.165935153740463
Sc 17.04789762169613 12.382112992596966 12.554676885783818
Sc 16.13507949799351 14.839263592990573 11.029029370917797
Sc 12.128175310278188 13.376161884686693 10.605571399901699
Sc 10.619609122393703 10.740655592308466 10.005943903442958
Sc 18.34124510215977 15.129191111893915 13.112698000401084
Sc 14.290195583877987 13.583134302310484 13.028322852559784
Sc 15.672029451977979 16.40557226607978 13.658805802898415
Sc 11.100880703891264 8.096639355870147 11.67326058947831
Sc 12.649768560056613 10.588217942508054 12.499924712267102
Sc 9.191542573391951 13.368123629396594 10.911152313583154
Sc 16.597295674360623 13.963926946857676 15.204987836509673
Sc 11.602814720447109 6.011884903254696 13.693011880890372
Sc 10.470124025507957 15.759320410053325 12.200874689420331
Sc 15.16611582610773 10.97308218997945 14.573561465337985
Sc 13.36487108948128 16.19547851055769 11.23749701814867
Sc 9.255659379745632 10.922798288773519 12.746601917046345
Sc 14.473111323850565 15.994199214532996 16.498844129369765
Sc 11.259501975878676 13.072146739744305 13.644453634016719
Sc 10.515015714854341 8.910737007090779 14.505829311177962
Sc 13.87988509908198 13.2268456641603 16.01139348311584
Sc 12.277861191715598 10.840427371970291 15.738262395554994
Sc 8.508570256853382 14.076471472308018 14.016691234940449
Sc 9.71867470770591 16.540786334130363 15.195312317833066
Sc 9.353063616011795 11.739837426215278 15.759532209145048
Sc 12.694799065374436 15.97096750077363 14.20795421389368
Sc 11.157681317105856 14.313454046649412 16.39099675465238
Sc 8.24646442703287 14.535833258525445 16.921793999907468
