34
Energy = -173.99411154 eV
Sc 10.1113551202214 12.26261816024765 9.119035822205861
Sc 7.704670723015665 10.31282187501238 9.603881658077885
Sc 7.599325022193496 13.100144563608595 10.449868916679737
Sc 12.793542345218123 14.403692267073707 8.723676916252197
Sc 15.709635057230988 12.82582111859503 8.65811708990361
Sc 11.64948084816302 13.080979769806172 11.835458608232234
Sc 10.648438252906796 9.178434265366366 9.81521431732274
Sc 15.668269592447023 15.712099867319083 9.271716430094381
Sc 6.745877507961571 10.845404827015328 12.654579872878733
Sc 13.012519002265723 11.45967527849458 9.29059402815243
Sc 8.137176669256029 8.152524796543698 11.555920510927983
Sc 9.481259273728767 10.91779019852363 11.96468322080715
Sc 13.18571724110968 16.559816336777768 10.935320004857543
Sc 10.146500486027582 15.109962494926627 10.37651414657903
Sc 8.898229477573407 13.909516825843035 12.973333181223792
Sc 17.330393910353536 13.43387763201152 11.286738554175326
Sc 14.455922736211093 13.821296798748303 11.205515532895097
Sc 8.549837133606571 8.883588249340507 14.406188429185605
Sc 15.461063429086778 10.913444969470373 11.017307111101942
Sc 8.730676247535115 11.748912777664426 15.090456610383875
Sc 16.193341275490447 16.24431706351416 12.147563732271646
Sc 10.927579780544082 7.846801191337817 12.706993000396647
Sc 11.066394587575191 15.976890935083235 13.088161402998754
Sc 12.745969593829418 10.112534889707034 11.87678349292197
Sc 13.897552402501145 15.421729393722662 13.870409608318147
Sc 14.137311228394472 12.112901495930531 13.911022237500209
Sc 11.439081208277088 13.487741766837495 14.886652339066528
Sc 11.287015635163772 10.416069559239418 14.296229432904923
Sc 17.032311814586443 10.957628053405085 13.50222639817247
Sc 14.338753139179078 9.266998266673898 14.459759223850126
Sc 16.590591124950457 13.893419921868913 14.288422403227882
Sc 14.307377353406611 13.856103107587474 16.464622268446856
Sc 12.92963509884342 11.167546733489187 16.639248169639888
Sc 15.954148974361521 11.341555076787106 16.24591737324815
