35
Energy = -180.1327465 eV
Sc 8.80878102777648 11.184926002538884 15.189307608532122
Sc 10.72760962755006 10.889372407545979 9.54916065328722
Sc 15.812511310594969 10.522149660581066 13.607250274923803
Sc 15.84789450751185 13.893442207103366 9.223008194026278
Sc 11.314038610401946 13.545164738092682 8.626256285801492
Sc 10.529082863455251 15.910746475115907 10.16415623477739
Sc 10.80540931541018 13.139143180727153 11.921483155948248
Sc 10.681147868053076 13.613795710874383 14.986604764384913
Sc 8.645827071805662 13.555429354855054 9.86937172208945
Sc 10.623559026615647 8.707532388787403 16.30018222485355
Sc 8.232990897072323 13.656933576885313 13.133484921148863
Sc 11.218530213496608 10.30461133089287 13.739894632530758
Sc 15.64802662346345 15.820079697080105 11.733088608970938
Sc 15.914705860251122 14.068324465163439 14.749309344728035
Sc 16.00957607614794 12.94403700884697 11.963547937294145
Sc 13.168775410612591 11.089682768022936 11.381253854518011
Sc 8.909194565936664 8.357484190010753 13.879427879066858
Sc 13.718081141365888 11.89508887553136 8.508297820092778
Sc 9.806687573928917 15.605036125138033 7.379552869787765
Sc 10.311191951881511 16.00314221433859 13.153056458169596
Sc 13.955270977882348 8.44840922777005 12.23649158213722
Sc 13.381117212867196 14.206230755318852 10.82684261611341
Sc 13.096352084079927 15.912072835102155 8.434041836479635
Sc 13.277161639532128 8.94293092049672 9.272583289497607
Sc 12.857649252580273 17.162739304670698 11.355437124664657
Sc 11.937422889135139 11.43606293810107 16.759166741472914
Sc 13.525378978406911 12.407904976467695 14.196177375187055
Sc 10.910125399381887 8.547136027477645 11.35285480184754
Sc 13.58847895295874 9.17481329015436 15.276597688525142
Sc 11.629981343258768 7.1361233731119285 13.934823429617559
Sc 13.461481010317163 14.203914298923163 16.58198464233554
Sc 13.248331640963965 15.319952365788343 13.639653759333708
Sc 8.725047554992305 10.852677898638708 11.964877852678597
Sc 15.806972327557897 10.586042921939864 10.202575959331115
Sc 15.024053801416606 11.640896388834346 16.575769542986812
