32
Energy = -163.12406429 eV
Sc 6.741958415890038 10.951057066099827 14.713919563391574
Sc 8.96405018987026 7.720847402882955 9.609026813351544
Sc 8.094567831710204 10.868058203593604 9.389785214200517
Sc 7.461145468873379 8.899792976979578 12.057708376725431
Sc 7.696806586695694 13.900761997539654 13.89637280368672
Sc 7.209646541301644 11.794304535541446 12.02395066573173
Sc 9.144754717612953 12.38674427068676 15.915683330706987
Sc 12.13389727879573 7.792111636967052 10.248296619361149
Sc 10.147954403435275 9.886914396823709 11.187824531291804
Sc 10.75555081483238 9.750464974602991 8.055084355539424
Sc 10.079267632725285 7.267108806694119 12.517200737662606
Sc 12.08307712927525 11.988355058573788 14.95169041445806
Sc 8.401509689579104 14.249602035335732 10.905786097609205
Sc 10.086326369942624 12.49354173632033 12.694719180298057
Sc 9.505576684092679 9.878972602493963 14.231764702474544
Sc 10.550587843837604 14.751571165816882 14.69231808263936
Sc 12.514314893021863 9.534367492862783 13.004432592664802
Sc 13.493711719077975 12.788680342302692 12.210913726543025
Sc 11.492042811490476 15.003602293064631 11.703682668287952
Sc 10.601932924691546 12.797901086244423 9.456257422419682
Sc 12.853908716387897 10.90440784394401 9.94824091243572
Sc 12.79216041984385 11.885576529377747 7.148400067187657
Sc 14.965830093052936 9.209116873364136 11.00034817325836
Sc 15.044789492414907 11.03134347283965 14.038309568033782
Sc 13.842499045935703 9.041018026966446 7.871155600395877
Sc 13.49927822973365 14.66781392739182 14.505699781724815
Sc 16.195202629767348 11.82108418340442 11.392384238601593
Sc 14.497571016281878 15.672741872792349 11.844911674429165
Sc 13.65137718901341 13.986847525869644 9.377352675560598
Sc 15.475675856415178 11.554088678256909 8.618539233825095
Sc 16.219719163883862 13.874378195950383 13.375459910689468
Sc 16.59069946727117 14.32991378362351 10.203099984396161
