43
Energy = -225.32163609 eV
Sc 13.328391632923491 10.52074183738612 17.7355459122002
Sc 16.203504062728722 11.24763887433071 17.102782506133767
Sc 15.159862691307923 8.656501974050617 15.803293476291412
Sc 13.818643452369436 13.440919448202967 17.179778065075272
Sc 10.888397961139257 10.200385275823919 16.17867729369903
Sc 16.82596283332149 10.464685754187045 13.935766713690985
Sc 12.58892755588851 8.975282166073775 14.111514856234455
Sc 14.252445420310442 11.370100136444126 15.051508567072306
Sc 16.226947295351856 13.56923907748177 14.95729338949594
Sc 10.663901737138154 12.935318027383945 17.4407442094954
Sc 15.17536959944405 8.130898798564651 12.54956431998644
Sc 8.885480506056329 12.043961556152777 15.170458305780633
Sc 14.235504985303855 10.773009621198845 12.040566101019593
Sc 9.434210586543907 9.468043394210358 13.325635153048577
Sc 16.738155212283807 12.91441139529283 12.203265299883634
Sc 11.774620865932345 12.754501642872679 14.76280807192907
Sc 16.660088946718982 10.438136810630084 10.521871014723434
Sc 12.10081840905361 8.254764145805146 11.416895133146209
Sc 14.010978754989829 15.42716732005195 14.981115718798526
Sc 11.30271347277174 11.131873576143937 12.116406212420479
Sc 13.62872592748515 13.772573790582884 12.494795679395203
Sc 15.61025109683583 15.828780386174026 12.355397894645924
Sc 11.261804609917046 15.686801253860747 15.887656187710727
Sc 8.407936719799375 14.929394425992951 15.47000470561226
Sc 10.294520848953017 14.715755906826095 13.190211916357898
Sc 14.334954354744951 8.887019304787442 9.279553536578073
Sc 15.680900428843026 11.522819270563145 7.783211350270642
Sc 13.186672255453452 11.626844255194758 9.427925403535378
Sc 9.037449216606639 10.787161361741004 10.162001567751796
Sc 15.403643287382648 13.7716197565784 9.836544465835495
Sc 11.168578353461799 13.579358694545423 10.455517710800722
Sc 11.286314866095946 9.408044685194856 8.877894814753695
Sc 7.514336883936723 15.454566615977129 12.47777869236698
Sc 8.419579746934625 12.46295502564126 12.364638064323149
Sc 12.452305695087421 16.750226794983234 12.892617274805177
Sc 13.094243457334164 10.527341969656655 6.708323750218726
Sc 9.421287586997256 17.3512724171149 13.895745526967145
Sc 13.11164079329957 15.854091442929136 9.980362424111018
Sc 13.352860181166108 13.711725221905015 7.4638337280312514
Sc 8.405009601904991 13.937621631690499 9.71466194978052
Sc 10.550804748416372 12.154948433879182 7.765632555852735
Sc 10.034921557652174 16.487441949809003 10.79894319727907
Sc 10.698385148456495 15.243870537415274 8.030520787341151
