46
Energy = -242.04642956 eV
Sc 13.635377317943732 6.494097296888631 12.302524191115548
Sc 14.948615627482159 16.559851949215254 11.134075449035006
Sc 15.804448231974481 8.639888956427628 12.254389918824593
Sc 8.689127631499925 16.68083460066897 9.714894001671357
Sc 7.713720357185327 13.863442031848887 10.91896733058233
Sc 11.53987920986779 6.867777337478254 10.244945542328242
Sc 12.992010385282185 11.951866587363618 10.276090815123858
Sc 9.338776528025008 16.043919633576596 12.673521769477844
Sc 8.4814949303846 14.160256684119744 7.994510577662948
Sc 10.792304014795294 16.014539499425364 7.7094235860259674
Sc 12.062405657606153 13.020803477306707 17.64871691793649
Sc 8.776601906120398 11.320964657634386 9.204980794441004
Sc 11.191283601460462 12.715236374429361 7.797930159298294
Sc 13.682759088395139 13.159806908477885 15.055538517479953
Sc 9.070970135765796 9.997254398578967 14.152631176367303
Sc 7.211696736337532 10.940244026071632 11.825144202279569
Sc 12.604352793250538 9.210764218767654 11.680544389348537
Sc 11.763545547721215 17.080979978150893 10.522032047960867
Sc 10.5998116956759 14.404397271227277 10.324109249381292
Sc 9.942391441346844 12.151561751388895 15.946472760829035
Sc 10.155091302871424 11.720039868018134 11.826883687370671
Sc 16.63484918465045 14.170193444634151 12.390290905264484
Sc 17.767482202993705 11.30994840574452 12.449222133294287
Sc 11.13158188700165 13.950602739299912 13.736435791514934
Sc 9.713388529887018 15.165449895711772 15.914199541810897
Sc 16.720606737219498 12.91205197010898 15.057474822274482
Sc 9.423279413527128 8.911817032516396 11.237608003090848
Sc 12.130537820085948 10.708267991113606 14.178992056430817
Sc 14.194605788767054 10.896398780304539 16.819186023549005
Sc 11.063870517718437 7.660782447604181 13.68389844841222
Sc 11.465187559129765 9.68684041763233 8.779108989159413
Sc 8.203860320066328 13.199149328082497 13.84737950786202
Sc 15.129639022724099 15.715132985940164 14.434079752519578
Sc 15.76638703861366 13.43103653015754 9.71534828633688
Sc 15.901397598177649 10.570666100311183 10.032095147317087
Sc 14.170115235019408 8.217878695111043 9.450417816352214
Sc 12.381018635415744 16.826962781014714 13.46951406130422
Sc 12.662549245271968 15.645341452597284 16.212226364692356
Sc 14.102718642268245 11.35782558373676 7.751157516520455
Sc 13.337835570559982 14.856030901556812 8.830295947164688
Sc 14.94085631672323 13.94597862449953 17.422261659803677
Sc 11.362239711701742 9.552278700258439 16.63968534754306
Sc 13.525100826396168 14.389242662185138 11.98330841722008
Sc 16.294933784270288 10.010425526027127 14.891951162951926
Sc 14.925256348849796 11.570417950046876 12.766782176709631
Sc 13.828237076996038 8.314489443279022 14.833703975443926
