42
Energy = -218.04678332 eV
Sc 13.007572522289596 13.865962537683158 8.222191463352711
Sc 11.083783834815657 11.590109124886869 9.277300559402331
Sc 11.078897935878482 14.440166044155847 10.421210125516867
Sc 14.396966231882573 11.478648628799887 9.4137176792492
Sc 13.844414166428415 16.584834873548903 9.57724574874212
Sc 9.120873401331616 9.441208136552227 10.759342987665088
Sc 9.509252810558088 12.217343558645897 12.091567718716115
Sc 9.179884033673067 15.244704128782839 12.874573338556496
Sc 15.87988646057898 14.234000613475313 8.712260572214326
Sc 12.612242534243407 11.777265952378475 11.745370639360905
Sc 14.897249016070436 18.314161077882137 12.260330884214296
Sc 14.109426185677581 14.232716629169676 11.067752099660163
Sc 7.695110123342845 13.006703062122023 14.285981639352034
Sc 8.198316377357605 9.656746612595118 13.687076353404391
Sc 16.596629724569347 15.881870252605776 11.153494489310134
Sc 10.078418676770067 7.198681087364905 12.607331140472544
Sc 11.780391980460589 13.80429476036142 13.771472941749328
Sc 14.86705892785715 15.899117119843446 13.736646943096751
Sc 10.871747845474012 9.72033569398578 13.064811899452527
Sc 12.036027846244975 16.700320765161713 12.415602307068308
Sc 12.255342718766883 9.008046706822112 10.505261712257393
Sc 10.024653523788542 17.492973531683404 14.634948628937737
Sc 9.738730229580296 14.671534839605727 15.856165117467668
Sc 17.473426768808558 17.545777803233232 13.64084550740616
Sc 12.48472132288094 16.248426190096065 15.76025277326338
Sc 10.117099104224373 11.624700300956684 15.306967537151223
Sc 16.655959715864892 12.616671115350663 11.377717009613521
Sc 15.383756375656338 17.97983021834295 15.684667193320383
Sc 11.307563212314625 8.356988277096205 15.540195953300218
Sc 17.58872271850293 14.384887797878369 13.894208217978244
Sc 14.859720339295016 12.903220087220838 13.946989576662041
Sc 12.724902252832328 18.83300816180103 14.301836692645624
Sc 15.054715947291527 10.023917017425822 12.334667051605635
Sc 17.916436729650528 16.18513712002305 16.28410998616182
Sc 15.338419036091084 14.722969905835141 16.52329226032731
Sc 12.560320295136147 13.21263259815077 16.606697132749925
Sc 13.05616211814318 10.727612978898554 14.70708707425482
Sc 17.172041225915898 11.06444851514225 14.383558400235897
Sc 13.132703213470938 7.820660853825784 13.22501834214691
Sc 17.82159859442142 13.093024072754984 16.580083025036043
Sc 15.270382495443059 11.477654874045651 16.734082141870623
Sc 15.097051580870465 8.74504166530557 15.274253590666685
