49
Energy = -258.01882058 eV
Sc 12.116435567610221 11.369857110980648 18.10576271956259
Sc 12.979061053591204 14.31067503369406 17.171645539648107
Sc 10.760869725572148 15.369654194209614 15.524487749229667
Sc 10.231340710096127 12.603001197217345 15.809168004934616
Sc 15.128122035877194 12.141875902522587 17.761394482043382
Sc 8.303166214772377 14.20225896545304 14.187135897451366
Sc 12.773357284440308 17.43942127877459 15.171493684146037
Sc 7.718959702551368 10.930417896347826 14.654951089775507
Sc 10.085328005246428 17.097612979696365 13.314762162076287
Sc 16.02786867653114 15.066248333519637 16.88459741271716
Sc 7.3623901739433775 12.613738588203143 11.632483142842446
Sc 13.907656225985521 9.344499767787198 16.59394573871029
Sc 11.087225441849311 9.91269307900119 15.454755287746435
Sc 14.497029642182122 15.021507423367195 14.39798041473022
Sc 13.22739196630553 11.951303854819328 15.402100622666925
Sc 12.026716029904373 13.689331123321972 13.290068100535086
Sc 9.770737962635444 14.526640411014382 11.727273088394757
Sc 12.27921011503041 19.125233650715277 12.255844914040694
Sc 16.968513717337235 10.108877497029624 16.456618649330803
Sc 9.789641834803957 11.352336152733722 12.805461968686508
Sc 15.244540078913749 17.87527384144784 13.497121962738593
Sc 7.479398611440361 9.543186781558429 11.956451290122919
Sc 12.894947427523322 16.43095738454863 12.367045736553248
Sc 9.300406055537035 8.317953483407925 13.900706576924236
Sc 14.946250509439603 12.69042500892977 12.064802910134361
Sc 12.572740467204216 7.923537548071281 13.81368455857153
Sc 15.32639818880004 9.735984140703588 13.818898668933274
Sc 17.494879518935704 15.353754975773597 14.32380185035677
Sc 12.665062998776682 10.643839610601725 12.502430857529387
Sc 18.379990090060797 12.925469606891756 16.292183257869294
Sc 16.109282388863306 12.57527112560297 14.833204617861062
Sc 9.046504425985567 10.898432065506316 9.656127543982329
Sc 13.838330585614607 17.545410558137952 9.844091366028506
Sc 10.827698945056456 16.958069357619777 10.315433104711481
Sc 8.8683875258185 14.034442428004551 9.00958663524598
Sc 15.99538354701738 15.576322809990186 11.609057356136717
Sc 10.66119418301028 8.588795531181102 11.311742276291541
Sc 18.36665432587321 10.76916287695261 14.013314542775541
Sc 14.03730142845305 8.416500763706328 11.141233335030341
Sc 11.53114723169404 12.521720617036129 10.101488471366046
Sc 14.458258440231972 10.93143310960698 9.654081639898802
Sc 17.936807533111228 13.17378647975045 12.243256702000524
Sc 16.872981281147894 10.463813594539648 11.225538305281127
Sc 11.903745152989291 9.82240644058 8.840044320846951
Sc 16.376185353950994 13.17544865421122 9.443508372836886
Sc 13.590774092357309 14.567065022657735 10.1834435094393
Sc 10.612274924437529 12.248042187176045 7.2778465766523865
Sc 11.599041526996755 15.104316692753487 8.10123645821862
Sc 13.541144144083493 12.817609423740743 7.658142160845023
