43
Energy = -224.05634372 eV
Sc 8.3173108859295 13.47773077739022 11.16358395279753
Sc 9.503587550607913 15.945120448508584 12.722144725412646
Sc 9.447634348076628 16.055526378603293 9.665469010615283
Sc 9.301573700782981 13.087848510250101 14.330433041782479
Sc 12.032067998657615 17.348285755748627 13.671940479700677
Sc 9.1545945548618 13.538380779342415 8.039734891728202
Sc 10.49692221033541 11.46927063511285 12.094769487770712
Sc 10.625848626835577 15.484562919016755 15.711947128609259
Sc 7.723753601501678 10.520853279235832 12.430700324261764
Sc 9.250175997702087 10.811145671552513 9.611024311830791
Sc 7.928143021645338 10.581436841984578 15.516682309123809
Sc 11.852504651425415 14.365434028937578 13.11585686569815
Sc 10.119178044591347 11.741117618795657 17.096447766509513
Sc 12.22915691623726 16.517679207881763 10.812091466899332
Sc 11.182588597382255 13.656870654412309 10.185060681714832
Sc 14.044721873962411 15.535284490057979 15.063308239142524
Sc 8.173673436197287 8.04991882953707 14.242023491980213
Sc 11.756053853811261 15.23675164307135 7.844309166505257
Sc 12.329944139782018 13.049007154794655 15.6425026285129
Sc 11.71454143050944 11.691778296270357 7.900940303364685
Sc 14.982898830849184 16.750002991957604 12.319667316036377
Sc 10.033733015032476 8.443830673046651 11.821114908512772
Sc 13.263729521401638 11.303674824242993 13.342705669310075
Sc 14.804852104142388 13.820070966402689 12.543377982662461
Sc 10.81287403738066 9.804986072965711 14.624987985124744
Sc 14.626068823354977 15.480432127370053 9.276415726418216
Sc 13.921405109334204 13.32718170982315 7.022982787505136
Sc 16.959982207789455 14.982519509269137 14.019343678025464
Sc 10.694092775576967 6.673934870383509 14.40621360526768
Sc 14.034522089431949 12.56386207713547 9.974952259599666
Sc 12.43838337600948 9.878674780383433 10.339150788150976
Sc 15.283306272866175 12.663267979012065 15.443303394520559
Sc 13.04629387900488 8.213702834545424 12.94126745236311
Sc 9.86208138287965 8.43196546337924 16.9080251652928
Sc 15.230194203195232 9.612999520092433 14.699885218859512
Sc 13.056827245864056 10.489333701049707 16.69391183976613
Sc 17.145281349613878 14.717542227035885 10.930995016812272
Sc 16.625847525757774 13.644346557980866 7.965608400731449
Sc 12.952875583391654 7.6990072506517455 15.923435895785596
Sc 17.09285249631595 11.958504714921641 13.101924247195043
Sc 15.314928492633912 9.96595704410006 11.519193806337592
Sc 14.93923502466716 10.635908351059097 8.134460351338797
Sc 16.96727341521587 11.880764038653696 10.118472283110329
