47
Energy = -246.09408326 eV
Sc 8.109707724369349 12.775392902387987 13.047822727802657
Sc 10.890018876762676 15.624102996158872 16.867525157476187
Sc 10.839835830894643 11.289151214578206 17.482929671949194
Sc 9.45134479222777 13.33383596227093 15.833083774790877
Sc 6.724989938526092 11.90589816698961 10.409580321105844
Sc 12.47421666175638 13.655645753226153 18.812028198572733
Sc 8.480307362473166 9.695175074682409 11.919424042800948
Sc 8.124375910326194 14.583244909401696 10.563625522286111
Sc 12.49663626467134 10.34505311556317 15.066956747296917
Sc 9.511096415417743 15.502882092049868 13.67990277611827
Sc 9.601125772673461 10.660772403785055 14.517927775615203
Sc 12.466893313579106 15.775633143782095 14.37941017576864
Sc 13.733275792297208 10.914760218903995 17.869311682116575
Sc 12.801517367229177 13.196514370439525 16.047898444395823
Sc 13.941985457396447 15.982985501785619 17.120400320648628
Sc 9.85155901209288 12.010778077067084 10.518672549759618
Sc 10.842492450451296 8.015967723767554 13.495775213850303
Sc 8.1959254036435 9.88049390904766 8.873340132115898
Sc 11.27952576292162 12.988255453347971 13.327008622848664
Sc 8.352369376108893 12.727099565623204 7.984423721418208
Sc 10.99028073889253 15.10424618108264 11.026401153896995
Sc 15.596781057176733 13.44757066064338 17.65783107545785
Sc 12.089325657214994 10.176666504784732 11.973728853927925
Sc 15.701717296475211 11.232108194743738 15.533783089556508
Sc 13.095360334860302 7.39835693815546 11.595626317102436
Sc 10.651535760137685 8.533677055007741 10.059137293429691
Sc 13.832771987584625 14.616243734225186 11.902695515686869
Sc 17.01263272369918 15.923589764465873 16.444313746396002
Sc 17.988514251570436 13.251374457995047 14.987138984243167
Sc 11.056350453689863 14.06428253075729 8.11497121987053
Sc 15.082836235054497 17.426946297361273 14.299123506852988
Sc 11.042031636489101 11.001888775905433 7.900213519141107
Sc 12.987951246171775 12.59055892809905 9.924786380119393
Sc 14.685579783485622 8.673800063684686 13.981388682876762
Sc 12.750531449986568 17.543886836149014 11.952498016789205
Sc 15.34229069493434 14.35256290653189 14.579088419134552
Sc 15.420489129164402 9.097978613495211 11.228038363845199
Sc 13.285108871895396 15.944611928210884 9.20757644594292
Sc 13.452047562681908 9.618252866733588 9.09281471006036
Sc 17.72033111397044 15.993079159384951 13.555228276948712
Sc 17.335549401207533 10.624378961668837 12.97583700369942
Sc 14.528745917090607 11.689035044184386 12.721631532525128
Sc 13.868609689487004 12.611587387001107 7.334335548523456
Sc 15.669760517771472 16.745157728033053 11.339956866346723
Sc 15.909470457553342 11.520193297770858 9.788259335628874
Sc 15.66052095838695 14.329593691406558 9.301714226021947
Sc 16.9643216733952 13.543231547132836 11.963623612254828
