42
Energy = -218.20724939 eV
Sc 16.899543207615555 13.759727305830491 12.299598542264327
Sc 17.178204305303378 10.637667998196992 9.845514325430635
Sc 16.103582426610785 8.17851585725971 11.314322163179355
Sc 15.25949735804819 11.162843152986273 12.37227067586701
Sc 15.691191853333153 12.56298920637429 14.979677316834703
Sc 15.435530428257291 9.409107702810049 14.73623864526565
Sc 15.795140855291688 8.269365922690966 8.179835047284438
Sc 15.472896496764855 15.551058118689488 14.29906692937118
Sc 15.454594284422283 13.140172784409991 9.659857863788517
Sc 15.124459062412443 16.26732246538073 11.343154073401868
Sc 13.559468443244631 7.119995790410099 9.807685152753768
Sc 13.426825544357152 8.287521325429877 12.65071404247197
Sc 15.365557221693777 11.079549550329272 7.3364381208048695
Sc 14.158077975047714 10.140469130011162 9.934826098788562
Sc 13.519592280634638 11.160845468032369 16.774702347639874
Sc 13.814041826309625 13.9142929284174 12.346738997373375
Sc 12.856044606629217 13.827413177713074 15.196928227251027
Sc 12.565940710215925 10.837183201869664 13.917258889181637
Sc 12.783561885270947 8.32779909740944 15.693559650855619
Sc 12.739284421173489 16.600692725314172 13.49810099708777
Sc 12.6239864374703 9.268046741080095 7.680568004693935
Sc 10.927561409257244 13.112300051479243 17.32655231948257
Sc 12.638902616666247 12.315548514933164 8.025301781865165
Sc 10.616092153999206 10.330283709167277 16.40855503999021
Sc 10.518253234835065 14.73621944614612 12.144214315554247
Sc 10.409645190436677 8.678692761230652 13.761697495164531
Sc 13.150045714631828 14.851775905808998 9.45898734201596
Sc 9.85866994335361 17.601271023938136 13.0474184409092
Sc 11.74231685757378 12.08081641891811 11.024933360797872
Sc 11.256395974728454 9.076280034448114 10.617375451283142
Sc 11.686231032816348 17.061135895753488 10.643932688279985
Sc 10.199210268102286 15.530647418163666 15.402309744828296
Sc 10.063988425352731 12.617565484077367 14.288855408888645
Sc 10.350208712336231 14.364098970890177 9.051140717236537
Sc 8.065790715322429 13.226049762263974 16.17771346632728
Sc 9.920196491618775 11.217135095861826 8.92692919191074
Sc 8.029879205747966 10.36057342003308 14.969829296407385
Sc 8.566390526564824 16.442567845952745 10.586257093599205
Sc 8.995430204179712 10.810297152932899 12.02062626701331
Sc 8.077199906364719 13.424087935585597 10.741379541925902
Sc 7.816121816392621 15.405885543781912 13.454381666180744
Sc 6.990582239936039 12.624219269645401 13.453939317216548
