44
Energy = -229.08735994 eV
Sc 8.23196778182649 13.838636408177372 15.085846327515934
Sc 7.865192595477462 10.796867551357382 14.800816882140111
Sc 7.92248599772311 13.181089914710881 12.356314545695716
Sc 10.615443670897983 15.297737375051883 16.21756094951653
Sc 6.607129199683835 10.494321677516721 12.094249697754549
Sc 10.547821771879834 14.512885782244355 13.143613802007753
Sc 10.933106463073399 9.3658347301373 15.401608290966148
Sc 10.27027729826868 12.16118256662364 16.75683491485548
Sc 12.686437742436267 14.10884477629317 18.08722675551522
Sc 9.833115003520694 14.26654688118728 10.094285819872356
Sc 13.322285029267004 10.888016209073061 16.58197300912777
Sc 11.859907317357044 17.167805865808997 14.124515720860625
Sc 9.09759687160238 8.999500669840554 12.550257294600891
Sc 10.330566085814777 11.623575605929066 13.64337247211705
Sc 9.074755749931024 11.20294088385108 10.403297248159499
Sc 8.777953860581444 16.459062691042437 13.135549305868645
Sc 11.892125777870035 17.40962154500331 17.742283552282725
Sc 11.581947245580686 9.435670825513672 10.038323344833833
Sc 12.550576580496742 13.378385959059925 15.207691215700327
Sc 11.994040820801153 8.809027366909918 12.808766830168981
Sc 13.780611873921515 11.187046773721645 13.538500332012314
Sc 11.774277351234787 12.268757419332735 11.239925895013686
Sc 13.744921599635342 15.98589468581713 16.118270878553787
Sc 14.393957314450555 8.635664956920207 14.602507990185757
Sc 16.870446668201 10.56625284400479 12.576480703250832
Sc 11.704787918129206 11.941111260621303 8.264210566608687
Sc 13.260740812510821 14.75714764457541 12.562819032246615
Sc 11.524596480391242 16.688859332712607 11.16833159460087
Sc 15.453654339504352 13.617989675412753 15.537781260082511
Sc 15.798451650120198 13.388848241389606 12.374805011317488
Sc 16.20923220350088 10.846821079091152 15.507856267853839
Sc 14.294291549590328 11.999213502641313 10.090354397025985
Sc 12.953274270314152 14.594042168971274 9.326737363792843
Sc 14.033571332917258 9.797387159373631 8.11640995583528
Sc 14.492743246772896 9.1710601500712 11.208801696231113
Sc 17.51580559188745 15.732361393449061 15.510228268230321
Sc 14.97982956541898 16.378878344107623 10.815538011634047
Sc 15.314030010399511 16.527281489825917 13.773534130263783
Sc 14.741907570678848 12.560835427215544 7.308670569938453
Sc 18.166083653181943 13.00232736691985 14.164835848348018
Sc 18.530187910889033 12.73885762086209 11.157636204201305
Sc 16.756190350795976 10.883647451004265 9.334180451970333
Sc 16.428946981989224 14.062462296564453 9.397218220638736
Sc 17.75459706071863 15.520333563289514 12.336045598877096
