47
Energy = -248.37978909 eV
Sc 7.228288952507578 11.956298819778027 14.029607203466462
Sc 7.145582518011266 12.7187955517634 11.141250737651685
Sc 7.178429490948628 9.825859030250315 12.03166973336047
Sc 9.287173628054257 14.028988452234646 15.17250956539133
Sc 10.90892089010689 16.49325631637169 13.702991039107639
Sc 9.42899995966912 14.496403789159329 12.080403413274423
Sc 10.430266474090027 16.91843862836643 10.398880523770744
Sc 9.20143537518886 8.947900591988224 14.317615260787784
Sc 12.743679727942562 18.238427366900922 12.169188898851704
Sc 9.178370057446685 11.19712267307901 16.18436009933094
Sc 8.904555026610723 10.975417548496633 9.501539058938903
Sc 11.606643624943455 15.717860924180592 16.441084076772356
Sc 9.677710331201887 11.427214350467755 12.580447468684014
Sc 11.565826263717508 12.700403823352657 17.077095256698584
Sc 9.024159346561667 14.154808925099923 9.08585186627965
Sc 10.043565753272421 8.576934437779258 11.295454087998516
Sc 11.936559606542653 13.526295549638856 13.978492838624916
Sc 13.884316536623178 16.97651752083946 14.715591452277527
Sc 13.248200101054637 17.609184179543334 9.356937274743997
Sc 11.91946248641991 14.994738839506207 8.28814528662985
Sc 11.358736213842036 9.115500171621346 16.987703438282445
Sc 15.402259510397032 16.91532465900881 11.824476186311976
Sc 12.727645769890637 15.344059895287236 11.238408672332088
Sc 11.7903849226916 10.6015100379024 14.773433043280015
Sc 10.610807271179134 12.332862422664828 7.276611330766147
Sc 14.736076824455003 14.455831221620452 13.414001932980534
Sc 11.384711983562077 12.633018014060314 10.1474151675018
Sc 12.021393055399598 7.732429170255037 13.570775645306982
Sc 14.215309801441546 14.253190080423114 16.334264040344518
Sc 14.620131955915637 11.415063826351211 13.963478096097013
Sc 15.069199286761538 14.987246192770044 9.187711848755784
Sc 12.916320527680266 7.446214058756423 10.608327939529431
Sc 11.768934717697707 9.864225261692036 8.861844907952175
Sc 12.58997901542958 10.151126199981832 11.780354106140248
Sc 14.205487089840208 11.110759516245496 16.970661597669697
Sc 14.502321800285669 12.601380660476051 10.981510845785023
Sc 16.829012017855813 15.629386627853963 14.831511197481234
Sc 14.101687182295708 8.634746708369862 15.507012460783685
Sc 13.69446595014624 12.317535591520475 8.067810288145155
Sc 17.074320706215417 14.23630541242945 11.461506325279128
Sc 14.87156453691757 9.842202930871162 9.74099680915628
Sc 16.777984580892195 12.848793330049856 16.692991080877277
Sc 15.015081704276698 8.558224880279061 12.668960537438565
Sc 16.813328843340834 10.065862611619156 15.209176209179086
Sc 16.708818835244074 12.328059115526923 9.022112148590328
Sc 17.431964969547227 12.796301230122172 13.999663604988022
Sc 16.905410644537866 10.947560850142354 11.821582868804521
