40
Energy = -208.95949438 eV
Sc 13.499641776333128 17.515198215129892 12.456949434806644
Sc 15.95862444006258 16.326228702756463 13.682393684356219
Sc 12.330693831972422 16.33574709568168 9.580218521671151
Sc 15.161795582458392 15.516171625478849 10.756281124664602
Sc 13.533195123098913 16.53754290709852 15.415935429570153
Sc 10.865451667013206 15.939456199716984 12.182780258242383
Sc 9.606876725453159 14.397514156649756 10.033271515721644
Sc 13.572075263149554 14.570912149097184 13.15185467520657
Sc 14.361971929026732 14.727467568851516 7.859540019059174
Sc 11.585676392999554 13.832489336111472 7.336132249327414
Sc 10.918552840231628 15.028352873148503 14.971380243524239
Sc 16.362182402661144 13.35926788726517 12.776828844973027
Sc 15.548877170811988 12.61037851125478 9.820744125579575
Sc 12.552759211545109 14.036970646614048 17.34992122053644
Sc 15.26842855892618 13.957149333662944 15.652124989536878
Sc 9.737348639937133 12.475983663617615 15.757153959965768
Sc 12.786327523845715 12.14110456992434 15.156756668812632
Sc 12.645831728864529 13.570925270599378 10.2050679677357
Sc 10.667418656334096 12.842205282619856 12.632639264982473
Sc 13.97030493533562 11.534895705597778 12.224898865581434
Sc 14.469881883865474 11.617366132704904 17.58005655837354
Sc 8.328420748145449 14.13138224136829 13.214224419629609
Sc 13.579518833105283 11.524840645371555 7.773357848580917
Sc 8.587206306499382 11.368937700545024 10.942663705952967
Sc 9.615457461780023 12.002272750226597 8.334799112860663
Sc 11.658329354342206 10.678887022500666 10.062680748543015
Sc 15.545426718754879 10.886082717285325 14.763015629838554
Sc 11.088746804227627 10.64475542611129 6.361752481174697
Sc 11.568102993817295 11.139682895313715 17.841005929041874
Sc 11.490122057154911 10.032277481786837 13.171005614069175
Sc 8.260341561965694 10.94365077307423 13.792066838623159
Sc 14.54773140154022 9.551109210575259 10.026897497144448
Sc 10.060083559301063 9.413889780801327 15.668350361931898
Sc 13.102282780401417 9.206021121450355 15.903221500034219
Sc 12.499496466726207 8.609761380086958 7.999035372703144
Sc 9.21661348930916 8.57792683723699 12.167198884751205
Sc 9.598897846143034 8.985765888607535 8.912214294699687
Sc 14.093365725482515 8.533304373469422 13.05690619979491
Sc 11.943111876763282 7.803075690106187 10.941059348444332
Sc 11.417775043438235 7.199600855760409 13.985906101996129
