45
Energy = -233.74346626 eV
Sc 8.817998090310681 11.078125853087043 15.342153866971184
Sc 9.493093735445312 8.652863021921101 13.32394752235732
Sc 10.96304390180464 12.625076286744392 16.92384572307599
Sc 9.066270448209583 14.085015264926554 15.012508828130956
Sc 8.77029106865812 11.466466110589113 12.428450852444849
Sc 11.500668243695394 9.78252904091639 15.2992280325667
Sc 12.244377363127644 7.468987412302207 13.239330248008397
Sc 13.218429422347468 13.710758145465988 18.863715443584955
Sc 9.476443265205182 9.173196478846464 10.362798286194092
Sc 11.101912436275374 15.674874627192091 16.930341958117655
Sc 11.474055393064942 15.765657192496896 13.799108142335395
Sc 13.808249311813265 11.4050196928126 16.58495592299955
Sc 11.330335102907457 12.599626157013507 13.97422467268427
Sc 9.474368110043956 14.363041933346635 11.89111061175833
Sc 14.348615989920884 9.478600119971015 14.089587894046382
Sc 11.614486293327806 7.2955628559083765 10.449808918883996
Sc 11.863209814017601 10.293537056942801 11.989643342425298
Sc 15.653387459477788 15.211945272934983 19.98522527156501
Sc 13.568105271815945 16.608760268913315 18.467916965376673
Sc 13.531278714021678 17.3968551097257 15.48230012370205
Sc 10.140678377086596 12.100323196380788 9.818933002737452
Sc 13.620985674971177 14.420832829024624 15.955798501479688
Sc 16.13428270822939 16.23634548746521 17.074849606546703
Sc 12.294002429009431 13.714746004498085 11.221463669099018
Sc 14.066306684412075 18.463447657049255 12.415768693896084
Sc 14.42968571165374 12.378737704592277 13.48965165526287
Sc 12.260406995902674 9.94418740007037 9.03812513095628
Sc 16.06583134027365 13.280056521537471 17.67909420080042
Sc 12.2027727077544 16.79068824606353 10.626052664241087
Sc 14.294528445271805 8.676840829423352 11.135003152217047
Sc 16.58995502070059 11.174954203186193 15.367593841912358
Sc 16.49995200759151 14.29743712969563 14.795126783297412
Sc 16.29389954315674 17.504088140931167 14.249158639284186
Sc 10.374221184273182 14.999271281403196 8.99590739908296
Sc 16.741447500008245 10.692738044287244 12.464490528885284
Sc 14.398198126869426 15.545846176336866 12.83608977582316
Sc 18.65698772462937 15.730292110669515 13.503226487900145
Sc 12.599290854387993 13.161944281249317 8.303228703087388
Sc 14.502964138105602 18.08604640116406 9.388983460872996
Sc 14.477573361231599 11.730659790502996 10.445708652851819
Sc 16.62303434294222 16.953725379942068 11.399786164087175
Sc 18.80125324562051 12.661324625968346 13.942618319914995
Sc 12.776866566934268 16.27786210856593 7.728824256820418
Sc 16.87068254368442 13.768009002283929 11.823917033889359
Sc 14.680523686870616 15.068920193952275 9.697447264600017
