42
Energy = -219.25884664 eV
Sc 15.98327032628564 13.074166632562497 10.113853706883402
Sc 14.501763365573327 15.9279731160082 11.049325344509777
Sc 17.65442934246525 11.344059807663827 12.201217205154506
Sc 16.088769553905596 13.932603194278938 12.93625920760115
Sc 16.125293685522706 9.913032238189997 10.046572778281657
Sc 14.798806276543493 11.584882336073308 7.882197976633086
Sc 13.831076847009458 14.480987753221294 8.087931969651112
Sc 11.924508510956274 16.115446134138622 9.477571755857964
Sc 15.174152639575887 13.47927693976822 15.692797556692293
Sc 15.977613652147745 8.731512418579653 12.894122492206812
Sc 14.662438194252474 11.340397018355853 12.695901772534587
Sc 13.154524695410982 14.73232325956559 13.856832180091073
Sc 13.067442954969385 13.432120375247612 10.890633085955056
Sc 13.169742676218444 8.940671479584797 7.903198753093812
Sc 11.9169478362468 12.113210755670945 8.026728158017571
Sc 16.577396642420435 10.995191574521645 14.988770643542406
Sc 10.521221558802877 14.690800810680663 7.488244233938664
Sc 14.407392165621653 7.464183741167241 10.3979336911673
Sc 8.852192049430965 15.886436513113743 9.931207610298626
Sc 11.176493370388245 16.21014944394108 12.17805952726036
Sc 13.128441656007261 10.311342994478728 10.254405527116436
Sc 12.558821857915653 13.83938382827247 17.15958541467558
Sc 8.359500649073684 16.34478152849362 13.102000318573193
Sc 11.54374895717416 7.587575824577026 10.113335011040382
Sc 10.199552197177246 13.372523876222429 10.367727529416031
Sc 14.87330487494748 11.448151638527518 17.658841337049843
Sc 10.403461479190552 15.696130141431293 15.423836550453522
Sc 10.037660841738209 13.717007729566484 13.475148084001065
Sc 12.645820409915766 11.966127946324582 14.964961528172351
Sc 10.127227278191718 10.171147232880854 9.388852574513592
Sc 11.048704263505808 11.110689614295817 12.314159940305245
Sc 8.23824580612168 12.869764875651924 8.522478387832479
Sc 12.69692502307212 8.474796716406766 12.824550651839253
Sc 13.9846175286772 9.371638043226465 15.524937282059378
Sc 12.045714029742918 10.829512582720634 17.646245801890583
Sc 7.4160748016167695 13.805967187084926 11.86861045877509
Sc 9.905502603637139 12.55647684245391 16.25901949899352
Sc 7.631425347935703 14.27242840294243 15.073908768630778
Sc 7.961967123713874 11.072547374327 11.017159192439316
Sc 9.505496757595154 8.686098540713688 12.16730247047167
Sc 10.737570818563494 9.60377193109778 15.042430181922034
Sc 8.268602356386754 11.287380067530547 13.92368046833786
