45
Energy = -234.54499396 eV
Sc 10.539359250549563 8.469223344457456 12.9062223341971
Sc 12.662094324106496 9.277309375829503 10.76500065490176
Sc 11.898722264189155 9.066113414350502 15.752638151286991
Sc 13.35862259235609 7.865543779719811 13.408415980682742
Sc 10.044394121502139 10.997287688369308 11.219522423615768
Sc 12.144059722343297 11.898190227592387 8.971600099678463
Sc 14.426783371368996 11.88894142754092 11.260133546739127
Sc 12.327804809272296 14.01803900301004 6.60691374546211
Sc 9.662816991281431 11.167643884518037 14.473445945457195
Sc 9.717314069506129 13.607851325643592 9.233797048132974
Sc 11.751534106828911 13.45056929905206 11.537067413540969
Sc 9.073124671119455 13.681389743058752 12.75727671916646
Sc 13.784799861871758 10.08034112360518 18.350549327995086
Sc 14.796433764948237 13.300560922379685 8.37756182102849
Sc 14.725538491953625 14.940038008400856 10.84487475303948
Sc 15.562690503100773 9.958554107353574 13.35468118019047
Sc 14.083664896876947 11.329509644120145 15.733550073403329
Sc 8.913475314933823 14.058227332863229 16.006590657113666
Sc 12.356381735349476 10.783997296308117 13.253792524018744
Sc 10.314735509190198 16.176375627296917 11.14681753289236
Sc 12.241760702094117 15.04774916569737 9.154873042906802
Sc 12.330954180112926 18.434468895810866 13.501106223316437
Sc 14.938150637490956 8.479903247500706 16.001296292453492
Sc 17.334695079031064 15.776626477238823 9.758347834033959
Sc 14.850934071832127 13.487275812815522 13.862157649387207
Sc 11.661085538195561 13.630555119847255 14.783889658219955
Sc 17.14548443926774 12.869288302069062 10.526715262412285
Sc 12.94191910822882 17.6377106171272 10.469484111446853
Sc 11.076671143769415 14.74178059021248 17.887582406963556
Sc 15.357303744149384 17.577803829150323 12.130292911938398
Sc 9.383782840519592 17.07109789823661 16.902037458242216
Sc 11.289384861165702 11.794104800568869 17.206641989237742
Sc 16.92615239364268 10.790287460053671 16.061358021571042
Sc 19.526988773374207 14.191668465751908 11.414637481133948
Sc 10.054836270696565 16.206632976323238 14.141555074267915
Sc 14.519995699492041 16.194067121503398 7.9174042395074675
Sc 13.096025271910321 12.77608002387257 19.484534583196766
Sc 12.333505065138617 16.66569272301272 16.048406578100163
Sc 12.95144446066925 15.8313160130865 12.998288355221373
Sc 17.139488079940644 15.19028784879659 12.785421469394336
Sc 15.22838355998075 16.397164720342822 15.02651279067013
Sc 17.676868950752674 12.265627677772983 13.349527060616829
Sc 17.026412925163147 13.819450672616172 15.909940546291173
Sc 15.886910013907722 12.247633115238196 18.455072558158395
Sc 14.020026597016923 14.141334042001832 16.937301011787856
