48
Energy = -252.44130473 eV
Sc 17.885269042339623 11.585946920867405 17.806825827465556
Sc 19.1065483519932 11.905051558991214 13.695485590455748
Sc 18.487497674069896 13.836791208010068 16.03613967998191
Sc 17.22152705458078 14.47255755579529 13.253890803279235
Sc 17.91242334410056 9.636717789369715 15.620553192474643
Sc 16.36681859306207 16.16072830024593 15.855509011949513
Sc 15.038547008872873 17.16731287514131 13.110554459351812
Sc 17.674086508856373 12.489645886766503 10.750986268001238
Sc 14.352394809123604 18.482855899304905 15.748146347160185
Sc 16.48881780175614 12.010572218739563 14.929569604104906
Sc 16.978166578077442 10.032589501651954 12.605857929474993
Sc 15.645451040688913 15.258547825288472 10.600835948743846
Sc 15.664864092087752 13.632122080246516 17.4166053098633
Sc 12.698275530855241 19.29534998729133 13.470535357194674
Sc 14.82142191865086 12.699912175575813 8.803295513650948
Sc 14.340671368224504 14.426071834481506 14.588808138500132
Sc 13.337767395661983 17.809274030714608 10.48721908342248
Sc 13.48001789730402 15.982114339551796 17.196310295439655
Sc 14.960208515609652 8.898653542147706 14.708953633182405
Sc 15.88246234572286 10.190609872463694 9.68506913306924
Sc 15.101959127781235 12.522217564237375 11.94734223229171
Sc 12.268072205459971 16.629030568010993 14.453581783757045
Sc 11.425012215917928 18.458892411017032 16.466295730869213
Sc 13.30328303799126 15.121048073497445 8.82559289973524
Sc 10.68297972253978 17.82877681465189 11.887798730981764
Sc 12.617762997970177 15.310653305227289 11.707345097779772
Sc 14.999193502687582 10.616918458282392 17.175107842345003
Sc 9.345014494724111 17.23173673772023 14.666079992110403
Sc 10.518454313404819 15.302778401420488 16.669257217746583
Sc 13.909895934611951 9.615257219032546 11.804162484749224
Sc 12.369371850993144 12.468205211124552 10.793269598811635
Sc 11.361908565935316 12.96456945135877 8.055441117598924
Sc 12.552751272095767 12.870204407853187 16.868442656350677
Sc 12.793457578283604 10.23649603078868 8.914659848242215
Sc 11.133276223448732 13.672671565908658 13.95003561362884
Sc 13.642862741146793 11.546709957072661 14.4200458572854
Sc 10.64828481668738 16.101897729114675 9.398412804410924
Sc 9.586729785390268 13.55524474575903 10.359640106951895
Sc 12.075601749868339 9.609315429681116 15.93826450599637
Sc 9.046748743099691 15.453456321180841 12.384844952410639
Sc 12.200747425229547 7.743068242282548 13.649052978844724
Sc 8.258677504461158 14.20248221822821 15.011897771070595
Sc 9.917013786179618 10.698285561417295 10.11371008477152
Sc 11.286770569066732 8.218955834650712 10.950647278523238
Sc 11.32631623729299 10.621640521086627 12.936707495736112
Sc 9.777033957344214 11.565512457788898 15.554327364293256
Sc 8.641825965440756 12.0811488868544 12.777874473343935
Sc 9.358695916843004 8.904950575466097 13.477953728024847
