49
Energy = -257.28618437 eV
Sc 16.997745781138406 13.148443037705984 16.92351319092122
Sc 17.218224030167427 14.977965892289054 14.396748118457497
Sc 17.852289756887735 11.948681138963995 14.157323094426102
Sc 18.467158929303146 13.846547011524642 11.706025995254096
Sc 15.765447367878938 10.411315195019663 16.053440342688354
Sc 14.608868706067828 15.082557648207256 17.54071263847934
Sc 14.52414523533199 12.096633271663379 18.253516659973478
Sc 14.517707202579302 13.138794478856662 15.334982227881792
Sc 17.631192554585343 11.056398583482633 10.967663592617448
Sc 14.556357698104803 16.490147633700865 14.721200754207715
Sc 15.707052738521467 9.928461355789471 13.14957398198958
Sc 16.3491921255554 16.002040830669714 11.47401108778137
Sc 16.11593826310834 13.485209998337563 9.45867961556382
Sc 15.65983400093065 13.178500218187642 12.436730522596719
Sc 12.713720958891502 10.545134682968337 16.153320510564487
Sc 11.886681401689664 13.396794607878665 17.118152139077317
Sc 12.97893345855896 11.426645254217224 13.118066915233987
Sc 14.729936871690898 10.955604559362323 10.520599263232095
Sc 14.113739631403739 16.053731894417908 9.289739445085694
Sc 13.372061434329797 15.771065515232959 12.133243806020785
Sc 14.409011046445045 18.355966985266264 11.835412772033758
Sc 11.825121121426115 17.753959761812663 13.678032240995002
Sc 9.817806409823074 10.873862340200077 17.382893995120504
Sc 11.980975638827134 16.369242736499388 16.4738062196751
Sc 13.126671544220672 13.364520163886155 10.644802189187558
Sc 11.820959135924769 17.74252304556348 10.435337864928805
Sc 11.886457088452765 14.435214767902263 14.147909929763756
Sc 14.042767097705187 8.070684185555281 11.023974892172392
Sc 8.807987097148244 13.604291671777966 16.532600357880856
Sc 11.90829959725139 10.258388082181314 10.035537683007261
Sc 13.06903064635123 8.491753190908872 13.908585702491038
Sc 10.276500629043841 8.806734966786781 15.087607117003945
Sc 7.843835942570142 10.797447563621763 14.633380383433328
Sc 14.14123285733547 9.51109659478849 8.022312068768661
Sc 10.394293746502312 11.941287897116226 14.748904409072267
Sc 9.433086125119432 15.951632655916304 14.854733197552545
Sc 9.937452515681791 15.937110489074001 11.920024848133131
Sc 10.300125799817975 12.936828179881667 11.575156768705991
Sc 12.843005056224772 12.419519686472862 7.926334172788223
Sc 11.024491945935754 14.946709180237503 9.1576450545495
Sc 11.109246612826166 7.33872619378986 11.795094762823869
Sc 11.911156356971825 7.455908501562514 8.849673606751791
Sc 7.998865382018064 13.70169640919252 13.371849369392967
Sc 10.148484140355029 10.00783908581883 12.501048146947763
Sc 8.046780157224536 14.252625374902895 10.20238332161245
Sc 11.18663476476713 9.843260596133046 7.163478533409087
Sc 9.280501937376869 8.960976665327257 9.614455529716613
Sc 7.740016032261883 11.410518374619716 11.259336386048298
Sc 9.661980166237834 12.027803424040115 8.756715848773483
