42
Energy = -219.3440543 eV
Sc 7.975629156878282 8.807090960310418 13.448087632325992
Sc 8.175330435031865 11.582093854274722 14.604683737883086
Sc 9.452393729713782 9.01496933429159 15.988964309329399
Sc 7.599338666398352 11.177552005463514 11.3995663566707
Sc 9.635636042224471 8.790834686908044 10.96266155379415
Sc 10.570684122695079 7.317861661624039 13.66712665734522
Sc 7.116115505484898 13.895289953720638 12.769055126651137
Sc 9.432273383030779 14.443223383028686 14.905744633273613
Sc 10.76768798506709 10.242551556988465 13.55351643271262
Sc 9.447546946728504 11.14882431475569 8.900837047277827
Sc 10.79822011942867 11.791876770923615 16.283518114093965
Sc 12.345366695763929 7.261428941222078 10.768669916152842
Sc 12.617779413449806 9.269670250358171 15.846859782619145
Sc 11.10043558615 8.682000665850657 8.300490832584819
Sc 11.550602274900525 13.188873891036161 9.630243739634707
Sc 12.56929954184062 10.24347553231132 10.488135663084627
Sc 9.890684661119087 12.918986792766129 12.213025841512062
Sc 9.262284433325505 15.922919085264256 12.221822673543732
Sc 13.52297651981615 7.8275324686093715 13.515994325725249
Sc 8.31019097055757 13.901187464896653 9.878333083300348
Sc 12.23945199430536 13.430932818061374 14.101559840219902
Sc 11.868440677748355 14.632931326370201 16.854494339182008
Sc 13.977699004138975 12.078879422367018 16.251317376682525
Sc 15.861938768065114 9.615350934997531 14.723806480425214
Sc 15.204846039805142 8.617873913695039 11.307642625924657
Sc 14.009634237490515 8.500224531941202 8.397775525125079
Sc 10.120299917818949 13.643160065069276 7.16652683361678
Sc 10.234337255712301 16.10040518476954 9.200467495514216
Sc 12.101615321146738 15.46050685529052 11.492017930685764
Sc 13.857158201243564 10.817777841900323 13.351535026348065
Sc 14.163919099555937 13.133992822502943 11.443200006185167
Sc 12.667894935471914 11.344991272832921 7.549553874234862
Sc 11.887084070130499 16.422066951322797 14.357767545401371
Sc 16.65631638085225 11.093322668732293 12.03998465914516
Sc 14.373911257775863 14.98036078081804 15.45696674728448
Sc 12.510725907850857 15.262177106543154 7.675715297709314
Sc 16.089316562622347 13.022647234074373 14.04960208960604
Sc 15.43228885908047 10.99529001319594 9.374315423456194
Sc 14.428661630181566 16.064777714058078 9.777803197989641
Sc 16.750920012070544 13.954980306833367 10.796387627796824
Sc 14.921337336691591 15.844513776292812 12.724643277668633
Sc 14.692626188376233 13.53943655748084 8.43299347824335
