42
Energy = -217.84768419 eV
Sc 17.26851657622976 13.58066971488845 11.400596596081307
Sc 15.206495002045495 11.734601989993816 9.362423642065563
Sc 17.730277528073564 11.96509418967001 14.201110975777837
Sc 16.68955143056375 16.67000348294564 11.863227233895413
Sc 15.529179297590623 11.318206610828737 12.301864514372134
Sc 15.054143476398577 14.87177863988941 9.811170827689079
Sc 18.017550381020826 14.92286206368837 14.02892259637609
Sc 15.84198997498268 8.732140062879166 13.570547512065898
Sc 15.01641321392997 11.221109813840991 15.341200091336304
Sc 14.157126939805154 8.963158592086648 10.833490124857438
Sc 13.102687085456822 12.913732041657925 11.354908805544182
Sc 13.043680567940164 13.367452231749965 8.234162905412804
Sc 16.37097639895083 13.879823453925166 16.46365401745935
Sc 13.704785143074547 16.200623586381077 12.434788472695908
Sc 14.735193764796355 19.028902350325332 12.750517934614663
Sc 14.33644137426466 17.97033851388602 10.070999773900525
Sc 15.173503595347302 13.960947836156043 13.77980251186619
Sc 12.126258554547288 16.032279154930727 9.48897681853642
Sc 13.281385807076164 7.065986469229253 13.1409884367842
Sc 13.783532258446835 8.391998058297029 15.838322606808429
Sc 15.827094792609843 16.86649332689413 14.892412713847696
Sc 12.065545617699655 10.709049818801624 9.493369808285571
Sc 11.76304354482717 18.17559484289287 11.954351348054544
Sc 13.03838927950016 18.097383450282997 14.904214608193795
Sc 10.294873007843758 13.176984143781114 9.321856702154438
Sc 12.918566593441001 10.043911484352858 13.365820974675575
Sc 11.055226422624163 8.540065244833993 11.434654448803734
Sc 10.848154482664212 8.276902836969306 14.669308461152763
Sc 10.160520969606667 11.582633694090667 12.194619066968691
Sc 13.582689684801114 15.282387092739327 16.368261610198665
Sc 13.61878668540875 12.53924063144875 17.54911973376364
Sc 10.7066329785002 14.912550883346869 11.789920510609992
Sc 12.26131326287432 12.781255347379957 14.600120362172694
Sc 11.380780983475171 15.693754194804562 14.50235064604836
Sc 8.522622709821162 10.586345502419347 10.134091759989289
Sc 8.421693375318192 8.967471860235326 12.820649597816706
Sc 7.968450897512377 13.612777042440257 11.014583591015823
Sc 11.769319879654978 10.501445514159101 16.657291732538688
Sc 10.765872472603064 13.525645498235608 16.87827614997328
Sc 9.005535610799571 13.78788320565317 14.11554244531305
Sc 7.193681297708393 11.572270739931552 12.85794011957071
Sc 9.247453790685164 10.925452475946317 15.106236377549115
