42
Energy = -217.10907719 eV
Sc 14.163099679804915 16.171452821108286 7.091882764351619
Sc 15.53591584493269 18.295350032579673 15.93741576837429
Sc 14.977056150912693 17.257850082025957 13.142341581611444
Sc 9.799294839958458 16.187738399436277 14.218460347590518
Sc 11.837243385172988 15.732316586166009 9.144198278495214
Sc 12.197895223018822 16.161117808016513 12.197137207928794
Sc 14.596165159597103 16.80202912911955 10.008968097510236
Sc 9.435404749029487 14.965518205901688 11.131515368143205
Sc 7.794599710796408 13.971039608865512 13.436917574690785
Sc 12.752967832532917 17.2420043766406 15.12748032295251
Sc 13.295223685842188 13.481804126426324 7.638659798466573
Sc 14.508888000086165 15.684727338768928 17.114292175998056
Sc 11.572143492310092 14.91748858923215 16.681425737528457
Sc 13.930050612144449 14.047831664241524 10.692976101617248
Sc 16.468498778827637 14.965619599840771 11.86935844391956
Sc 16.080774447182822 14.467778413298761 8.653060424415104
Sc 16.736430152696354 15.649537695157738 14.980148141806264
Sc 10.551863166243557 13.030801780316548 8.916119131295776
Sc 8.615424949743868 14.216186687417009 16.29665061969217
Sc 10.681201580630157 13.395221791243758 14.238088478177776
Sc 13.998827677450675 14.483603586106895 14.147660569634231
Sc 16.718642668614464 12.491004456013995 13.702665748654663
Sc 15.719310706617389 13.126695433424292 16.44334537817781
Sc 13.214564278957065 12.904159944661425 18.278394898179716
Sc 16.2697900379494 11.924977318263545 10.590254015690164
Sc 15.573043986352141 11.575096695240815 7.6984861500577075
Sc 12.939829216175447 11.66282547508725 15.471458831650844
Sc 10.487247130739647 11.917668812041292 17.17481471122467
Sc 14.07623048831784 11.410576361580498 12.711570332350579
Sc 8.814190280107189 11.895401455247384 11.531835470526474
Sc 8.621425195000592 11.319597498643239 14.779537028450259
Sc 13.237181269954997 11.064256180617553 9.559859951952467
Sc 11.127757728829526 10.347546365233264 13.14632421592587
Sc 15.666089515714116 11.31416844513686 18.744581860551968
Sc 11.578885995485873 12.838098693460836 11.55843180271571
Sc 15.574990316464906 9.148692667009998 9.609336737600222
Sc 15.7502568992909 10.271926861360491 15.811115500620813
Sc 16.094869364849036 9.326819543831274 12.666608039128052
Sc 13.274409913690853 9.827879282489029 17.710667918504406
Sc 13.557874665224434 8.723118651964187 14.57990408104342
Sc 10.79961768161301 9.270870910468178 15.846502437910019
Sc 13.366708501184824 8.655567893201665 11.571250189243619
