45
Energy = -235.55870534 eV
Sc 11.853659339183947 18.550470065602983 10.278602418038002
Sc 14.418379316136846 17.897995295913294 12.05820720736408
Sc 14.018666590932662 16.077409791902515 9.484469264113475
Sc 11.628577665543014 18.642957004355043 13.221641200563642
Sc 16.651592415171045 17.36667955897244 13.97821256951153
Sc 13.747661964852957 17.73679400735874 15.218825834660676
Sc 10.762188612532972 16.08257620609122 8.970183880427651
Sc 9.43534046820357 17.095098229644435 11.79352462978721
Sc 16.289492460724407 15.294374237114905 11.428129439995622
Sc 12.056094500381569 16.014958256775202 11.745177385231761
Sc 14.414552354479326 15.327648772947331 13.820485389592026
Sc 15.895262193138633 16.029643805069547 16.48284187390385
Sc 12.583592309949033 13.83572736856309 8.381541883210389
Sc 11.1204770769055 15.944621025524814 14.647559886996493
Sc 15.388213483383282 12.880432443976973 9.116272855703597
Sc 17.239454511799856 14.324701271168964 14.307172070026994
Sc 8.24533946162119 14.89390605480703 9.995865474974336
Sc 13.145701833738695 14.578169924441873 16.498061092114874
Sc 16.834220725807096 12.25736960406613 11.941012841546492
Sc 9.61977742997626 12.672744778019664 8.30785352742029
Sc 13.809136831189802 13.350056962731447 11.34578150821465
Sc 10.672783422119675 13.503176939499816 10.79645819151013
Sc 12.398114195907262 11.058902619245574 8.830053202158753
Sc 17.76674400780302 11.436657907861955 14.910502540545467
Sc 14.930150082672126 12.136747752976845 14.220413560460692
Sc 11.603866911783225 10.907332319687365 11.69743176035605
Sc 8.060755385186296 12.16166818618953 11.038435000228125
Sc 11.838250569821705 12.818453265024429 14.113930490597465
Sc 8.97995813345797 14.238913457201585 13.18235559289206
Sc 15.841923712187159 12.97845107615724 16.91951819134804
Sc 10.05991873320362 13.067775870264294 16.1847999197735
Sc 14.515979336955784 10.210754884487201 11.128601438976025
Sc 12.9128829426781 11.586513431909829 16.89909727840761
Sc 12.140975612784032 8.417121869370238 10.136514620376554
Sc 15.647241738995271 9.91192096578155 16.4167432101462
Sc 9.167572036786899 11.192036879057596 13.597635788699103
Sc 9.575667652154882 9.894188057696674 9.978013847361034
Sc 16.269501362700403 9.193013784004014 13.38889725241632
Sc 13.19182311255122 9.56951137371566 14.21802074074362
Sc 10.549133375995488 8.367011678136464 12.7601170293197
Sc 10.634647131761659 9.841153882867795 15.738694812929927
Sc 13.682775348355168 7.273993604853091 12.479072706423866
Sc 12.97915305365811 8.544340008257443 17.24870555200786
Sc 14.85813548994963 7.160481568244265 15.286567768179356
Sc 11.866123478718542 6.921106185608402 15.058613507922814
