49
Energy = -257.06150519 eV
Sc 14.500538465649639 10.781571081109448 18.336831430235353
Sc 14.082910099015624 15.046972977449748 15.790374674165001
Sc 16.820836228669037 15.168272671280384 14.517407813349216
Sc 15.93488984559117 12.740580026811717 16.374310617256192
Sc 12.496844309320528 12.97909959935168 17.25589626904982
Sc 16.374001950268923 9.635295128913919 16.04992542140219
Sc 13.5266162624169 8.14865287908806 17.39651678629968
Sc 17.71561115208309 12.086220836615919 13.849225364052309
Sc 13.01365524941059 17.521134871301417 14.266447011454868
Sc 11.01419584963742 15.556664198817794 15.638920442575781
Sc 11.282040203057907 10.11624659590967 17.216801510090654
Sc 14.388762968699016 15.610554180313972 12.557507040207067
Sc 17.1764634330428 14.651577820721574 11.599876812406452
Sc 13.841260550734143 10.792446839451017 15.560461233628603
Sc 12.285551153414579 13.156927133949573 14.184220576735042
Sc 15.124601769811566 12.923439411362802 13.37568799370441
Sc 15.358351639071007 9.911613333058568 12.93377089006598
Sc 14.095885700493353 7.889474074377265 14.57177366243066
Sc 9.71275969819906 12.485947243235612 15.667321473087823
Sc 10.083143443132405 17.804611064263785 13.57167376849675
Sc 12.282016957749262 17.874492788063282 11.340422791022533
Sc 11.192652729804815 7.578750223348319 15.408273983327987
Sc 11.402657860634152 15.384270621574279 12.513991651909912
Sc 8.640224885485756 15.017452899706388 13.681177384157488
Sc 14.900226829078276 16.62131966483643 9.723987296317125
Sc 16.323356750159586 11.793377223220638 10.718226515488267
Sc 13.734508702182929 13.747764966686743 10.090277921270964
Sc 11.762770973740446 16.116617586996934 8.895552627720164
Sc 14.974501770219305 7.216047652998412 11.3975237154559
Sc 12.418121307939295 8.167569509551598 12.185582643568324
Sc 9.245555330911152 16.47569538358775 10.837065079133982
Sc 10.641093688710901 13.534225107736155 10.179881577015815
Sc 6.929471642774672 12.380662509258968 13.966636282338518
Sc 12.786591545333899 11.23608519120237 11.690075203942733
Sc 16.426574903779105 14.146984270876457 8.76568532743185
Sc 8.569540639180964 9.765216250324555 14.238429677421234
Sc 14.521571114011618 9.630492399676271 9.756357761488468
Sc 9.59338477625575 12.23109579581312 12.660954080250768
Sc 7.587842554764494 13.740580651516924 10.911586915156134
Sc 12.364197048490809 7.777678396622389 9.39838398060574
Sc 11.43431335686572 10.147760318894507 14.115262931635627
Sc 14.103756037886196 15.05127508682699 7.232543536107534
Sc 11.512714881441662 13.41109754071309 7.2765440878562355
Sc 8.886504113922582 14.760717512000038 8.224866914244407
Sc 14.441286149163018 12.029025822617873 7.763305685978737
Sc 7.217410920670101 10.687850906781577 11.516509065811677
Sc 11.830905846987875 10.794132455681815 8.749071192847751
Sc 8.831964056654872 11.655448870421015 8.936063799175198
Sc 10.065482420346562 9.610610595361345 11.060413014779076
