44
Energy = -228.87393165 eV
Sc 17.081529282831355 14.48455624864807 16.5251953238217
Sc 14.494317211166557 15.971213647489042 17.281608740649794
Sc 9.039753420510051 13.693046625940626 17.30587813849583
Sc 11.75847083768804 14.91610974581729 16.537804430154353
Sc 8.913862100628975 10.890384520365515 16.189602885017273
Sc 14.450594786743304 13.47618653054037 15.62713246372526
Sc 17.452196614220405 11.672745998275902 14.98286693056537
Sc 11.804341097836955 12.029612570232588 16.809406189517063
Sc 14.541638666262186 10.291136357944795 15.413660074945257
Sc 11.473574977198137 9.301204766465581 15.717393216328208
Sc 16.203843938861255 9.414239677403103 12.870870275270981
Sc 13.120865201655436 8.71631457637647 13.167776994087397
Sc 9.38989500919808 16.038459559558156 15.317859345857572
Sc 7.083696476850578 12.97220357948903 14.963048635810614
Sc 17.721401473435122 14.281325605589148 13.572057246823446
Sc 12.521003226132901 17.414528582243207 15.115899849809274
Sc 15.421180862822677 16.231700771963006 14.528593496061129
Sc 7.011407634754605 9.999999766111301 14.117629123131167
Sc 9.951840327457438 13.161076993736591 14.459730326640672
Sc 12.595648680895682 14.855073035790774 13.504427937892778
Sc 9.95329690573962 9.93014274743249 13.32075976530958
Sc 15.351541192007 12.354027887066916 13.024077199689966
Sc 12.46895351370994 11.647471580357545 13.70841147749042
Sc 13.485527111718799 17.344184195552476 11.98331473616464
Sc 7.994739631733609 12.076932088502762 12.12674595773517
Sc 14.670038824676753 7.504488113842872 10.80397397387802
Sc 17.970620668860317 11.721590817699305 11.89156485555829
Sc 7.730914763895593 15.246909579076789 12.97556385949249
Sc 11.766025112834422 8.611805840039152 10.43867483131162
Sc 14.03461340840045 10.547862672309584 10.791919338963863
Sc 10.471843691019302 17.00835022979894 12.759267097557926
Sc 15.354566265640097 15.077611013398503 11.816174457458208
Sc 14.10208922054204 8.602819036859051 8.20763337527662
Sc 11.679088721448196 16.160901175807737 9.850295280330686
Sc 10.859695865021614 11.498956789504893 10.927818593324153
Sc 12.97410540877451 13.589822764405207 10.57438634630663
Sc 10.039529322552555 14.27627414845633 11.623389939516137
Sc 16.607063396579882 9.749057028167748 9.752084517828266
Sc 12.343916257836218 11.141374992313546 8.299356369553468
Sc 15.953178416612685 12.984586244409222 9.776610301311317
Sc 15.215210424150564 11.358169322141954 7.519350417658238
Sc 14.634254853178483 16.123367054525886 9.202518339847567
Sc 10.351388555035665 13.511506410138262 8.737048803339441
Sc 13.383382667709801 13.89712518897023 7.7359863285170665
