46
Energy = -240.7443759 eV
Sc 14.529468545212564 11.490328513622954 7.766235028444043
Sc 13.503195445953125 9.193735545532196 9.842359638110509
Sc 16.225123816697426 10.051122165120967 10.575654459980308
Sc 14.94066873230172 8.041194889438787 12.446947366050859
Sc 16.654846696793737 12.756707159241518 9.822746734400006
Sc 14.951715165640973 14.625998572286704 8.49699869761249
Sc 11.3030928242987 10.824574569252544 8.81596931372197
Sc 10.943784108242992 9.440184793857695 11.643855620272152
Sc 15.301010123416994 8.721970776214247 15.605625932275746
Sc 9.454734690439278 13.077201767234767 8.726783290674698
Sc 16.420518987357408 10.43272963932505 13.481667144258394
Sc 13.587098123177705 12.349382609292691 10.119462608222701
Sc 8.3651829428777 10.937545061659737 10.679463701292129
Sc 12.507541226834755 8.433551754644496 14.385341184968633
Sc 18.089817296244355 12.822804010918862 12.513835077737458
Sc 10.681693020773887 12.640235167212335 11.478380736933682
Sc 16.552987508544668 15.494579585211609 10.888393772380415
Sc 12.177497245835262 14.040352222853883 8.030363126219271
Sc 13.601856285986882 10.737918585775677 12.491447867483416
Sc 15.323678946577424 13.330074326636085 12.689795548177916
Sc 7.79991558055836 13.981922591740934 10.929218131241939
Sc 12.858916120681766 8.753430151447635 17.349188430918396
Sc 8.382349475666548 9.334926074184942 13.585406871403807
Sc 10.628731170597947 10.978699192509689 14.437127448620805
Sc 16.153203445908375 12.722279625034439 15.436141626591898
Sc 13.371073776990503 15.002905292647329 11.249279171686917
Sc 13.366442176780277 17.127845922521622 9.56559657571855
Sc 10.50649737481526 15.51665027659553 10.168265587265958
Sc 9.991217024828288 8.604498826876894 16.236725493336074
Sc 13.570491594980423 11.077241618998846 15.504215437654603
Sc 9.622010421452124 15.146309474356544 13.19076331930512
Sc 17.20329774329723 15.492463564948912 13.991709412762967
Sc 12.321364023902499 13.656330198598802 13.880411549646432
Sc 8.176571592046303 12.410850699483959 13.457030320440678
Sc 8.189554651553715 10.918304111144897 16.2283156918142
Sc 11.87735574987824 17.167885019270436 12.525819260094027
Sc 11.011382226741206 11.170594926484316 17.418842840581355
Sc 14.959431360861794 17.577038609881452 12.462713306911134
Sc 14.324914587343127 15.792317193239304 14.76427975062332
Sc 16.227837419726036 15.39601128313844 17.014280943834635
Sc 13.188917336414208 13.922622787217083 16.89933825368272
Sc 9.979838905513533 13.593006319362 15.88443326254975
Sc 16.13807468501553 18.039181003454466 15.45529543360263
Sc 11.428822467350948 16.348578391590564 15.543915702121604
Sc 13.287403489557082 18.71741059503846 14.867241497409868
Sc 13.843686480845783 17.180915667463207 17.392042057424913
