41
Energy = -212.8958673 eV
Sc 11.933873201190762 14.059913836583503 17.410430744711967
Sc 9.589038909422591 12.879233946329068 15.807892854100187
Sc 8.827619004662408 10.03407229007382 16.02371499968966
Sc 11.360036621207849 11.073562571573701 17.65039967071799
Sc 11.329848536323732 15.191921647096565 14.554683394970459
Sc 8.323019148492511 14.845024937852896 13.494692200155875
Sc 8.064838564750147 11.46921793574258 13.548144566084233
Sc 13.780043744284004 16.90070568816521 13.306797095894087
Sc 14.32149004406776 14.638718036511076 15.56780760570015
Sc 14.23517749301862 12.14542474876345 17.46850463489554
Sc 10.36332665749422 13.742375805816472 11.759197174624271
Sc 11.389042252232844 9.168372134232142 15.355362027434314
Sc 12.51103558216274 12.28363204279871 15.010110695875573
Sc 10.909672312637404 10.858996319489197 12.788954501550462
Sc 10.545573823917088 16.745066071788564 12.137282677553602
Sc 7.190525805601923 13.053542807207732 11.215048098960361
Sc 14.224790832919721 9.769464502545606 15.43802902278125
Sc 8.349733307542367 15.551102782595361 10.41295810607212
Sc 9.371310582365874 8.502458378157485 13.20170058248328
Sc 13.469330886456223 14.279172204352765 12.21657626694422
Sc 15.976266141539362 12.044851165408534 14.844284815971765
Sc 16.367109568937817 14.46177239685983 13.277292204603027
Sc 12.915002716210255 16.807674531468404 10.430442451031062
Sc 15.70760131389518 16.082308325753502 10.953128910463494
Sc 10.989493304019634 15.089877516109002 9.009450852115602
Sc 9.220795294193815 12.727090812122098 9.01103993911036
Sc 8.566141789130514 10.272486770002152 10.764760368120031
Sc 12.930021371211858 8.470038321670582 12.956914024771121
Sc 14.179768596571037 11.297296842521746 12.481345076053902
Sc 13.833438776563982 14.228917964045937 9.144473692441025
Sc 18.02592716960554 11.750449317102825 12.63788987361473
Sc 12.128323773335804 11.648785071859475 10.001521965019755
Sc 16.237412718055108 9.312036300224921 12.959395416401918
Sc 16.129758465509205 12.864187829076275 10.72663264598176
Sc 11.896221243559777 12.354427856822795 7.26683678830882
Sc 11.220674248504515 8.75366087474957 10.403514280911388
Sc 9.97739516320976 10.045068147703702 7.939357217501086
Sc 14.356614521417255 9.054563373765475 10.367387665537713
Sc 14.795202462075798 11.400872510876582 8.486110055824991
Sc 17.173844438846608 10.110284265884008 10.188709810245363
Sc 12.826590957643912 9.391052687033564 7.673416319141613
