48
Energy = -251.63892776 eV
Sc 17.562207536599704 12.010707135304038 11.290835322929947
Sc 17.536622392389763 11.212512572737422 14.448452618827716
Sc 16.082052035887454 9.587219940449344 8.971943540816907
Sc 17.29590022348454 14.253221526826142 13.811336926342936
Sc 16.348343915098265 12.754716142024094 8.549484075472215
Sc 16.32723490801617 9.495170972922796 11.981082169624292
Sc 14.663402487341477 7.162246935259304 11.119080532069315
Sc 17.183777514263905 13.549210402816216 16.645638507076125
Sc 13.77988221674456 11.595769330113585 7.504895196782155
Sc 15.955771044219254 14.589319726275999 11.183186151825524
Sc 15.238093162964187 11.256988641416552 16.471874972790932
Sc 15.069383185361062 12.255272023861195 13.190811503057724
Sc 13.056041679673172 8.746848281848388 9.075724389856877
Sc 14.850776118870662 9.201635558534928 14.41085279270587
Sc 14.397311646160109 11.45208337331614 10.388251025392002
Sc 11.621946850041407 6.83461322564938 11.1871093172131
Sc 12.978858720817101 6.935335754882692 13.864724751221894
Sc 15.211865397886461 16.564736823008612 13.52909889051729
Sc 13.610026664113054 14.185228952321358 9.257805399035831
Sc 12.87071309358041 9.305458061962655 11.973034731177366
Sc 12.322250488745713 11.308295612201483 14.149747276302897
Sc 14.359233647103132 14.159203824423807 15.474845287202848
Sc 14.22220078340965 17.015384654599366 10.521710169873767
Sc 11.063208105731801 10.832615695375651 8.429014105455952
Sc 15.480033419242844 16.305946524275665 16.92471534320068
Sc 13.061218519223564 14.760043488538333 12.336955043410356
Sc 11.53165528919744 12.28863622300523 11.015631024025117
Sc 14.797809147290888 13.730821387604264 18.43522222003799
Sc 12.450047300900325 9.118794126958788 16.23998724529106
Sc 10.798444178303173 13.730592482648357 8.304276692624343
Sc 11.30581949606557 16.182551428917122 9.969376677547453
Sc 10.511472052771897 8.72897370550287 13.851088735724767
Sc 10.01760356625607 9.477806532519446 10.850487722000167
Sc 12.490155248754187 12.168118935928998 17.126709767923977
Sc 12.093538723227034 17.633905302620725 12.566609735684759
Sc 8.738936377512603 12.205841719805699 9.848444026267469
Sc 12.833097512056364 16.940259804054914 15.329630856912228
Sc 11.273368862067795 14.026093876839793 14.856625786317112
Sc 12.295024428644298 15.257929098954046 17.603710601582982
Sc 9.345494123816382 11.587456518953905 13.123362283399025
Sc 9.7184074810234 14.645287224505726 12.167327481761243
Sc 9.915741848481662 11.224709057661459 16.02374213167473
Sc 8.041069511930663 15.308892834123808 9.86888671765518
Sc 9.16245906702764 17.689487882112488 11.524416773596577
Sc 9.782871902628465 16.708203146095272 14.47030019156635
Sc 6.965381041666891 13.30663435469271 12.087504235515336
Sc 8.201968651011006 13.992447398153 14.875843164814507
Sc 7.0694845413672205 16.101729904684024 12.83367715611309
