43
Energy = -225.73299642 eV
Sc 11.664051817505854 10.03805343699687 16.94247628288368
Sc 11.292900820877142 12.7981247908691 18.217108747899566
Sc 9.216955569095063 8.847728242704875 14.566436779176424
Sc 9.03113620905216 11.586658904832955 16.194066383115544
Sc 14.678343650809293 9.439631085258382 15.575964966987227
Sc 6.942814244762689 10.884805857281703 13.891081496012896
Sc 14.196198664548126 12.166508328772322 17.098700791140907
Sc 9.889858769191981 14.483052574905445 16.20704503057617
Sc 12.121618546327054 9.795788064772664 14.027519731669377
Sc 8.178576549599995 9.43339454502795 11.637594936115956
Sc 11.177055002530404 8.588653665735256 11.540128714168276
Sc 11.840538472981116 12.547809319727461 15.311597047283463
Sc 12.862863211627314 15.1265010112758 16.572030554328485
Sc 16.976545918025963 11.45338990646942 15.913658960085291
Sc 8.158258213272205 13.993820414546516 13.923327912427172
Sc 9.65976311579129 11.315722983185738 13.206532490119724
Sc 16.988943271663675 10.161053726470685 13.13721783376272
Sc 14.263417776158594 8.71722884957394 12.369751273684438
Sc 14.731628742396214 11.907634905172491 14.030846136348433
Sc 8.022692097112882 12.816067685540126 11.23354094192262
Sc 10.897079236091733 16.39609031169658 14.298334386479864
Sc 15.901020771283092 10.071909724867721 10.381114017083004
Sc 13.463245017731492 14.694135070007253 13.611622292872221
Sc 15.791811918586742 14.480427287384241 15.489319939279897
Sc 12.905657066755307 11.391498062882034 11.481274426106836
Sc 10.822163793040218 13.749096433269118 12.566554410641725
Sc 13.253928773587244 9.548853748245664 9.197183100250896
Sc 10.3322363132306 10.99200726051891 9.892972543418486
Sc 15.434285635361476 13.037224480357272 11.203288629169332
Sc 17.634721779249013 13.111553227636406 13.343033770040206
Sc 14.112334140324052 17.365478966814972 14.165523517511323
Sc 18.102702833051204 11.991704497220026 10.50017416138606
Sc 13.00200278593765 14.642294727873246 10.700911979723827
Sc 9.385593110171959 15.990160567947575 11.374847417506079
Sc 16.219549757398628 15.707932421851439 12.712404540413097
Sc 12.107074921924921 17.21543216507617 11.860004529387636
Sc 10.298303716173375 13.951723233939491 9.424581202598619
Sc 15.721440345180397 12.143174128971904 8.420812778990598
Sc 12.76766212924629 12.513570769790208 8.503572140961996
Sc 17.23224302574959 15.001452637330715 9.93209120196934
Sc 14.66858420447704 14.976432608882847 8.327722881977294
Sc 14.777425660145852 17.087554540761037 10.525535067814728
Sc 11.942070870507383 16.585426536283368 8.913163675426823
