47
Energy = -246.4682896 eV
Sc 18.54563938990757 11.904764159784012 14.315504102894575
Sc 17.49820993650616 14.729938163121107 15.152126320268401
Sc 18.466568678834182 14.114748673577779 12.12447742795024
Sc 15.683862735761009 15.276172851355778 12.941954594890312
Sc 15.881536308697623 12.065892680369108 15.810229309060908
Sc 18.386542698877154 10.898755036973645 11.569322611477638
Sc 14.319621173883045 17.827931332069543 12.238504966949833
Sc 16.29626461902251 9.66681614785538 13.646230884445563
Sc 16.177788175011948 12.410693442063979 12.655043444747474
Sc 16.419023875555695 16.041050311824613 10.17992033969561
Sc 15.46582491351041 14.649933326231332 17.384047865532178
Sc 14.854363642241527 16.822734200312546 15.414114639217155
Sc 16.97493279551633 12.962812265672861 9.616008575227273
Sc 15.198121267555916 14.6777592228725 7.6984590932844
Sc 15.283827233752108 10.330984899112138 10.771015396559514
Sc 13.37794409995774 16.589114526810867 9.466230931401784
Sc 13.192923457409778 12.476126916025235 17.470034935752643
Sc 12.480862223652013 15.361257664267736 12.393157865073158
Sc 12.073962853132317 17.545885045553863 14.437647912069385
Sc 13.643031411410359 10.025651440961237 15.448679606568032
Sc 12.625301143277591 15.71358609283103 17.322427217714846
Sc 14.252823157560263 13.860211304590335 10.4012036201055
Sc 13.701828409068082 14.06721569524778 14.960092892510522
Sc 11.365917590318045 17.965694697771013 11.45088404005122
Sc 12.237632097969058 13.981100224207015 7.916382200077102
Sc 13.296507691992378 11.833068475703314 12.832350181909186
Sc 10.764187090293358 14.993814000458412 15.155412288052771
Sc 14.214809661842692 11.722464643280786 8.218215988433792
Sc 11.06795854942754 10.169065177514941 17.459944048031964
Sc 10.543915280641057 15.22890233588669 10.11435975718517
Sc 11.200896412223345 11.842461424231535 15.061484402353233
Sc 9.280376563506398 16.10984177117781 12.791215482669308
Sc 10.246625948783608 13.181245713022724 17.491291660984178
Sc 13.193534479912563 8.730197015523089 12.623685515244118
Sc 12.770804416213162 9.118480767316123 9.728501739155984
Sc 10.205264930884447 13.299847730398694 12.64560118058684
Sc 10.899909386308586 8.712130805049737 14.708313993700068
Sc 11.821281701155335 12.072549359986876 10.173284413149338
Sc 10.33471510426199 10.298965995624487 12.091239986458923
Sc 8.281530340088908 13.527622888575278 15.081697111998976
Sc 8.58679315554361 10.495322251213121 15.709671011875582
Sc 10.339453769241826 7.6703353821918965 11.065014339564929
Sc 8.174406911974947 8.367023655902472 13.364026020187529
Sc 10.134885513787811 9.997886197572045 8.784466672285166
Sc 8.70966471702237 12.376406798850235 10.16296584886213
Sc 7.606859850939215 11.305687842052418 12.981208864525337
Sc 7.790415138107559 9.39037533376565 10.585605244206283
