42
Energy = -216.80333102 eV
Sc 9.80475740506639 16.766745457673235 9.579341488914695
Sc 14.486067446866507 17.103357417562876 13.688398237036376
Sc 12.109691399534915 16.4880883835334 11.520280416758744
Sc 9.847249399902752 14.977496182859973 7.212564973163875
Sc 12.556683352358602 15.951677652152055 8.444863574613422
Sc 9.284149287504604 15.320734066693138 12.301801300901108
Sc 14.946631216529338 16.425943521963756 10.664455391910675
Sc 11.547262380778564 15.710608659927567 14.393107243184843
Sc 16.803001870008 16.18063912876621 15.732065994706476
Sc 7.903230578089463 14.355014333433967 9.661726921733868
Sc 14.175509850584852 13.635071445147807 9.626825006538784
Sc 8.767220398419756 13.941031377317463 15.087462438335578
Sc 11.007767667004162 13.852895536720384 10.039914255244566
Sc 13.932504891757018 14.342190675391722 12.796033806842388
Sc 14.140186616073695 14.901315988251229 16.06854234717456
Sc 16.793801737801832 15.512792236390261 12.738836868891559
Sc 7.04239847241149 13.412897423744703 12.598826385357391
Sc 16.29261842333298 12.709248960746137 11.633380979352873
Sc 9.252177738947736 12.191850785604746 7.962424777475088
Sc 12.197953920859954 12.943370813571088 7.382469255750333
Sc 11.427986175420868 13.35041847195321 16.16709059323282
Sc 16.68419524106997 13.319562423107785 14.775112590201982
Sc 16.44280227275998 13.90190751638155 17.66988604471222
Sc 8.861195247806343 11.69671774894248 11.034601783703616
Sc 11.024205650200235 12.758554439404616 13.14203943393674
Sc 13.567230671229305 11.18649235047838 11.663128689372998
Sc 11.424274591841446 10.713077037127515 9.4898999430038
Sc 9.127722350628938 11.596578572713517 17.103537935462416
Sc 13.821750492784036 11.79731725169185 14.92011418818778
Sc 13.713760306400783 12.336349768023858 17.955438658348157
Sc 14.248090768854485 10.707019950557763 8.643635897103609
Sc 16.10644610511804 9.77878064234219 10.69096421127138
Sc 16.325860807112488 10.219440383567514 13.665698736606931
Sc 8.43922024235165 11.114440469931878 14.105131197165784
Sc 16.066040058248266 10.936700930222964 16.738848402048205
Sc 10.841774669256413 9.652677791776117 12.284462332620485
Sc 11.099215614845914 10.419448959751033 15.173199717570066
Sc 13.476834319433777 8.431491481197577 10.618431720393112
Sc 13.434667124613098 8.736917103119033 13.893137245971586
Sc 13.408638196630442 9.564228242734936 16.934782540893885
Sc 15.788866049766007 7.434190393876904 12.6293216201558
Sc 15.790562786864804 8.04208287972465 15.563273091681115
