47
Energy = -247.06666735 eV
Sc 9.745050614770117 10.348755990574064 16.58266106432994
Sc 12.326881467273164 10.494753872288001 18.398728486710038
Sc 10.987385202536332 13.196271061622157 17.316318614468926
Sc 9.627926471017018 7.750495555754928 14.87145847786605
Sc 8.375060210676544 12.78358099453755 15.4137160386635
Sc 12.478893375681963 8.628026847136363 15.879317135393782
Sc 10.874089030046326 13.312630983662991 14.091943495209968
Sc 14.21201917193764 12.84979761783918 18.04142551227901
Sc 7.741330029571206 9.953393236062583 13.795986798819142
Sc 15.050604992350296 10.04436293735871 17.057074551947967
Sc 8.559703412341435 15.462522833757674 13.651927039372746
Sc 10.728875942389148 16.093540150562006 15.501230487462115
Sc 12.810388380490357 11.530460984706515 15.614212453352065
Sc 12.406227087333903 8.08458268206276 12.835993319537444
Sc 10.431420006508136 10.319056707680383 13.739402511797406
Sc 9.502749198870022 7.97761414267622 11.92615663575841
Sc 8.322825711752596 12.860981813219931 12.28107824456189
Sc 13.371232702849106 14.815517085787345 15.925954230479494
Sc 11.410044372349658 15.582362460332103 12.58585490948071
Sc 15.538084135403206 12.499545678254501 15.160253606409556
Sc 14.875023962574913 9.80400351842826 13.888422145533939
Sc 10.206962179635445 18.027841515522404 12.986038392329505
Sc 9.26423300208084 15.903311321008008 10.630736407155725
Sc 12.712481973351355 11.209718229242341 12.230411995514674
Sc 16.183407999346482 15.429015154344333 14.818459250973532
Sc 14.061043003828555 14.237004327083552 13.149941177419212
Sc 12.237343058150598 17.32150540355618 10.458815579316019
Sc 18.146581632946372 12.623390505802913 13.832383861015577
Sc 10.923493069492505 13.254370822332637 10.711639177339832
Sc 9.509919563929854 10.689355661851955 10.685348276519873
Sc 8.596689826743992 13.260148205272053 9.005595029518629
Sc 13.381757260180628 17.241812420204816 13.848674896716776
Sc 17.30325597077195 14.885599959826417 12.119364695547773
Sc 13.587613080617903 14.504598736663606 10.237166171448496
Sc 15.788666757515001 12.286656639515591 11.746374521194262
Sc 11.824133453173078 9.069728867934847 9.979439930567526
Sc 17.56772121577627 10.045565430571827 12.049461370836896
Sc 14.83440193988141 9.115741327502612 10.862950325526295
Sc 11.305153130191414 15.026954130374092 8.274132744213173
Sc 15.173107984020021 16.746662770112682 11.314620457341546
Sc 11.070489706431312 11.817779252039898 8.08177858638615
Sc 18.65250461836846 12.556006053255668 10.821392431099827
Sc 13.594993181082675 11.457721561288848 9.531028288848724
Sc 14.289287913975606 16.431070674170208 8.220219198113984
Sc 16.40653141510509 14.362345781807871 9.296666166644835
Sc 16.53800689995089 11.209569001239801 9.066620760458033
Sc 14.009746139274975 13.446784263469679 7.439637658063671
