47
Energy = -245.27603932 eV
Sc 18.567808748018344 12.543825216333076 11.13317504804423
Sc 16.16725933228614 13.01672945727314 9.013901050971745
Sc 12.450540274060751 17.52809801821287 10.978684196563245
Sc 13.846562790764704 15.344777030771597 9.376716613114167
Sc 14.310472963503948 18.425558761786288 8.879457945792375
Sc 17.79336980803006 9.515019338565232 10.745878846827615
Sc 15.108279979305593 8.818173659688002 12.33270770320237
Sc 15.122754770509566 9.745771440388276 9.295057837953038
Sc 16.322369209266284 14.348744344606317 11.750519312573982
Sc 13.21740646213802 12.091962158500195 9.584577079031408
Sc 13.290239494066233 14.05963679506772 11.963091050153505
Sc 16.390441891673397 16.76651480075257 10.120671642096067
Sc 15.185759398619249 19.146659179865576 11.803791595118213
Sc 15.372822592617625 12.739362146657442 14.214252638805918
Sc 12.36060366791169 9.132377856191951 10.830044107173675
Sc 16.22490137633517 15.47492822243679 15.468876610599462
Sc 12.390863424923145 8.825965443961067 14.241383711209695
Sc 17.67988652979031 16.878830639602914 12.963190876952542
Sc 10.579560297348813 14.55267725112695 10.70885710924803
Sc 12.776963517821166 18.294379250008337 14.151557333131814
Sc 11.305525675076725 15.968306755320489 13.184491981038855
Sc 14.770414009804213 16.545675197598193 12.80423650791661
Sc 15.808169081461145 11.500112563600958 11.426339574482412
Sc 8.55942801188924 15.519856640343926 13.331927808095678
Sc 15.686789870449115 18.432592157150562 14.905737171386278
Sc 8.062861811700076 12.803974000760709 12.10757169827574
Sc 17.749242273464336 10.784064553686862 13.623277940785014
Sc 18.312313397047156 13.776749662712886 14.039305530922656
Sc 10.550473637377873 11.577886155285071 10.65699658804931
Sc 13.197435190741862 14.834365609341393 14.969967397915148
Sc 14.526222509256087 13.902731116821835 17.64545896568535
Sc 10.685730652784782 12.987846510635064 13.614528254166899
Sc 6.383988874355527 14.058451442009769 14.531599684974116
Sc 10.387109838232567 16.626216323779587 15.867221258732773
Sc 13.559369982133882 16.991696786588438 16.81959405582998
Sc 9.849435524582141 10.035723317195457 13.001447986378363
Sc 12.950233333748015 11.751357724327606 15.803249997777176
Sc 17.02407702671556 12.325150420514017 16.540983606059985
Sc 12.981537725298498 11.192080259482237 12.663088624041887
Sc 15.26925113129822 9.78342101786088 15.334601299412055
Sc 7.698740273567671 11.50912116527366 14.696861605191687
Sc 11.65424156618997 14.601288010802884 17.536397199511033
Sc 9.155399386524495 13.697107043058312 16.098494043992066
Sc 10.268062166657328 10.560108230964936 15.982653796789037
Sc 11.791046076799434 11.7841746153274 18.459092869064524
Sc 12.681808432963473 9.123052642498415 17.29626535430427
Sc 14.8006279394886 10.937738926348093 18.17315295870468
