44
Energy = -228.62334973 eV
Sc 15.314591163334448 17.058947455602457 11.523884259384491
Sc 12.197737769613488 16.61001360175731 16.105401298230372
Sc 12.54160367078056 17.843679358171997 12.608091448763979
Sc 14.240583699252351 15.805576252770361 14.06123901171533
Sc 11.896056351440757 14.619416640784358 18.315416345217287
Sc 14.667297825257856 14.380062688340818 16.714804138535857
Sc 10.045449500119753 16.210698636843837 11.052883424422118
Sc 16.345575372973833 14.052031506195272 11.353185754882048
Sc 12.568296146308668 17.27126949981863 9.4888056976092
Sc 9.58315741630984 14.78040339751253 16.160405448290575
Sc 11.273588515049832 15.404251753949962 13.578921546325333
Sc 16.881484629271284 14.500909491158497 14.332848394411746
Sc 15.193574190389636 15.647350353994899 8.93110128147546
Sc 13.301277302298791 11.707345643724341 17.779607532307203
Sc 8.72481489116261 13.863933910545674 13.019128668411707
Sc 13.196005270032119 14.910709099676366 11.220920477854394
Sc 9.691162352519656 15.560398626645522 8.068096426959357
Sc 12.098931473919857 13.42059711274633 15.589771837300654
Sc 14.523650499918324 12.761569411054476 13.437591214107089
Sc 10.195481217783604 12.314070106664076 17.891182275293342
Sc 10.799381691302068 13.44560130887232 9.80916946279245
Sc 7.879318036668303 14.200313463458064 10.089380426261007
Sc 12.58925408938138 14.90950345316097 7.749597168175432
Sc 11.257540945528085 9.613893746102153 17.373528730220237
Sc 11.352928398394774 12.464511574735434 12.540528663995236
Sc 17.425361451957475 11.854667814748584 13.211600951838964
Sc 14.013097967255346 12.63668813269667 9.263073202196265
Sc 15.785349279777064 11.614737532566938 15.898716988141237
Sc 12.778233506375223 10.440266475096292 14.83507901989364
Sc 8.645877155980374 11.444079381539506 11.124576718761876
Sc 9.745746703455326 11.32526446034161 14.990636105463421
Sc 8.912634358456808 12.304170671106942 7.97368777010595
Sc 11.896867190917703 12.071621983232575 7.13643699107597
Sc 10.99615643849843 7.974757514623153 15.095126442951758
Sc 16.354168586308507 10.94799703241521 10.458301403706292
Sc 13.585589728122644 10.418303295330322 11.453353834669711
Sc 13.971944559730444 8.535727784162537 16.38900193686415
Sc 11.069764275648753 10.406555494857315 9.432552081872426
Sc 15.714207352372535 9.47482813013224 13.668312345073783
Sc 14.036432943001556 9.636237722182317 8.568939665018226
Sc 10.786592876210426 9.460497249038085 12.451357986664945
Sc 13.36250612273663 7.681547936225784 13.271510339475928
Sc 15.374446657682869 8.026369962770062 10.875140753218535
Sc 12.400761665480667 7.710509547993815 10.381948275113874
