47
Energy = -246.2609792 eV
Sc 11.808057070991932 19.458663372290005 13.277732855935593
Sc 18.361455618797613 9.984315128496672 14.066561026805838
Sc 18.00937978441269 11.639389664835003 11.521833286125855
Sc 15.93153714444733 11.69247528317924 13.754109980795944
Sc 13.135536328442159 12.755718461302761 12.474759365715679
Sc 14.126344845341414 20.080232513496327 14.902194981538104
Sc 14.209000012181491 12.628132718145883 16.443409217515775
Sc 10.669900244086755 14.855243084051605 10.245385015807017
Sc 8.89195473912712 12.838079669452787 16.503896966078663
Sc 15.837521792676418 8.737638406221592 15.345186873846725
Sc 14.99104968163914 17.314078932104366 9.21068850677795
Sc 15.456680320829824 14.807120481558664 14.495201389902277
Sc 15.208872640864769 11.500527373158977 10.468258260552831
Sc 17.087010574451913 11.270834202000431 16.5064077236265
Sc 8.218347580524334 11.500904783861014 13.801694748445119
Sc 12.284761128115255 17.544663309311886 15.901383272712907
Sc 16.705008340399097 19.088380904253444 13.767289387869155
Sc 12.413375886212242 14.672754977297075 14.791720097398844
Sc 14.445902438738207 9.978011746995895 17.70101687171398
Sc 11.53676479499633 11.195489381949017 17.57309439508296
Sc 16.50362572488543 17.00515437141771 11.762930832678308
Sc 18.341485315773344 13.215748770221126 14.32519306129467
Sc 10.916724963949001 16.71725958360308 12.856687407681639
Sc 14.022424635070559 17.37081275372269 13.494132323371153
Sc 12.905522784602276 9.758911286156843 11.384707491646742
Sc 12.128184656772632 8.533505980265515 16.291009713990196
Sc 13.458305835189728 10.298461604751164 14.42223138315284
Sc 12.717888948992364 12.767988354887233 9.399450024578016
Sc 10.950366178140932 11.918399906679198 14.720351705497169
Sc 14.114895404579965 15.486601735622942 17.328577263952504
Sc 10.749583480532388 9.090382098931174 13.558086335448918
Sc 11.333971682438069 14.279607633182732 17.530609942062625
Sc 15.468159501182287 14.22143778423103 8.915370252397928
Sc 10.50603808600519 11.595175178185492 11.5527003371491
Sc 15.73502095435033 17.563130489332043 16.080421783752044
Sc 14.573141818192044 19.470560651093482 11.617513739869663
Sc 16.30024234742285 14.076910909420812 11.816715932593361
Sc 12.76778266194863 15.66784254012889 8.172990539735267
Sc 18.05046119278687 16.32136047595796 14.361497482522756
Sc 13.560621322348714 15.431189412975263 11.060158655754604
Sc 12.168111010210477 17.931288268938104 10.359911722348683
Sc 9.257639316098803 9.793819482971754 16.13204810917626
Sc 9.805872387098198 13.990973082416673 13.037559924470134
Sc 13.469873282129047 7.467801782324175 13.74415660622817
Sc 15.827830546843597 9.107090224442437 12.331382637260665
Sc 17.029527928264894 14.481522843284264 16.810760828107334
Sc 9.588548896532718 15.666667236511376 15.460909315302931
