44
Energy = -228.14247579 eV
Sc 9.425854548392696 12.69167012441334 15.29303304963728
Sc 8.449712663105347 10.442144993216836 13.424875667518405
Sc 6.737499882872324 12.857488390389479 13.72202535230481
Sc 8.111364282230628 12.503024343095314 11.11486513576871
Sc 8.337110946419644 9.528441319262972 10.53154529437802
Sc 10.595255550650695 15.044814335741666 17.26333671041338
Sc 11.271613392223827 10.128067654173952 14.967299892715044
Sc 10.94488434953715 9.121351480678157 11.96986464956856
Sc 12.15144889811991 12.383703532039709 17.020042880841615
Sc 9.08795503214525 14.747736298792718 12.96406668119208
Sc 10.81386938314769 12.244969245066065 12.587059383013782
Sc 13.856048627278215 8.842612960297785 13.526181265482029
Sc 11.710262669517963 14.578473408210014 14.525750616365613
Sc 10.604589771043337 14.377321938349459 10.287372166499672
Sc 10.554370034275044 11.27483557624164 9.543795573688211
Sc 14.202055128523133 10.093021776227568 16.474234050891848
Sc 10.710281118475029 8.332308702225786 9.128751283190315
Sc 10.186861143258268 17.070105158074625 15.017724437395648
Sc 13.496116987702177 14.825074016715968 18.578579963043516
Sc 16.491958830587613 8.92539659803185 14.94027473294167
Sc 13.666463661434157 11.889493523896236 14.088289319515848
Sc 11.521843681855938 16.796408648827413 12.196227893773623
Sc 15.155772615943885 12.48987757466996 18.227210514937298
Sc 12.861997541612407 16.835375128280955 16.42612573614199
Sc 13.457059622033743 11.060473839919231 11.07003246268059
Sc 12.571856684583288 18.91117772680891 14.068502354515406
Sc 16.51465667659677 11.981316500719776 15.636083562413612
Sc 13.071812579040893 16.307231854305208 9.49394026825662
Sc 13.14374352159635 13.286863428732646 8.734470025687914
Sc 13.21672096178308 10.13062890786722 8.223207698219179
Sc 13.399038731719344 14.253438493197745 11.77447194090574
Sc 13.570037809253567 8.111561219365802 10.441843858675615
Sc 16.224572416935764 15.372230344657277 16.80160653935032
Sc 14.24673355224929 14.049105446281946 15.856462227372507
Sc 16.288419169359784 10.85403434411908 12.672532537189927
Sc 16.116386704736396 13.988551279889977 13.422962016523927
Sc 14.390382769881397 16.558555256205672 13.746450095157211
Sc 15.95317507459689 13.04987296607558 10.278231386905585
Sc 13.932201628546332 18.451023281551024 11.430824612472273
Sc 15.569011156331753 12.156065020831665 7.464381846636031
Sc 15.477978403934165 15.098282167600187 8.149171118391594
Sc 15.856069571851148 9.923396537552845 9.664001740869296
Sc 16.279254654788904 7.916407400495926 12.09075011069095
Sc 15.768630012494802 16.116911512768475 10.983768260414498
