40
Energy = -209.15702082 eV
Sc 16.718896345553045 9.70391467565591 14.78599191804323
Sc 14.396030154107224 7.547494905514068 14.61341882772378
Sc 14.017412801688842 10.137500202207365 16.506246618785703
Sc 16.81840210211196 9.854272228730457 11.786819923754294
Sc 14.512467214726453 7.9636733208246175 11.390653064673977
Sc 15.507585070577207 12.320471293367401 15.021295438285133
Sc 15.005599055765366 10.14963754220978 9.284934091712515
Sc 11.393889892335007 8.985356051940537 15.149791255568056
Sc 13.949063658010159 10.096925331086101 13.59652222020139
Sc 17.28007990337702 12.324699123868045 9.973322503373184
Sc 12.005806989300162 7.562069013294396 12.600860408710947
Sc 17.55071847007 12.605112090496252 13.014539166018308
Sc 13.092557754353821 13.325240177016854 16.215188946890546
Sc 11.051605860014233 11.263334195699183 17.03220567806094
Sc 11.840172885249896 8.25885523414602 9.491833917316102
Sc 14.925681508858704 12.083379405924461 11.562391337029515
Sc 15.797101076189259 15.214615225772224 14.498078009800361
Sc 12.386897548780478 10.258606578530777 11.172758518702029
Sc 14.376065697309745 13.427939777790025 8.939451512005833
Sc 9.71009689084052 9.491164113471758 12.523021404978332
Sc 12.36435866069897 11.215456996830932 8.276295961169119
Sc 11.783038327518177 13.00476133285386 10.727980669544953
Sc 13.497795008629206 14.119196721854337 13.181639170275819
Sc 15.957708857278769 14.889525278928835 11.38159160344526
Sc 9.80232302963628 11.079167294921128 9.621610201170208
Sc 11.40701072901144 11.87997522619181 13.878341634453394
Sc 8.766223229099731 11.353941167299872 15.047673566336913
Sc 14.318487130506876 17.159583777959405 12.823268396859316
Sc 8.763423135676993 12.211522063539642 12.226751162261412
Sc 10.188523072132568 14.056241968311836 15.857594459939088
Sc 12.450598254530727 16.26530303402248 15.036719503864644
Sc 11.224232414871587 14.192160688278424 8.145121072637115
Sc 10.518231915970034 14.96823876141938 12.886386158274911
Sc 8.883608245531166 14.338744195927854 10.253679889898873
Sc 12.930347218889928 15.772751840177522 10.494268402911777
Sc 7.77416051301986 14.457584093348826 13.96830165240637
Sc 9.35489758968982 16.90599927061263 14.845038416163424
Sc 11.27416597111353 17.804848111908864 12.47479115327861
Sc 10.284298379437997 16.781204368063264 9.664518220282106
Sc 8.358440793754996 16.883353651049912 12.014177701065535
