41
Energy = -212.81467891 eV
Sc 15.95872155745 9.524824821549343 14.403141136951197
Sc 16.91850235805584 9.026115275723496 11.3626577503522
Sc 14.24494435556315 7.837928765501867 12.148816029207508
Sc 17.602207728106887 11.752541751123676 12.857293868617113
Sc 16.111587731090488 12.557993429832136 15.379079393112693
Sc 13.678203522163551 11.008006725593768 16.662602352928012
Sc 12.872024751800788 9.593326930671797 14.186943169654725
Sc 17.934111343214774 14.724294321372518 13.751565534832416
Sc 13.80111305371519 14.050278697578158 16.915643346086654
Sc 14.441651666342791 9.605905112824555 9.373314665408396
Sc 14.716285400661164 10.865449171289805 12.056749329557862
Sc 16.677654221296123 11.80262280313772 9.814035107944063
Sc 11.990914482037107 9.63839624721594 11.255068822072188
Sc 15.2731957334607 15.563496162981279 14.65987040594602
Sc 18.49665333591338 14.115827877400973 10.964348163989996
Sc 10.363705884945679 8.148237395663577 13.323972852821024
Sc 10.367317161776205 9.845603384611108 16.013305834970822
Sc 15.511677893976529 14.016728472340109 11.860327088425533
Sc 11.17023498363293 12.75388957383459 16.260140893683953
Sc 13.401523638789147 12.812061728727002 14.131639080533818
Sc 10.452033431524608 11.214108391300464 13.338759428221877
Sc 8.137181124941533 12.375365677905286 15.71222727679512
Sc 16.69091493679562 16.615496117429508 11.551080316200338
Sc 16.481967275426683 14.803721876692066 8.977611713360862
Sc 9.427308140102054 15.319391147753716 16.344689547521963
Sc 11.308243562027783 11.120548339234315 8.779429096434516
Sc 14.056461128502118 12.667434719045161 8.541018839770983
Sc 7.89548247306104 9.73377040828143 14.093271582530502
Sc 12.123765645977715 15.518411056687832 14.721713395577126
Sc 12.494699142086725 12.854687093655498 11.083843045013555
Sc 8.89118505322832 9.909375947961443 11.128731514396476
Sc 13.702487501363915 16.742278566687766 12.440744136716653
Sc 9.661080425340382 14.039979628540783 13.623949854827673
Sc 13.76757825581961 15.638852702556733 9.69207792170141
Sc 7.0519765365583185 15.122638043824269 14.423710916929581
Sc 11.286701816940255 14.169762100268585 8.588303634783527
Sc 9.455509709710725 12.830499714131545 10.559916108353232
Sc 9.506179961889185 17.0034248425432 13.707692631582319
Sc 7.225735278972423 12.41660101962424 12.679985657798591
Sc 11.116754588468968 15.5616008571548 11.384174458743967
Sc 7.969095640925997 15.381378938701328 11.514788707544138
