46
Energy = -240.80359852 eV
Sc 17.497446320396538 9.736268315300713 16.185924581030868
Sc 14.829787308677304 8.842284681043992 17.083448659987734
Sc 16.021874898832305 7.576638886553317 14.581825965415296
Sc 17.831089104009415 9.699595939559511 13.172974014053095
Sc 15.260438528762812 11.955337639310487 16.964505568577106
Sc 12.88166875121344 7.91895135206049 14.755260381845535
Sc 17.534333657024305 12.43317066446011 14.58090930138575
Sc 12.407330038731368 10.587411837031382 16.52387894073374
Sc 15.138161105924144 10.422616190651745 14.442440421749223
Sc 14.267877026622873 7.8889818646251 12.0716761999674
Sc 15.562499369972787 10.434444464340102 11.331325563094076
Sc 15.312137625032662 13.284388380023856 12.67458792214343
Sc 17.80348324034537 12.486345446229143 11.373238720795701
Sc 15.565630393833771 14.64912292303978 15.537249591235751
Sc 10.072273521902916 9.516218585641292 14.73087448724247
Sc 11.027054348138453 8.170983948688512 11.934530607372611
Sc 12.811779212256557 13.898558986532352 17.349905948805667
Sc 13.069229789403334 9.845678532185588 9.88630489183178
Sc 9.993843048240528 12.479288119512514 16.16809224811434
Sc 15.146220777504897 12.487922034040057 9.36534609144784
Sc 12.5766078663292 10.370152166815627 12.878929062079903
Sc 17.581038965233038 15.197753820775224 12.937300501628156
Sc 13.081567661592796 16.17250821353953 14.854917185128341
Sc 12.887269181386253 12.940495209075225 14.681812157384842
Sc 9.940439269320798 12.093134193526824 13.17674278046662
Sc 7.417867350894598 11.463858920950619 14.462531311630405
Sc 15.728414424488072 17.51315889537259 13.987842274306766
Sc 12.798651324808507 12.79994560423201 11.161198845733525
Sc 10.542020855660189 15.362328054954677 15.887533568613792
Sc 11.1421156353411 14.822362862351271 12.882510062414873
Sc 10.309376652883465 10.882579540043194 10.486617718752123
Sc 8.249841240982146 9.654180605368875 12.243361535373442
Sc 8.246255688332745 14.369734735660366 14.247004382327905
Sc 16.895827299936567 17.758333140229833 11.303135576385923
Sc 16.27299268045706 15.11451951911099 10.094164424603743
Sc 14.040280401811502 15.925864117488205 11.936650471877497
Sc 8.53194865105226 15.936852051409408 11.70978893503105
Sc 7.6151070310717595 12.771896308014348 11.63425331768891
Sc 13.368552394608834 19.143280913455484 15.02868703034521
Sc 10.131220028814859 14.014865688968728 10.156516374845603
Sc 15.201614466254972 19.938495671227535 12.432729035741415
Sc 13.259490343914248 15.02521270385844 9.096907659324232
Sc 10.471518892964866 17.523244605965004 13.763550605238086
Sc 14.319030224325482 18.004925462791768 9.837120508873012
Sc 11.257089880593185 16.814989841540307 10.561265478421864
Sc 12.721619991934528 18.64577077546205 12.285036973330449
