44
Energy = -228.43802458 eV
Sc 13.14655294151533 10.334788172755879 20.143721764072573
Sc 12.245261333788422 12.576604659796669 18.71943970213174
Sc 15.149647656376239 12.68575210585328 18.885563749644433
Sc 11.001336254515989 16.30345113914028 15.808263939289555
Sc 11.075765773341228 10.158437940160445 17.661219166456693
Sc 13.330734118020168 15.128439374264492 17.543344691525725
Sc 14.08929252108036 10.216308825305681 17.45958209311331
Sc 11.012417607916962 13.029552767567376 16.11019619140595
Sc 10.326664905338136 15.69327175818028 12.94257061366488
Sc 16.329463239132817 15.155648036429438 16.86974189951983
Sc 14.122826176694653 12.616674799312133 15.947161513694345
Sc 9.086594066273275 10.984609976864112 14.856705640926666
Sc 12.960857162462814 14.76658605017249 14.401923455985694
Sc 8.46033885779426 14.068770912248002 14.525693966389708
Sc 12.252276534077955 10.378360901300065 14.66196018944716
Sc 14.295483947797154 17.29641668840917 15.536500411983242
Sc 17.003703455358163 12.081494678578181 16.31941210289383
Sc 7.850489104285814 15.27690611496101 11.645274931779284
Sc 10.799334875280577 16.732822657605006 10.222674225903937
Sc 10.883551566326581 12.631083127809159 13.143165836859378
Sc 17.297371958749945 17.025002525731335 14.328741226112646
Sc 12.299969246173864 17.883406024247446 12.953045821096184
Sc 15.27761610307383 19.10206436949172 12.740992979526842
Sc 19.958465142664483 16.96308273718846 13.103449725667376
Sc 16.11870347153213 14.203954514218037 14.112110335690131
Sc 10.283450510241845 9.903729225770688 12.255504987843445
Sc 14.29578245767131 12.098723637666701 12.653735898959656
Sc 13.986762075926906 17.348492132230096 10.184051886453801
Sc 8.095534192482472 12.241302291855161 12.107423380773712
Sc 14.813192306941303 16.45032835128421 12.700080589480498
Sc 15.464621420547148 10.007338049930373 14.452627457222402
Sc 18.958224419350163 14.511118277942874 15.089455392570725
Sc 10.023520922520717 13.832724979195419 10.236807003815194
Sc 12.701802153051062 14.75611178231805 11.414323286624782
Sc 17.66554459033129 11.816982297254619 13.234219878581762
Sc 13.336663961644913 9.31248066006874 11.831710718800185
Sc 17.287073022280328 17.20295256403053 11.242954037090442
Sc 12.069583383852631 11.639510923402128 10.37373711630229
Sc 15.655142448655571 14.323906088527634 10.717982209466594
Sc 12.983037919708917 14.230986796309757 8.748274470410038
Sc 14.82927837534435 11.562128973082022 9.462202422164887
Sc 18.44648547281306 14.64567042578058 12.187376948197455
Sc 16.213003282739706 9.912829699933592 11.500688110507475
Sc 17.663469148531092 12.230901109889919 10.172132359004786
