49
Energy = -256.92103987 eV
Sc 7.461623887429258 12.900306091260447 13.612975478921296
Sc 9.02720385218446 12.475174716807915 16.115323555493084
Sc 8.076054917213014 9.881193582215491 15.233519315512522
Sc 7.72021949155751 10.245224886075517 12.170213035829224
Sc 9.367071423822729 14.827479057584032 8.864922131094891
Sc 9.941833770055641 14.745068757155474 14.250351044295842
Sc 10.35252282606528 10.380922071935133 17.79270786567352
Sc 9.694177889393279 8.107622073517758 12.975366995801739
Sc 9.180596013212547 12.734243264336317 10.990679136145149
Sc 8.421281816752591 15.646056068002444 11.63957778680204
Sc 10.660122940162909 8.451209666192293 15.647822318325812
Sc 10.13765102058936 11.49214091169491 13.531346973125915
Sc 11.405452039601839 13.732134037513346 17.075083600395114
Sc 10.368041527016628 17.37666695911733 9.964103772484746
Sc 11.819831552998966 12.692630968090691 8.681949493916205
Sc 12.07594944776381 15.884744607940796 7.838511525850647
Sc 10.372280248138175 9.862276652897075 10.444315427913367
Sc 11.78090176794367 17.27097861213126 12.819446517853388
Sc 12.664540418507691 6.787749885188622 14.170189902824577
Sc 11.267514395146922 14.849337338218605 11.27035770007198
Sc 12.648653998381144 9.36681358370301 12.877939703426195
Sc 12.311792151032497 11.107034849494354 15.606317399383515
Sc 11.763756213375988 7.115739381568841 11.038535024642728
Sc 12.714088613266583 13.647286746985209 14.18511024396515
Sc 12.38434716182274 12.04508995708792 11.407942519499551
Sc 13.332293681316358 8.743245760724097 16.918114253956727
Sc 13.365297956867368 17.82413699241545 10.25357736624618
Sc 13.139498112800364 11.50923739004484 18.461713473341153
Sc 12.611284154530509 16.299242378159736 15.52511017864728
Sc 14.615606384864597 7.270048342165796 11.81242765350615
Sc 14.358576302062037 13.846886459355169 7.101230660190642
Sc 14.010784219991672 14.849802766156957 9.91232222559209
Sc 13.4526722543009 9.486539557320423 9.862734947695259
Sc 15.330856808455929 8.758093931670658 14.371051359779376
Sc 14.561030866005517 15.575676633751307 12.903569382665127
Sc 14.23541708293833 14.04198423424182 16.864480753173513
Sc 14.798709102266306 11.615738099261684 13.281084459054112
Sc 14.976005304187034 12.084506636410357 9.716078237738412
Sc 15.047882502746598 16.726661824769504 7.805480913684379
Sc 14.901446870036638 18.378397842599494 13.111839662472894
Sc 15.343519738510182 11.200279751674056 16.340379351159623
Sc 16.196569947817206 9.857174037446235 11.41109870108175
Sc 16.29522355214394 16.97179407546809 10.629605528389053
Sc 15.567898322173178 16.680549806869465 15.622704990001772
Sc 16.837785617440225 14.453321145156368 8.782897802207886
Sc 17.549932094528074 11.05168760992915 13.882374007232094
Sc 16.324831789450315 13.836189111053768 14.824829010718474
Sc 16.75259513488484 13.52058910573664 11.803851295495669
Sc 17.386965859205127 16.357108883095815 13.317899227312896
