44
Energy = -228.03619539 eV
Sc 7.25496058807668 13.436935052431624 14.738999669360135
Sc 6.991551726177427 13.374078570526036 11.721144877992517
Sc 9.512450407941154 11.995199380903099 16.11834881312246
Sc 9.353166683049013 15.139483995943376 16.03426391126079
Sc 9.205599253531933 11.849920676530019 13.082229897316326
Sc 10.240084556355352 13.691811426268528 18.459965263293256
Sc 9.07755360310443 15.12697947661148 12.959892554588814
Sc 9.082481344094045 11.874249605906417 9.896388439647769
Sc 9.016866376690214 14.847986175545108 9.858346367187714
Sc 11.89239958110895 10.514584033198442 14.446506955734607
Sc 11.532541290740971 13.613270443566531 14.46184077828943
Sc 11.56374972560512 16.775706113636154 14.209792581903272
Sc 11.491501858414727 10.206025754530788 11.30457198922928
Sc 12.478198803737802 12.134379898444584 17.138153793060354
Sc 12.34447104548862 15.296627820506005 16.989316896206944
Sc 11.311712175996984 16.547609600973953 11.189354035331316
Sc 11.334224183102998 13.433532227409987 11.188674206437916
Sc 14.089435057069315 8.968763004533091 12.739972620109157
Sc 11.1941667518895 10.22459217639793 8.30461058368702
Sc 13.134593147666292 13.882957621329325 19.52401602543728
Sc 11.019331478573735 13.360066376419994 8.199000773837533
Sc 13.847255930223627 11.971919389714978 12.547924306601013
Sc 15.369635338539632 15.261449119454678 17.93632938091179
Sc 13.84908570957468 18.094332598292258 12.34603478498475
Sc 13.535539203923982 8.7781508022319 9.65178942888883
Sc 13.377067811765427 15.111494793134314 9.56437820022115
Sc 16.704501749596425 12.22363249174991 13.478532244726164
Sc 14.968207108904057 10.615596366235543 15.355386789617576
Sc 15.322144614216162 12.323275546917937 18.10614358850772
Sc 14.549347430393684 16.888688004379098 15.088567734479339
Sc 17.151324954617106 9.280570767687829 13.258095405083928
Sc 15.847177020006049 16.79178430030731 10.580308723613735
Sc 14.671653447563482 13.734249613236408 15.364776152335708
Sc 13.654420927176208 15.127156010305335 12.567613401008549
Sc 13.441660349365753 11.820363362750244 9.422167616412777
Sc 16.791398855627936 17.95442359978329 13.326835355436627
Sc 17.30180293688099 15.691132597471551 15.62728254876465
Sc 19.40415614135529 11.055633569003612 14.216756998174226
Sc 15.936673538105659 10.42194031306482 10.783181864545424
Sc 17.60476706083582 12.746603054690835 16.224610604313188
Sc 18.615375746943943 12.034150075426773 11.517037029514842
Sc 16.596507834247937 15.154665044216 12.847699927326367
Sc 15.85359731958827 13.478789220241534 10.535572959662444
Sc 19.206794508441583 13.94493517914974 13.901329329426707
