47
Energy = -248.13829541 eV
Sc 12.842093146143025 15.257425104187178 18.042813696176268
Sc 9.658750476017351 14.970589872629468 16.189288186440418
Sc 13.61028578438893 12.275294991323756 17.949296130020723
Sc 10.73602304114121 14.04664767357206 13.47781375372961
Sc 11.71296222459537 17.04650254833666 16.00525334553902
Sc 8.379406801813726 12.44120845885028 15.118080821959355
Sc 10.174798963400445 16.916299891172784 13.463709537953589
Sc 14.675031416507807 17.331723368096114 15.97423077273092
Sc 10.464598040284462 11.974598008500354 17.20392201512778
Sc 15.273365115820049 14.244395591833186 16.140634163335214
Sc 9.990512986276936 15.343097575562368 10.710260185848064
Sc 12.869027047982136 18.789405496593233 13.893497024151593
Sc 12.384802941381551 13.653190091408536 15.756247541786477
Sc 10.870038347621563 11.070532491891292 14.207507340143916
Sc 7.986620728594995 14.148593169244798 12.59287561877848
Sc 13.221931917065612 15.866149742320268 13.817237544514844
Sc 15.848879832088762 10.847799837286695 16.234774591334446
Sc 7.994439432649356 11.027437693934543 12.446679042900014
Sc 9.159795463657552 9.391986863635191 15.528776863040969
Sc 12.484086328878352 17.127066700857316 11.20427469165944
Sc 17.20054042753521 16.027396557538072 14.59375714987091
Sc 12.773363122121772 9.94149100487474 16.333227055790115
Sc 15.449665449149308 17.443419782834564 12.610907311608988
Sc 14.20345484593311 11.874669864967604 14.100035110299457
Sc 9.662222518180087 8.631468118174757 12.52373841321422
Sc 15.647430066332362 14.327966401216255 12.626594798316546
Sc 12.887449032344477 13.971890360833855 11.116698511175738
Sc 17.547375589583652 12.932018256034514 14.478044265075267
Sc 11.733491999406644 8.020487693419055 14.207106267308738
Sc 17.988876020707657 15.58801115271426 11.676665833853507
Sc 14.96923992151098 15.86991236809117 9.879726287536602
Sc 14.54152464038353 8.799292318241699 14.114002023800024
Sc 10.26711866968293 12.373594828746933 11.302012825999267
Sc 12.49241597651021 10.200637815496838 11.929031490478124
Sc 16.88090955390589 10.281496473220336 13.18246932182208
Sc 8.287346463851923 12.768767304830186 9.530652137316238
Sc 15.089822634858963 11.755500637100814 11.0981518840771
Sc 12.058643347901157 15.25818154794343 8.546307522762614
Sc 9.974521933585647 9.891389304122876 9.842303074105919
Sc 11.393255766181346 12.299744575680366 8.621045921828165
Sc 18.160972268807278 12.43604706659394 11.565789153159928
Sc 12.230362884745036 7.553355680250378 11.07390038843194
Sc 15.117585244936933 8.706668371104007 11.125486052189661
Sc 16.927792638162 13.742520713448142 9.458848517879565
Sc 13.4092090518462 9.96281172459398 9.076972867582656
Sc 16.76444548892481 10.643421813878868 9.24200878940657
Sc 14.275296304864554 13.065450125806004 8.411945045523957
