40
Energy = -206.76470919 eV
Sc 16.545095009491288 13.206997180309639 11.477710405569404
Sc 16.864838400800938 14.808787386659178 14.110820520156842
Sc 15.677953522031999 11.051354465894189 9.110833176808743
Sc 15.797894126760912 10.383332533648804 11.97560821440869
Sc 16.40774642000594 16.14267550101115 11.43706674090164
Sc 16.435547078779937 11.780447628270066 14.443541355231844
Sc 15.43367959173119 14.415992929311223 8.803342026205524
Sc 14.763240470252933 14.29925044578092 16.200262530754145
Sc 14.575439828795044 8.844612274694823 14.195007035951635
Sc 14.460064547671328 16.528532563351167 14.075344115219371
Sc 13.55033091539224 12.758006828925184 10.295399375938057
Sc 12.844071515171844 9.9517598925634 9.352452625031455
Sc 14.164016405064023 8.129666006918523 11.209324129481175
Sc 14.007052544918055 13.627054029639815 13.447303918497315
Sc 13.468713190599937 12.221944041557999 7.317857807312071
Sc 12.906057866826966 10.729662691791775 12.59016585731707
Sc 13.56268190360453 15.808968446439598 11.06211808622529
Sc 13.955953724236828 11.330277652412198 15.71040787997753
Sc 12.182328779022987 16.09838403605074 16.314109758322125
Sc 12.3938735611416 14.867243479524143 8.362707530760597
Sc 11.55552451648021 8.067374294386967 12.898607671444273
Sc 11.222101325039533 7.347994898076155 9.881473118572602
Sc 11.392328348357333 10.05251095139398 15.266464208107783
Sc 11.775875969096534 13.178874583289161 16.00403227749172
Sc 10.555632919957851 9.360448680777287 7.5187342085562525
Sc 10.03205211382624 10.04447021542111 10.833336952373143
Sc 10.70140831220035 12.203243942010856 8.615302836211564
Sc 8.787430810956048 7.342749041917329 11.775996595979896
Sc 10.934059456563363 14.085366565677548 11.012298187916105
Sc 11.532305848984558 15.671654029070497 13.511390210397249
Sc 10.340955581786941 12.38166161592275 13.382970520312991
Sc 8.825682031974239 9.701792908539648 13.728477131505342
Sc 8.266368216666008 7.884858116920445 8.96012571218344
Sc 8.863225158239633 11.793202924457187 16.025141181796627
Sc 7.973216362778028 10.724071109473076 8.303774543154887
Sc 9.291325548870057 14.673056518512059 15.27537346688016
Sc 8.22310189051962 12.700322528272777 10.612749991411627
Sc 7.006167701230608 9.896587396445172 11.179226170845926
Sc 8.543739883832039 15.150734891004069 12.470060187857184
Sc 7.376993368565212 12.445752532050465 13.478851123653865
