49
Energy = -257.53183442 eV
Sc 10.357374291768858 17.863843768606035 12.519486567636651
Sc 9.390885387249737 14.873554928966117 12.963712909611965
Sc 11.262044274105666 17.759018780233898 15.548639105560524
Sc 10.409955113436109 14.92037930437547 15.858027409728804
Sc 8.189065597455857 12.285644029778334 14.390389755896402
Sc 9.610336875023979 12.370143478732842 11.301566456283592
Sc 12.508426132791438 13.082670029564602 11.374040451871313
Sc 12.91794256692114 17.69181561452775 10.683754587923469
Sc 10.9538656872971 15.412165202146605 10.33107271402733
Sc 13.272414177460222 18.880611367528996 13.363778589666405
Sc 9.808819841810974 15.45870099155133 18.588356965941745
Sc 12.26987205180237 15.809955782524314 13.326579510192422
Sc 12.541050660823698 16.206734962299652 17.86146927155989
Sc 9.613866231852061 9.880802698136067 15.637999937202956
Sc 15.124427623749993 17.503081833681662 8.49468920036051
Sc 10.94304632558272 12.44150624067942 14.194658032325496
Sc 11.900504819492829 10.45523471995921 10.299065654955658
Sc 9.605664981755224 12.429473524581775 17.185136363470225
Sc 13.281865407929226 14.039061367393604 15.656044491633425
Sc 12.203862726186319 13.444911831390268 18.43099424184376
Sc 12.92928580622345 15.24692397126617 7.737838388656959
Sc 11.086837569516522 12.8876498613055 8.619662266804523
Sc 10.22396499706922 9.648158905046815 12.734201597959467
Sc 15.660467585822543 18.83971579449529 11.267520862740103
Sc 14.111019267720442 12.447080067384737 8.705358098754257
Sc 14.283301402623513 17.11308490344414 15.625297511055525
Sc 12.2062736104944 8.266802630102521 14.784681716414482
Sc 13.211730776530263 7.88290976123356 12.00430199639636
Sc 15.204332577166172 14.528869755971051 17.891696113540686
Sc 15.213966726810522 11.453789881745129 18.19797301932846
Sc 12.307170613090031 10.948376651978938 16.54589746550094
Sc 13.060376479744503 10.61290715438105 13.244445447186004
Sc 16.072606091279493 14.783312504410935 7.738565505805027
Sc 14.470346272774966 15.042570528642207 10.104289031921327
Sc 15.014313576695933 13.255615789208955 12.875371191518658
Sc 15.092121592295573 10.6748790799842 11.155456604652374
Sc 17.216414039569678 16.34450921838074 10.42281762484903
Sc 15.101190981370259 16.294053198450737 12.694054075045479
Sc 14.427765681120473 6.285406234001565 14.592660256234609
Sc 17.21171816559079 17.657635345370977 13.744216475462375
Sc 16.19997131572777 15.021537868027655 15.164029248207793
Sc 15.089541926644129 11.525834674834902 15.408042438368419
Sc 14.43417165698695 8.71000656087118 16.69086468609968
Sc 16.856185672279192 13.133762559269902 10.382166508700953
Sc 17.4024786896846 11.416229394834284 13.409064298325063
Sc 15.449379543209616 8.911178737773694 13.795001089421499
Sc 17.91370815833916 14.548009513356503 12.917370146640424
Sc 17.62883151473028 12.79683568391151 16.287184204143983
Sc 17.237386816457875 9.813084991800329 16.30663096223986
