43
Energy = -225.30553443 eV
Sc 7.911747971500526 10.77891865304552 10.766248909332411
Sc 8.793602635671723 12.577647330526913 13.532243072265077
Sc 10.254289603518895 8.932736764234294 10.886887348713437
Sc 9.20146473538056 9.4807939039204 13.77794512192521
Sc 9.543896646199821 14.495936669185093 15.660981444753329
Sc 9.12530376530669 9.49870896758514 8.185724243926172
Sc 7.753044364633922 13.775167940923538 10.792026683075179
Sc 11.684561039509656 12.633936981837765 14.647870435175795
Sc 11.515557841195719 7.429491918496907 13.278659973229942
Sc 10.414079738000098 12.292918433949584 11.036042197692709
Sc 8.78032865469744 15.818668174990659 12.897298655157979
Sc 9.933451634211027 11.341157845833912 16.362998124842452
Sc 13.2347439101294 8.91823661493444 10.854306073397396
Sc 11.475782578915016 16.81995187139528 15.093350557817743
Sc 12.268465417019224 14.565968337130684 17.072057438116584
Sc 11.879279628673222 10.75720909859557 8.881621243461883
Sc 9.307948731221227 12.509917093799432 8.443846332766134
Sc 12.129371598776764 9.211003267172158 15.806332492061332
Sc 11.279944311622005 14.669717505643192 12.792151850362073
Sc 11.2058639989971 17.63564140666583 12.114516393834563
Sc 11.83530802467277 10.271577322684575 13.087979591222929
Sc 13.095430950013117 11.661978187845397 17.085630825477207
Sc 10.235257402314998 15.382442895747827 10.129904064514399
Sc 12.568330052731111 13.644703122026604 8.838204352655714
Sc 13.76627515916333 14.919390428739844 14.468209766332937
Sc 14.448312563967994 8.649602025399304 13.905877517840242
Sc 15.628664103388239 10.240750388629882 16.410370645473723
Sc 14.334379998454361 16.822127650280727 16.541111386297125
Sc 13.308535332586287 12.294327796433084 11.409808041753317
Sc 14.020339778213044 17.713952196157273 13.57064459107346
Sc 14.66977220518849 11.785070138939625 14.261798474651032
Sc 15.385060416205507 13.658776206957976 16.63836792886313
Sc 13.413147197383195 15.74677757872818 11.05384131653126
Sc 15.037400855317124 11.518591905265954 9.176538002998257
Sc 15.65388139103773 13.984298270189974 12.280087839541425
Sc 15.993214881099542 14.445610682348411 9.531771818090359
Sc 15.658453043525146 10.13888435007014 11.735608524926477
Sc 17.410226542287692 10.061083924305823 13.961586231007812
Sc 16.584287956997553 15.966362724757362 14.442414570468522
Sc 17.605494824615345 13.01998703601327 14.347709146699719
Sc 17.67131494907966 12.075674585693156 11.263209270737384
Sc 16.161088317096713 16.85871651315534 11.483576922420943
Sc 18.370010810227853 14.887024810578387 11.81843011417901
