48
Energy = -251.22652 eV
Sc 11.926557291986981 7.645084643719335 13.400931447121716
Sc 14.407741039542348 9.200940143621596 13.806706624333533
Sc 12.019068739374065 11.014031308135552 18.354605848909433
Sc 12.122499974615247 9.953338108756357 15.634569176309503
Sc 17.38301059591703 9.959404671334672 14.699131407867203
Sc 9.633069850872468 11.331162194018532 16.354826357150724
Sc 14.766228412457952 9.80014129924999 17.151571287321296
Sc 13.9898943707189 7.9216774074048315 11.161883989872532
Sc 11.244875879726257 9.287807519556365 10.990335987581236
Sc 9.720523080523092 9.830590977873666 13.669281301466775
Sc 14.220044590655476 12.860388509339202 18.059139546285525
Sc 16.327595587036836 10.09099149255349 11.831152056808556
Sc 12.494240502806969 11.315647301570772 12.782226037158052
Sc 10.821386289885552 13.742588192199433 17.895342757766436
Sc 17.10137354048163 11.74362250474814 17.310653496398075
Sc 12.31970741371238 13.066961473718141 15.477144207948848
Sc 8.048421044454553 13.750044060446081 16.307390085032903
Sc 15.088205496729117 11.940641640883504 15.210900883445834
Sc 16.862696923198264 12.195312854164806 9.718752067336418
Sc 16.196093015365896 14.575721107009201 16.677941066006518
Sc 13.93756212425476 10.770685698596127 10.104612877311991
Sc 18.872137142737316 11.386863350170358 12.12925929389317
Sc 8.593091767042239 11.33681609386343 11.329074941854046
Sc 7.203310070706135 11.916978982362307 14.006788183979776
Sc 9.887674642058398 12.911269052507611 13.632934253270534
Sc 17.83456611182693 12.987511756195438 14.481129342831277
Sc 15.305042306648918 12.81286335972208 12.293573064929067
Sc 6.192029016830579 13.321132263675462 11.546228022698829
Sc 11.245492548519492 12.410790590354946 10.158868045571221
Sc 18.066321650341404 14.292224121889559 11.587767894055505
Sc 13.140297925014377 15.633267479549147 16.90743917838535
Sc 14.054594650284411 13.861843116395477 9.577858151281305
Sc 12.257977545226634 14.625182934932123 12.269026139999328
Sc 10.30558996746417 15.523601262431654 15.373947760889601
Sc 8.98896661445079 14.312524276747038 10.988447650770047
Sc 7.612191915727606 14.994705083900971 13.610177967689078
Sc 14.587098729197365 15.06920534570521 14.247182509452138
Sc 16.841218454082238 15.373308898622412 9.0808818856639
Sc 15.302937131591033 15.928446301352903 11.439193738457565
Sc 17.47422486256381 15.941704843857842 13.994356746428782
Sc 11.38934135357016 15.660474592797355 9.56561580851346
Sc 10.033099961117696 16.71101625258151 12.398390116397367
Sc 12.430290879286181 17.273605808328895 14.230497866823805
Sc 17.829093736061594 17.40214313418911 11.347400314461709
Sc 14.15915658640896 16.800327427857464 8.771372653152751
Sc 12.838356306750098 17.72414784538132 11.324480622368018
Sc 15.34154348457516 18.099490928836335 13.339315887064666
Sc 15.51859310267109 18.922603924403983 10.369955043047044
