41
Energy = -211.2529159 eV
Sc 18.031068583773575 11.04788341545928 14.096919054633773
Sc 15.903348973326692 12.246143010918983 15.948818885334516
Sc 18.211610280203267 13.936339567020296 15.13132365036599
Sc 16.526251883767696 14.557354255739087 17.69661360342105
Sc 13.621973356070262 13.19654179886211 17.821759818601688
Sc 16.25465519911331 8.420865373408141 12.715339586715267
Sc 14.872886731496882 10.789958880602985 13.130024914115355
Sc 13.063717485344895 10.824205727741367 15.98634274737332
Sc 19.045792953338626 13.316151774958453 12.178123956881672
Sc 17.61417427719394 10.883381953425939 11.372473028252159
Sc 13.47001752484307 8.524124239185214 11.388528035430133
Sc 13.95018173693384 16.066097737268834 17.38294601382112
Sc 10.698936498653937 11.670301374322904 17.52912032275092
Sc 16.200548755995474 13.427307915283572 12.828156187083643
Sc 13.222884990770945 8.301423783994139 14.151438102555058
Sc 13.420121995508355 13.639123525518457 14.771598120260071
Sc 15.681526702139045 15.666772593583508 15.03767137213266
Sc 10.574876814774052 9.468505480985021 15.248210373147929
Sc 15.222150290612758 10.287104971094235 9.91725476859363
Sc 11.246576638057345 14.738835526694187 17.04968785981234
Sc 10.396622439544174 12.760095602529168 14.867173503854087
Sc 16.597963577203856 13.11042578388192 9.723408028183297
Sc 13.769330032510876 12.79546004212137 10.856036296584879
Sc 11.845665821886119 11.052030606351849 12.838938074128004
Sc 10.501394450767965 8.672038645534288 12.186106381902068
Sc 12.431084470238778 16.427086630625315 14.748932353207953
Sc 8.63172277520015 10.705211648729339 13.498416502294516
Sc 12.06917208708131 10.57061084992603 9.680356624871743
Sc 9.492343373259583 15.752173448163596 14.647884609390818
Sc 14.109293483038831 12.32105882163499 7.92293523193882
Sc 13.986409566618734 15.798858395262988 12.104911845074282
Sc 11.201489862175558 14.331127001251822 12.263279772460221
Sc 8.142002906305017 13.795197382744147 12.893447401558277
Sc 14.354639378826267 15.085519597542602 9.044397477630117
Sc 11.511481300990068 13.61047961413504 9.082415122159015
Sc 9.552173163370512 11.940896756495603 10.896184472172616
Sc 10.603321542430805 17.371177123573926 12.346822165506984
Sc 7.683708775359548 16.89964946979301 12.338755272155451
Sc 11.81562274658013 16.467838841901198 9.891824156272683
Sc 9.02368912841845 15.217679821563616 10.347169614341293
Sc 9.098925463445015 18.14213596257194 9.907654534912076
