47
Energy = -245.44805507 eV
Sc 13.490170949462991 9.816409185965574 8.991634540888088
Sc 16.039553080580053 13.80531036530703 8.222055224925139
Sc 13.366979661824454 12.373036074211008 6.883921029153522
Sc 16.18158341635365 10.990506150069066 8.825539780726539
Sc 18.350944890934148 12.972578721172404 10.16187006981688
Sc 15.323844653573936 9.303166053182872 11.498287680840445
Sc 17.36069705661994 11.201122421140015 13.032424175133421
Sc 10.120590195971532 10.745616408206251 11.495361320978036
Sc 13.42915882845148 12.908237757291163 9.460130865056431
Sc 12.189088942101849 8.386419606565044 11.504759889852927
Sc 16.743282689927206 15.681427759281346 10.468450265559948
Sc 16.43394638490251 9.508877275624736 15.638085234381151
Sc 10.951882710665824 11.137063612910119 8.68918285607906
Sc 13.072871122580672 11.157048656694075 11.748448158556961
Sc 15.748398245321738 12.749936316259474 11.153726729622678
Sc 17.575413529794467 14.267549789016861 12.982612083376946
Sc 10.846649309996604 14.191141993341047 8.550783405796746
Sc 13.932844208846092 7.991929390545986 14.07770390980711
Sc 14.404317428236999 13.788103412663109 13.47969781250716
Sc 9.42629343225357 8.338969490858068 13.130434851541104
Sc 14.548650810950077 10.946092764637237 14.325406631099304
Sc 16.59486710778816 12.845797988258333 15.493005180123866
Sc 13.509883247306597 15.664921962081626 8.152324401429174
Sc 13.578700057056608 9.16738710245749 16.671353889115096
Sc 10.70675946191624 16.860957915397154 7.25561911358393
Sc 11.591381077490029 10.124231936117742 14.201540389469123
Sc 15.52168222547637 16.47834396742446 13.63737159304248
Sc 11.491735410240977 13.802486379686743 11.785274482093643
Sc 8.67063884180776 13.177599272682198 10.612602208786498
Sc 8.603634693121547 16.044874735622603 9.266888849441267
Sc 11.083978070524196 7.723431573453024 15.65821016463135
Sc 13.929381511572304 15.514871603923831 11.148796075717678
Sc 7.4103986460596145 10.73374892374714 12.93671568861576
Sc 14.216963754136989 12.04402464566104 17.239468346543728
Sc 12.071699097817497 13.045663361099779 15.179895398627954
Sc 11.218749848039785 10.892287350846798 17.29371015119542
Sc 11.321967849872118 16.69408702435242 10.228926878969611
Sc 14.254620040667323 14.975570453243082 16.251601041856123
Sc 8.878291260042706 9.982270812524407 15.485229396156113
Sc 9.260080544291279 15.649572822405508 12.301003996808458
Sc 9.401673952880925 12.71081608964094 13.746339898767557
Sc 12.339631162563467 16.050853599763148 13.824882915249985
Sc 11.647459847008403 14.132501937644928 17.8956232120198
Sc 8.962783470842929 12.87479916622035 16.79482721602145
Sc 9.891156105818402 15.295660493152667 15.49794627714271
Sc 11.82606282655049 16.940723034275113 16.882982119705822
Sc 9.276016846791917 15.81104054796116 18.282841547993975
