40
Energy = -206.93948377 eV
Sc 6.879840607046138 11.704384627425409 11.919541772475613
Sc 8.880615574801793 11.505097522876435 14.088199690526528
Sc 8.57834531259638 14.337057843680338 12.682129500092502
Sc 10.29715225931608 11.148577093200641 16.846430040360275
Sc 10.134030520059229 14.143430294950285 15.387070788976068
Sc 10.636424353633155 16.82976736451862 12.850260637180133
Sc 7.6903249926431165 10.659847144628422 9.299834493315982
Sc 7.445049259283187 13.762641559627333 9.825864191214226
Sc 12.647841709029487 13.213246491971837 16.94595120337867
Sc 10.359422875359249 15.153879084506695 10.045236501052415
Sc 12.637731192570447 15.911152953769976 15.276895664122351
Sc 12.062670664209929 17.801826981416365 10.391311713261345
Sc 9.180318307198862 9.33166542679441 11.74765536393937
Sc 12.134350733547105 7.642192675138422 11.071959474931461
Sc 10.73668592085259 9.004122532334472 14.57066852058487
Sc 13.096405904590359 10.062736804426565 16.37875241777361
Sc 9.898060767455005 12.206085347259016 10.97060681944996
Sc 11.77772546208 11.80427428266167 14.438735709383
Sc 11.770489473148288 14.21156614144801 12.615211965416377
Sc 15.005535369069504 15.17556260646313 17.113397289997714
Sc 9.378613345396337 12.65895905403617 7.870813937521195
Sc 13.469917005522591 8.035780600842552 13.887385391995934
Sc 12.20452759313498 10.175616501231483 11.991870724591204
Sc 10.650592226997121 9.934369768963023 9.083109226176433
Sc 14.339026501766815 13.755626155612196 14.19529578801735
Sc 15.556894642549718 12.302539960091687 16.544085294257105
Sc 13.790847387081685 16.511324366475243 12.581816282770271
Sc 13.87171284617503 12.416721510445381 11.198540013667817
Sc 14.842158882114537 10.800927390492044 13.84262763109856
Sc 12.221987364694057 12.675266223594527 8.719828900298648
Sc 13.499646987780212 15.183030977059893 9.90005509743429
Sc 17.80886692687721 14.47091453971208 16.72259203626773
Sc 16.3149135150068 16.004047182750075 14.534585886254241
Sc 15.086568870004113 8.87366833475806 11.430535817106177
Sc 13.691488034814151 10.065065689859773 9.100525418418798
Sc 17.203829756521827 13.086692822220867 14.095129281254906
Sc 16.021221715475786 14.51484910564887 11.610333318974693
Sc 15.512416107329184 12.645801071832178 8.800657147013103
Sc 16.719108800413924 11.457599566550423 11.31741519586729
Sc 16.67614877189107 9.74155956303352 8.853016168958963
