41
Energy = -211.7560391 eV
Sc 16.224490806142654 10.124445580738149 10.429865322049428
Sc 15.960081406966852 10.912389396951308 7.484434643694007
Sc 16.070556257747306 9.661925664250715 13.681192525604821
Sc 17.09263930780546 12.185372122886726 12.528194282202985
Sc 16.723859968745444 13.153531212120955 9.429748609418237
Sc 13.968123744383382 8.967586289674093 9.069362178513659
Sc 14.773398347671986 14.04281710909737 7.4205940478233865
Sc 16.2962157441835 8.639068834517532 16.554726892936856
Sc 13.64708141332783 9.492109961511145 12.076933225402835
Sc 17.070672285724466 11.451850066369447 15.88551762190313
Sc 14.28365836393531 12.384552190769051 11.227494985062494
Sc 16.559300583557683 14.125784254936795 14.672859246095472
Sc 16.749477470858128 15.151285308673067 11.779604233041303
Sc 13.468081848852595 11.658483650769401 8.454449535370868
Sc 16.681971143054096 16.21771650957161 8.888093160133762
Sc 13.55488126401679 8.98710955116176 15.343574257427138
Sc 14.515207820317492 10.9728444917581 17.407698156711405
Sc 14.186407457259616 11.987996777807918 14.501616044119713
Sc 11.422890495512739 10.852293398213542 10.454281945255174
Sc 13.957936452356108 14.908315645110285 13.085397558851614
Sc 14.300134894539013 15.286455283012932 10.074637399537378
Sc 15.001331555585354 13.977450037247733 17.073570820807923
Sc 11.419908462934213 10.5631746084649 13.684579352850655
Sc 11.470696929739065 13.27419946043817 12.419461321255707
Sc 11.630853098829396 11.414601152493583 16.602798834946455
Sc 11.818067773256255 13.817874435631463 9.367259771891579
Sc 14.794541591503581 16.538079647534097 15.399801164400634
Sc 14.778931614218024 17.473943252927707 12.159965158109209
Sc 12.719961014832554 13.242603300376212 18.673352328729674
Sc 12.165458443946902 14.377666639444167 15.581657211813502
Sc 8.854660562731167 11.552714272986552 12.109632996341269
Sc 11.655864114129853 16.23139691955171 11.326747742255383
Sc 9.356346816605917 12.753008691907606 14.878498890447968
Sc 12.616909628833746 16.20413030375186 17.761287071192484
Sc 9.071159613945238 14.256041167538656 10.813233275540904
Sc 10.055050695705393 14.223360701749218 17.7246801788941
Sc 12.2156384870348 17.24688313882406 14.200596815038814
Sc 9.544249313346628 15.679318385337892 13.586474680774455
Sc 7.221561870927672 13.877871736031272 13.141369654582952
Sc 10.07038478644342 16.80111522905283 16.34817814391392
Sc 7.670580303671342 14.982236013935482 15.932880638793137
