48
Energy = -251.43209761 eV
Sc 15.750628213312597 17.024123961539136 9.499031208354456
Sc 15.178118448593365 15.090171556704467 6.8057235813716295
Sc 16.839451477522207 13.700796488032486 9.011004611777214
Sc 16.436154343623535 15.13896738642501 11.711661718443397
Sc 13.239792005738465 17.410744225898064 7.571031829502331
Sc 15.008241233678175 17.044386247624896 13.352651587573867
Sc 17.72305277962114 15.022281444727781 14.524366525454843
Sc 13.240015184916754 14.893374949365723 12.297152251573369
Sc 17.21101740495468 12.307775493757143 12.209657003756671
Sc 12.766609766950435 17.526077737799177 10.81302222762493
Sc 12.148178655188893 14.436891753093757 6.788275820642249
Sc 13.685279547683873 15.146434951951186 9.180272935201877
Sc 14.066768552922436 12.188473546406932 7.906454372386591
Sc 16.392487714124265 14.055601051763999 17.105416759348067
Sc 14.715381927527616 12.833452089062341 10.708030995393353
Sc 14.28524787380867 16.235269635328066 16.286306238226157
Sc 15.199334545407579 13.978744851502833 14.335076791194245
Sc 10.719916812349876 16.05708763157827 8.837993407396123
Sc 16.849585847889546 11.517781053259219 15.0726457828002
Sc 11.94322874287649 16.771396824218087 14.27390304178874
Sc 16.03880413957065 10.512443577942285 9.703857852016705
Sc 15.905252497112858 9.522398074117392 12.567921920265144
Sc 11.161711565095134 12.821800070186791 12.897084596628506
Sc 13.639333177026321 14.323102606436569 18.451143918228635
Sc 14.300789657485053 11.946502745170694 16.71684638811252
Sc 12.970873972324847 10.486316460425016 10.603707947289662
Sc 11.66511182519206 13.297751767000987 9.865148276890286
Sc 14.014117607285474 11.45226963503116 13.427203518642303
Sc 10.365334399634133 15.618914389700128 11.773596877365016
Sc 12.316100906955159 13.938859530575888 15.531585779739563
Sc 12.742769417529603 8.478432860603261 12.97103325344683
Sc 11.014414228018486 15.520989195880883 17.301385345237485
Sc 14.42857193907192 9.083592250939038 15.449680171783633
Sc 10.36302753290982 10.239618769235486 12.147455180253173
Sc 10.258288305678846 10.75310731488976 8.984588465086844
Sc 9.506956755523518 14.893506665792458 14.564588166690239
Sc 12.728038194986365 9.591741518400012 17.99646086356103
Sc 11.337298584557994 12.42868387879777 18.196243001084085
Sc 11.56093245906579 10.734702334814148 15.267027838307474
Sc 8.905527369891896 12.930128625587813 10.681496240462137
Sc 10.762975465887974 8.078837866545854 10.221678125055869
Sc 8.155214378696723 12.174931984207651 13.385269902455754
Sc 11.362205199116044 7.839049086530333 15.710291762901917
Sc 9.148683030195977 12.443317582347296 16.184726553626327
Sc 9.789100746603252 7.373102121712659 12.883174631691567
Sc 8.047420845798783 9.529847912065824 11.155505067660425
Sc 9.833135540307948 9.794125574816983 17.621283209489366
Sc 8.77142362558005 9.496065595597624 14.74700561689585
