48
Energy = -252.3703839 eV
Sc 13.970045777793068 8.585609525855656 12.74255644065457
Sc 17.326310319364932 9.904614106234705 12.109404946665686
Sc 14.844374620032868 9.314860542060497 9.83059287245464
Sc 11.794997805748611 8.702113102599291 10.562247167289991
Sc 12.881778400030818 9.453670422559375 15.601727280660464
Sc 15.714506033764007 9.841559321266022 14.758198828435706
Sc 11.906318418907063 10.853329478747684 12.816675525130696
Sc 12.60845403132584 9.50103885964747 7.581647200392577
Sc 10.66118197689689 8.36679367766611 13.74834045891024
Sc 10.025990744031171 9.681179618953713 16.937771129389787
Sc 15.09370687302394 11.516233037532151 11.99733919631155
Sc 15.03327470338362 11.675682960824576 17.152482558970757
Sc 9.125410839669907 10.095991040029496 11.619669525059516
Sc 12.447978899086571 10.490134674168909 18.44134599383678
Sc 16.96735114680817 11.334320967697158 9.428394993176772
Sc 17.026114998995876 12.40038880879023 14.464016547694838
Sc 10.00769759954201 10.28416672921605 8.695533244836337
Sc 14.714913579272027 11.676866635360774 7.594587532581467
Sc 11.419328388941086 12.152811380606845 16.159564654483994
Sc 12.665533931753641 11.561729247374382 9.821393625918827
Sc 13.987388489831936 12.452833762397905 14.556164451020969
Sc 12.536617547133705 14.239587671181921 12.19684743621518
Sc 11.69010598128709 12.457371521800294 7.225973053911672
Sc 8.829140272907539 10.674415843707768 14.401631012313047
Sc 9.947202739283545 12.776927568077221 10.494572599542888
Sc 14.89008969444062 13.95533262235304 9.96025651060728
Sc 10.071627585950345 12.289799499429938 18.80515547728663
Sc 17.73289179690899 13.224418222936361 11.394403031268473
Sc 12.931297207739853 13.60955863342774 18.313296068902623
Sc 12.051766227440439 15.010355072469482 9.268613558351554
Sc 10.183613406103607 13.208037159391665 13.559833177533289
Sc 15.570149011592951 14.815939057958857 13.15484787505663
Sc 15.171041107479299 14.697505615867394 16.31807541910561
Sc 14.024266892144203 14.438797963265477 6.887491919933933
Sc 13.970927511494 16.726944532170915 11.273953569615237
Sc 8.502380027568153 13.095348931975005 16.09288017946607
Sc 12.158963698955844 15.076828131643943 15.240925857944358
Sc 17.016893632590456 14.25841474906935 8.102161710087778
Sc 16.9278368604376 16.164273386621822 10.58589226284933
Sc 7.612784862204569 13.067856844503158 12.696723162801296
Sc 14.997093635602877 16.656275815776407 8.405166568588532
Sc 10.283558275377734 15.221716855660057 17.537529561696932
Sc 9.573999028616525 15.42930575031144 11.551069408592976
Sc 14.083737011535824 17.236675400463227 14.6240756833553
Sc 13.166475643040457 16.637763454887082 17.660782284288146
Sc 9.127816486003535 15.841702794337294 14.577432605652426
Sc 11.433005577885012 17.196989725566862 13.020169360011316
Sc 11.241121667501767 17.847451992804448 15.93666438063968
