43
Energy = -224.37195421 eV
Sc 16.834833476629015 14.2774245120745 13.36138743688714
Sc 16.722757415311616 12.318503564735671 11.165668327951437
Sc 14.806065791955682 14.649516054984202 11.141910940167294
Sc 14.775828979890091 12.740834556636248 8.664966031809804
Sc 17.42590104056672 11.36826851608076 14.284874758379104
Sc 14.746279262728011 16.576628761677203 13.76137220009478
Sc 12.8788903904875 16.852287133842573 10.967743596143546
Sc 16.152794880076115 9.626589685430874 11.701089162804559
Sc 13.428869497679951 15.515649218843672 8.118856306329608
Sc 14.859208333155353 11.827682369683934 13.62830949331302
Sc 13.548313819809845 11.814281760660185 11.1830108480072
Sc 15.145226514547172 14.010207809501502 15.775231054363157
Sc 11.772820607357811 13.812859557712951 9.72207307369197
Sc 10.76144086351459 14.350086918774608 7.01026508329859
Sc 15.509144093583984 8.804968298611678 14.542404771214247
Sc 12.918460634624406 16.15719018396904 16.174544774783293
Sc 11.783576323195208 17.276500169532756 13.731504941068584
Sc 14.537918734566107 10.940456768240963 16.537547048611867
Sc 13.376189830683717 9.166656745245483 12.545369582825439
Sc 12.362223900331108 11.746094216449558 7.26383890730556
Sc 13.92649819932859 9.681964480176113 9.011936505437792
Sc 12.783158512480636 14.312505453975845 13.692552357607177
Sc 10.662447009953038 16.565706069233382 8.991926753029155
Sc 12.058854731676801 10.99516175718561 14.66568181675072
Sc 11.316060274202682 10.420871655518242 17.506279834460088
Sc 11.06828458485723 8.934348221122189 7.59577220781735
Sc 12.846925486149203 8.453934546919 15.870437179203302
Sc 11.86896634093267 7.697323406694722 10.29823415313971
Sc 12.208757399420868 13.240065123853178 16.615403469260833
Sc 11.116612073686214 10.65834968909229 9.894829236048654
Sc 12.01840816905151 6.803094957243513 13.567466259822893
Sc 10.160778333180776 15.523152960184332 11.914352594926857
Sc 9.278969791487476 11.570664979831395 7.774367076232233
Sc 10.098764709838303 14.886298557235957 14.935948358238438
Sc 10.404753349553662 12.41983603677345 12.502521641245751
Sc 9.920497668959246 8.806550068884468 15.335695344975047
Sc 8.759037127598107 14.233763180261565 9.491781852526927
Sc 8.846130713190158 8.790955760683294 9.90751043016381
Sc 10.441147286144483 9.13666909571568 12.46494102101973
Sc 9.372131778805036 11.960824236980416 15.496115971888464
Sc 8.064453245327146 11.638386710825758 10.56052787451845
Sc 7.8283299290478405 13.592748578499492 12.850456147164211
Sc 7.973005043047596 10.436181156484723 13.18008949202955
