41
Energy = -212.81701119 eV
Sc 11.245805230629157 15.713168103689215 9.75260712111939
Sc 8.943924592485468 15.05913907286177 11.678279380392379
Sc 13.45652963795669 13.59430225988135 8.64958646205134
Sc 10.99933227011453 17.039563915254107 12.703735960778262
Sc 14.007787297098387 16.54847023759113 8.586817842131529
Sc 12.87242453500683 18.293352462617236 10.686079540064714
Sc 13.061248681540153 10.515865177647619 9.086713918772388
Sc 11.35573953083205 12.753894128154956 10.888935156905308
Sc 8.270712588041981 11.909084690008514 11.57085230714064
Sc 7.566037225744136 13.6284021355825 13.829610124487967
Sc 9.23055689560484 15.659920555358775 15.124735795353033
Sc 16.22215379023662 14.650337514731051 9.561308046590833
Sc 10.957635901200144 14.0823268780057 13.663123268640781
Sc 13.502954750723543 15.456753150860365 11.697177106203823
Sc 10.2182214180816 9.743113643649922 10.324840337969603
Sc 14.66451302914487 12.608449131390328 11.410832671907285
Sc 15.756677698461088 17.49619944279596 10.844344314823168
Sc 12.409451621002773 7.605782113573824 10.019428679080763
Sc 14.18365950520507 17.73372623885125 13.45379320972313
Sc 8.120988095890004 8.839674493042923 12.306461205276685
Sc 12.056542160736676 16.555862589363485 15.389801997285845
Sc 15.147302609949987 8.521107578762532 9.860709204347442
Sc 16.496881436520727 15.15470443433152 12.65107985413298
Sc 15.982442304867662 11.426491510620103 9.102302441304037
Sc 7.202445373838095 10.73496845867469 14.250370066200544
Sc 13.153587296508473 9.812796348160585 12.059103077742227
Sc 13.24559525454655 12.275686769175149 14.174672368699989
Sc 17.727181707056108 12.634707880062162 11.315177961326803
Sc 14.410288726488814 14.916475374312261 14.88854013691354
Sc 9.256620389529028 12.305031450010212 15.83885095595847
Sc 10.796372234819142 7.501817363291066 12.514067413708272
Sc 10.443408115605378 10.750706916961333 13.398078856367045
Sc 11.865407165035567 13.789097910325115 16.565914446551187
Sc 16.29217983372621 10.039556356220144 12.069492767044652
Sc 14.236524065030792 7.266906143374793 12.554361611153148
Sc 16.322460697673968 12.393111626630661 14.114271560969879
Sc 9.347065279772453 8.801732346664227 15.215222956141696
Sc 14.78120217444112 9.77686850031724 14.852348616340208
Sc 14.607395253101364 12.334014315325526 16.754308979910654
Sc 12.299079983722331 8.24076392062833 14.791068505633854
Sc 11.911039954879616 10.691723278853422 16.35620599894548
