49
Energy = -259.11208549 eV
Sc 11.149501298852115 8.333612030754177 14.322821608554912
Sc 10.7372127563133 7.2212715278472315 11.418219333349738
Sc 11.35697706850375 10.17342984738575 11.272249016237547
Sc 10.773885198712541 16.09614360601544 16.344653261464465
Sc 11.404347682112954 15.954158861425093 13.276443728981413
Sc 16.150582417968735 8.737187758270245 10.402203262994512
Sc 18.07323990055525 13.24197640956359 13.69746873645651
Sc 11.380676210398303 11.766104924429603 8.783717796310656
Sc 8.50382585513057 15.621784234550594 14.085061726008377
Sc 11.652159746972767 13.74243862271279 18.25702054823982
Sc 14.385378916411685 12.411017646503003 17.274118766092048
Sc 14.525022847327097 15.551236841740572 14.051877808105765
Sc 16.5001824311179 8.542899527994493 13.583120900275457
Sc 13.549155135679856 8.263320393731748 12.305595267853917
Sc 16.63296041922558 14.445168414975605 15.995954768137464
Sc 7.8053372117087685 14.644426353267168 11.31894486304826
Sc 12.884656751178277 12.926347064347702 11.507998809083858
Sc 9.34314930691389 13.317204449840201 16.101637211602572
Sc 13.022528966467055 17.992985260582312 14.974878263242624
Sc 16.066706790111844 17.528060017572102 15.554878352044568
Sc 10.641395523262576 14.605229268300661 10.273797265042413
Sc 15.199870867398698 10.726793747513376 12.232887554758863
Sc 9.992894863242233 18.429579499962912 14.166450943029862
Sc 12.288425643781602 10.948170968102783 13.859506386880483
Sc 12.255279932187262 13.662244506616984 15.405003257535773
Sc 17.428152592069004 16.021950873294887 13.151122540180658
Sc 10.086276977384548 13.127827543638181 12.990188991522576
Sc 9.290658294626134 10.669163720776755 14.869040434723596
Sc 14.074225793446322 10.774147014796837 9.483453920802352
Sc 15.198156175859985 18.053320545327125 12.593068535565186
Sc 14.301159721417548 9.602297842034677 15.534362440212123
Sc 8.80177004926248 11.895096594262704 10.529415795419178
Sc 17.1549737823 10.935624318925482 15.389273291746816
Sc 12.590683766470864 8.251611194890371 9.270745944530201
Sc 9.535874201120013 9.102939451339678 9.314586663899709
Sc 7.355185399173663 12.411142140420909 13.369425930286766
Sc 13.900798485966483 15.642897329331124 17.04773522105472
Sc 18.61242176138908 13.94615848426112 10.862792139785391
Sc 15.759987529784528 13.77672702313743 11.752574489933663
Sc 12.159202051192999 18.633641952028253 12.086259921835143
Sc 8.646783669557953 9.36613235930178 12.337787985357073
Sc 14.955196944524445 12.491040200808557 14.40127856590497
Sc 18.17515474473702 10.789069886422423 12.13240295434263
Sc 16.368577284637226 16.10222727764353 10.219979712345033
Sc 16.789194335730617 11.811810621011452 9.620186913526124
Sc 9.393727107511292 17.233876350810817 11.531572511788394
Sc 11.602780320552226 10.98978246036694 16.787699144550153
Sc 13.461577140538008 16.003113228343764 10.986035620933187
Sc 14.299104069725379 13.803494753337574 8.996796477919325
