41
Energy = -212.60306935 eV
Sc 9.448754855913938 10.487244422279183 13.108968171264255
Sc 11.53080833976281 9.427468159506391 15.384582969645244
Sc 12.21289726041297 9.377449467154424 11.99199908025769
Sc 10.126356402887147 13.421831581375427 13.10943580459401
Sc 10.817977746225887 11.393751391840796 10.54567655663229
Sc 14.571154132732055 9.470380912940298 16.876296072183564
Sc 9.548329720484514 12.064317753134477 15.643008702464106
Sc 14.196024754847636 9.166316899964785 14.044877151007908
Sc 15.294969467937063 9.613073743343556 11.313367309383437
Sc 12.661409484593836 11.872747420609961 17.04072814830106
Sc 13.338993316317286 10.819797611304173 9.002132876117624
Sc 11.168892121875677 13.010029388248519 8.192045859088324
Sc 8.77031718413871 13.422752019565126 10.231414458765153
Sc 12.403642675732211 11.80500586503376 14.027653557400187
Sc 7.400442643835061 13.028635856036056 13.222565911343775
Sc 15.364651311665499 11.986413185982304 18.410519972799808
Sc 15.416341791114943 11.98845345113966 15.292905402503381
Sc 8.675339015151428 15.14634889485537 14.9594798603816
Sc 17.086799004088956 9.479243876176819 14.257033615216818
Sc 13.958308112502074 12.299911787732999 11.441894905906171
Sc 17.53728646963895 10.483000085449362 17.053269376805286
Sc 11.726471477588063 14.448278448696355 11.097781023220485
Sc 11.66466774491339 14.455888982219713 15.673493053354864
Sc 8.688739104215351 15.787497238525336 11.88157343625335
Sc 16.103970565277173 11.92114824610256 9.477746811645837
Sc 18.827934342893386 11.901259427667924 14.757554881986765
Sc 16.812129151058226 11.991324690750432 12.463484537591619
Sc 13.79713331989239 14.07826356774631 8.902431934027874
Sc 14.145780617842908 14.742769546687434 13.735836407562523
Sc 14.44532658136573 14.534068766449142 16.90488797987895
Sc 10.63071636965677 15.805230586557279 8.936335242514078
Sc 11.34092833149791 16.538024298740385 13.4640173754885
Sc 17.45049005365157 13.660947090952765 16.841933282790784
Sc 17.297762845708483 14.580038671809628 13.904009202310707
Sc 15.892093206373305 14.739233167577652 11.080235025956
Sc 13.58710566767584 16.79366574652581 10.776992187901993
Sc 13.515922249023028 17.259803715830408 15.433035343657117
Sc 10.838368899713725 17.9027772741958 10.977344016771907
Sc 16.37093186264774 16.491353046197748 15.857692524483578
Sc 15.610733048205635 17.306527275144067 13.108686059003189
Sc 13.010754437051155 18.91667664277999 12.849003506645449
