42
Energy = -216.99849776 eV
Sc 9.363717966859783 15.055228067550056 17.518067911813468
Sc 11.289000734419776 12.971439293921543 18.649903108261462
Sc 10.233756090317998 17.023173779059388 15.232074007622389
Sc 8.270405196972073 14.938221155163635 14.570725812502596
Sc 12.195634993590636 15.009492705123833 16.60769276343814
Sc 14.17325279786236 12.826031220787927 17.722055566395817
Sc 10.132197067473161 12.678160427745498 15.940204329856872
Sc 12.175111858685202 10.572678463111941 17.05286717881156
Sc 9.198087360560304 16.747666571063014 12.43097040064001
Sc 7.17115232414734 14.451007358058764 11.63693427646353
Sc 15.190266351878455 14.830207765598715 15.396546675663929
Sc 13.279385425688146 16.892661525878065 14.15556496263506
Sc 11.139262393246922 14.699357629408883 13.550142958556137
Sc 15.094427772106648 9.957720283326374 17.604926108979246
Sc 8.94510859965731 12.358449671505769 12.786564515863054
Sc 13.113526990431584 12.50886056869535 14.840679556616013
Sc 11.03518082088065 10.262800738150151 14.040785804537995
Sc 12.209492506040087 16.607102958286557 11.264776053941585
Sc 14.285438378943299 18.810458859295686 11.919624815907298
Sc 9.930998996896758 14.379043189752025 10.505507986473843
Sc 16.136553705249884 11.774593271981827 15.510921872981971
Sc 16.941698367849412 8.933870230477794 15.397211227890422
Sc 11.934912700723709 12.241444041144222 11.725884460250992
Sc 14.072653800572839 9.458231354859459 14.800818635266552
Sc 17.19363310439695 13.869614054737449 13.071811012453189
Sc 14.999575125322774 11.490617355694056 12.439533804643634
Sc 16.159101884265684 16.822598374039313 13.089958216082657
Sc 9.94133955078195 9.953383818687316 11.049842602892802
Sc 8.047778766019528 12.11697350011674 9.970389611868711
Sc 14.160983152776717 14.54043918499591 12.40627449190148
Sc 10.876894018080312 11.876056591854757 8.811858364146405
Sc 12.863090493373955 9.322968468512716 11.752032301631196
Sc 15.095877006186507 16.53694706186109 10.197292718905539
Sc 12.9835836288668 14.223802752004667 9.458239133047167
Sc 17.905927321044825 10.742432204445954 13.008121956946638
Sc 18.87907547783561 12.845001365745109 10.844598908128686
Sc 15.94483062619387 8.630789446658458 12.437162032574271
Sc 13.803609333756848 11.246356814798077 9.515196198707804
Sc 11.733541907772937 9.037108207535008 8.863396206602374
Sc 16.852403557511174 10.484301178066586 10.260586894453823
Sc 17.969925066781773 15.70310875810515 10.874806848650936
Sc 16.076366880786857 13.526689641688435 10.087507440194289
