40
Energy = -207.02608895 eV
Sc 15.73537114902408 13.551714823810736 17.52010708568366
Sc 17.969567360836233 12.169218417452157 12.92923796600044
Sc 17.346349607346195 14.291370288459815 15.08439367810993
Sc 16.321894335323904 17.027122050176438 14.292151728013508
Sc 16.603390191799104 16.43634932455996 17.2752820569449
Sc 17.014894577419113 14.962319333226763 12.035823244231265
Sc 16.046236708129726 12.472432351572305 10.572455806662832
Sc 15.571542476753564 10.170391669506307 12.675979961288894
Sc 16.37234477656148 11.31502346453293 15.423133374405571
Sc 13.855534691757915 10.34284642702509 10.114433591993967
Sc 13.485713205421925 18.005101010422006 14.764298951249302
Sc 12.9246650213771 14.579455355001784 18.027564697989376
Sc 15.068053068029203 13.06013326215548 13.322327975751364
Sc 14.316838133569732 15.246588794235294 15.519762842320455
Sc 14.002751088464116 15.962594301217308 12.456602863611609
Sc 14.932842386177287 15.247092743075713 9.559379068049331
Sc 13.89471573893879 17.436696915496945 17.71412607918889
Sc 14.42963522025991 12.654729190209862 8.020646696488777
Sc 13.832827187653223 9.33867472680211 15.146398673815867
Sc 13.378467237241242 12.283204873143601 15.958150232418653
Sc 11.758621461097698 14.201026535752503 13.915736106241832
Sc 10.441343465720246 13.368750901247916 16.50741109590456
Sc 12.787171205320629 13.347972653274937 10.646803242978864
Sc 13.063663017422918 8.065530908838976 12.451916760618339
Sc 11.370604302429017 16.36380896071239 16.150769505300612
Sc 12.706640751436042 14.849958590564325 7.361746241174723
Sc 12.403044676993245 11.062194568010906 12.926064370788339
Sc 11.02933207852817 10.300578114945647 15.667006630660632
Sc 11.040138027220562 17.016858307385526 13.099382035091281
Sc 11.986263306754834 16.25161900121054 10.089676913145384
Sc 11.706136008131605 11.491012541228015 8.224444388070381
Sc 11.456536519942363 7.287724122236279 14.79983670789388
Sc 8.968640432254388 15.253882820669137 14.570105836159811
Sc 11.222716722937008 9.021168219890484 10.309273839196985
Sc 9.823627776371165 14.606037319754137 11.69925948957252
Sc 10.334275187097203 14.059886772534345 8.7681252454305
Sc 10.643162153844576 6.417321454517279 12.013195170334072
Sc 10.025241438221173 11.669972392737282 10.817574022067769
Sc 9.458518399843951 12.272105971796137 13.801194606367366
Sc 9.98284559731355 9.121548823788999 13.019112432763468
