46
Energy = -239.95210535 eV
Sc 12.143691012525068 8.82623782319548 17.434677727863644
Sc 15.209737413719234 9.09159775719365 17.172651848066753
Sc 13.204395273227256 11.13196613034191 18.841427373196446
Sc 13.354697289342498 8.091621261987454 14.792690684551834
Sc 10.273013241243913 9.189694928680177 14.993513663208327
Sc 10.638649058202404 11.49069656111672 17.010521805302538
Sc 15.644024501052947 12.197656397394157 17.75444506195556
Sc 13.651508793912445 11.048249246467591 15.77913051684908
Sc 16.246415757895576 8.15679933705188 13.856191154123904
Sc 16.770778320941893 10.967087054600965 15.12944191279742
Sc 12.805351021597149 13.723633464878253 17.055549184266813
Sc 13.838171526225604 7.504917613158877 11.624569870008568
Sc 11.959381432019773 9.444779954492605 12.56061138681062
Sc 9.089545804113204 10.086161142177478 12.082868390679646
Sc 8.503695294395333 11.832358194403549 14.548279938529383
Sc 11.487005893149814 12.08880701858351 14.0491924255489
Sc 14.910209185942763 10.446299198298163 12.663873977024986
Sc 9.89420457017524 14.249256668604405 15.539363081469782
Sc 15.248325027336564 13.683684131013436 15.097614371344873
Sc 18.02195606569624 10.304462221852104 12.44791772839594
Sc 16.422519652919405 8.624710508127366 10.699356455737291
Sc 10.895896912397864 8.98821853178467 9.789643684507089
Sc 7.953941235139473 12.754645537918192 11.808701926012597
Sc 7.869671922107145 15.362539591281683 13.416892791995547
Sc 12.690966925828247 15.199599729110243 14.242300737806177
Sc 13.766167536746295 10.018945519094352 9.720416608954597
Sc 16.349493741709985 11.753697534136624 10.211572218866857
Sc 10.349927159584063 14.468300446159539 12.387798220846571
Sc 8.88479858155121 11.791068034999695 9.190250782209892
Sc 14.057445049861414 13.341511882517382 12.150692592836647
Sc 17.093300247464143 13.239690479464848 12.79618118463431
Sc 11.559181150236178 11.289911339753132 7.875063376192256
Sc 11.377323576995972 11.863563120163725 10.842513394787236
Sc 10.316670347179866 16.953539667333647 14.518332877028154
Sc 12.648389823832542 15.876678515841597 10.864180773812098
Sc 15.468987036570654 16.07268410589035 13.069488360956592
Sc 8.354132730594284 15.119991740612562 10.14935089953258
Sc 9.969220332911728 17.476505879251494 11.592264458365287
Sc 12.839887450988416 18.060053781886683 12.917389469515484
Sc 13.819333278067285 13.222328439861904 9.01312949431883
Sc 16.00003474495659 14.957928665397791 10.25353781104331
Sc 10.89823529609288 14.105724552013127 8.924720521650684
Sc 10.486837104947872 16.972037164117197 8.7011415406291
Sc 12.338005691565577 18.80245424421906 9.921614476998293
Sc 13.573294300828858 16.382037872925125 8.20595475191154
Sc 14.99518472995211 17.7592683868956 10.631379298900525
