46
Energy = -241.25001129 eV
Sc 13.567284901183813 12.41443875965353 8.85799906505351
Sc 10.523082479651205 12.635620832001958 9.101419731989866
Sc 15.375749417319934 9.931357662642487 9.311758156294028
Sc 11.919471183713343 15.62739245280378 8.479064562368984
Sc 13.714654680705907 7.153589100828254 9.63308087570457
Sc 16.193643702529247 7.428004047532119 11.147264447116294
Sc 12.05200010212755 9.832807521341707 9.30934473439782
Sc 16.908159888323443 12.75906304483452 9.819143288385305
Sc 17.01185242221794 10.319274405520078 11.990919238198831
Sc 14.752374785092426 14.92962989907699 9.473102675630685
Sc 12.007082550707088 14.613877235574197 11.040646739882256
Sc 9.177247512327748 15.314601530407785 9.721231515490588
Sc 9.502429312470348 10.184106672188811 11.262785147799288
Sc 13.58863982167422 6.636257848336175 12.91503353542561
Sc 13.896698466835339 9.242006342259186 11.729528152903473
Sc 14.847031924902979 12.631582742250417 11.757419953852498
Sc 9.121705355895752 13.24499176157611 11.779074242655986
Sc 13.736086503307476 17.26064790117343 10.941275968471176
Sc 11.22048229651721 7.628515923783823 11.19192001563231
Sc 15.915271595074135 8.262890454310286 14.070483492043191
Sc 11.896894961785632 11.711603351578027 11.908447860704472
Sc 16.5629786220522 15.623004112459816 11.624490870459276
Sc 17.5721754475419 13.114025566231806 12.95127902210477
Sc 10.58694740303195 17.379155454280564 11.27164721310545
Sc 14.049634953721144 15.296375785653117 13.283564617273978
Sc 11.525619508872257 9.091128280793438 13.757138880877656
Sc 17.04297548296252 10.90715354703897 15.03952744185443
Sc 9.64850479921305 11.430386862701157 14.202889860978782
Sc 7.793531371863451 16.226107475585998 12.514753490744967
Sc 10.264371900369806 15.413583771823996 13.643607592071845
Sc 13.568466641258935 8.28359167812295 15.870731225560577
Sc 17.05092503043937 15.611525050359532 14.622201848386391
Sc 14.705077398818041 10.890940361655321 17.07392590259902
Sc 15.483050213409527 17.906968165768202 13.551352743426643
Sc 9.44361041128826 18.27124280622967 14.186536503702142
Sc 12.10663020441497 13.370088338111167 14.62622554127585
Sc 14.081377682194082 10.872015016111463 14.255391637383552
Sc 12.454270319948424 17.780938103908458 13.7540422619079
Sc 15.304856682875918 13.366051972361905 15.299299033456075
Sc 7.578874653859588 13.698052897929527 14.330519106689524
Sc 11.764598912939938 10.859317301899996 16.407316860373193
Sc 14.360337170156287 16.337508891180164 16.01284100920796
Sc 8.13473796363391 16.196676384860304 15.70705049081745
Sc 9.789100856370675 13.570741052321555 16.571832726307665
Sc 11.276794581401237 16.22580205342212 16.244848161162757
Sc 12.933760149022705 13.658031029632804 17.369711451444026
