40
Energy = -207.69305991 eV
Sc 10.02807290276796 15.514881558538484 15.35050485834859
Sc 15.054754095882483 13.38553438148048 17.025709417860266
Sc 12.233015789868922 14.306825927212191 17.427311229792473
Sc 7.351431567864051 13.9177805334381 14.915784699783368
Sc 9.642123767481072 12.683521521142186 16.617568791632124
Sc 15.106468680648966 16.147922804628493 16.001355411137606
Sc 8.203136228137799 15.707008576035623 12.723781643858354
Sc 13.005100252810765 11.31089390690751 17.516014665222514
Sc 11.142350515341985 16.409008333030147 12.583745563536874
Sc 12.981781594140976 14.817607115851047 14.700555482303002
Sc 13.99771212691885 17.59238151863214 13.317423959147979
Sc 16.26228812070527 10.659309690503614 16.081486714158103
Sc 17.195162672379233 13.993662296375696 14.957309563875931
Sc 9.782892299751241 13.193015882961447 13.361396822451407
Sc 10.477668455322908 9.791850572314805 16.26960938263268
Sc 14.87483138569418 12.180504411063506 14.255635722150643
Sc 17.049214032017364 16.959888441118935 13.820039616045849
Sc 7.371172604429226 12.788330689490994 11.913526911246258
Sc 8.018880269797725 10.957129578807123 14.498326637252683
Sc 12.00044331568801 11.93736274208373 14.899369261874487
Sc 17.572121777693518 11.565833172286926 12.8209345061691
Sc 17.918214963037144 14.596322826825398 11.859780644506708
Sc 16.15988367374207 17.28732039629281 11.026150220871473
Sc 15.16595172704084 14.98986243922053 12.653817277052484
Sc 13.393368324105912 9.354242025453138 15.23524439709574
Sc 10.00160008883371 14.61789145322448 10.407699164219283
Sc 10.510602802257212 9.790420784532312 13.222320622241977
Sc 8.028122519747562 9.86783588182314 11.611571901985522
Sc 13.277724204604823 16.19187490558737 10.448814868918753
Sc 10.502619057057654 11.603822240022442 10.72084390202397
Sc 12.392418748992332 13.632726693266882 11.96041074618167
Sc 15.185097103223923 12.415365282020225 10.977657941476656
Sc 15.716523068670655 9.285497350293864 13.336340842924963
Sc 15.810007703074831 14.728460120901321 9.26292653357009
Sc 17.919455926911823 12.331559427169868 9.741327916257177
Sc 13.23686530484466 10.575964785979712 12.325013030914707
Sc 12.880120531506401 13.319876946651425 9.006953467058965
Sc 16.219854020131333 9.807985702945073 10.380689291528293
Sc 13.264966844457234 10.295457239125028 9.416274963191327
Sc 15.465089607347714 11.796326094281893 8.064578156911049
