47
Energy = -245.6179344 eV
Sc 6.942945476487776 11.182559117238666 15.070420587295628
Sc 8.498406289768727 13.69061375337157 15.856247340648826
Sc 9.865527712046392 10.999456157067778 15.977774236866663
Sc 7.448184635031107 15.434602740198287 13.51803419322465
Sc 11.483375406181418 13.5830659733206 17.02578959031918
Sc 8.117562644391498 12.626849040067649 12.808671824110428
Sc 10.187592201227776 16.185664663875436 14.723281200304697
Sc 7.960779998969548 15.110335881640015 10.08997467410966
Sc 9.15105676650118 9.907823788275142 13.210061686118053
Sc 12.905010976406853 10.691477711744328 17.293189994456554
Sc 14.342952155743928 13.586180386458398 18.08618641896201
Sc 9.296963096087536 12.200991750555493 9.961194926524325
Sc 9.039916570337814 17.526833326023137 11.998120031200665
Sc 10.9279631429015 13.100405665099597 14.25533751702225
Sc 13.188828397298266 15.250889845977804 14.970340114945193
Sc 12.14405675272764 9.725466346157264 14.189577416996702
Sc 15.985741471192542 11.403861045210368 17.31863127810907
Sc 11.243099366506124 11.597005523766109 11.85985982717645
Sc 10.034151189007844 14.792625733482097 11.9436511279059
Sc 12.212745162023559 16.739083174792974 12.31267052228193
Sc 17.579217858320902 14.219333982196023 17.62286160065652
Sc 9.874421961373132 14.185984635835009 7.760243122618051
Sc 13.708545957797377 12.215378359220724 15.068794816507237
Sc 10.541804090322817 16.68889739726538 9.501989782382132
Sc 11.974520521879144 14.126755967497115 9.78103321170756
Sc 11.73584982358869 8.808191192120065 10.988999569412734
Sc 13.376351198263258 13.782427773985264 12.294132540135577
Sc 14.724090314027762 17.797625002074113 14.123278699377309
Sc 14.860131944420159 16.44334881565558 17.10638018997003
Sc 12.267907763003619 11.222929607190139 9.059272986303975
Sc 15.974354639896736 13.92985656031316 15.61592465317305
Sc 15.332212327032632 9.619796337335403 14.990547818738978
Sc 14.21251239698765 7.908520625382719 12.51485882430273
Sc 15.813397514117387 15.291692149737642 13.133119402311847
Sc 14.627751868610657 16.07977061443008 10.518644460592567
Sc 14.008704847601777 10.724810842002956 11.696485304388277
Sc 14.781684732198125 13.09229674153665 9.539329623689891
Sc 16.172205986737687 12.221149384659158 12.996882180557009
Sc 17.24387827310438 16.69441512342209 15.360238153652046
Sc 18.582472677219233 14.381180379370603 13.943009779218965
Sc 17.505126643835013 17.19399612835426 12.264603005944073
Sc 17.35119825057054 14.205894608385236 10.829768159013927
Sc 16.859858978185695 11.106327872996463 10.094904649596241
Sc 18.021986830503224 11.417488320374483 15.219541398146129
Sc 16.98940429066856 9.26282186511387 12.324955601000653
Sc 14.662938258149376 8.911500274852845 9.670756761467963
Sc 18.89491393055758 11.754888235677178 12.28120484053533
