46
Energy = -240.62558686 eV
Sc 12.610049689804315 15.8067001440129 6.84406384469995
Sc 12.706432988827912 17.435726592208155 9.670164545449328
Sc 15.185248561426897 15.834319733275708 8.407459428227922
Sc 10.09987896730621 15.763813336182391 8.940100228150895
Sc 12.764974871529018 18.104759510487444 12.788477186836225
Sc 15.061309181722253 16.24817493437372 11.503374289100773
Sc 14.186765786187703 12.975065736187402 7.265446763126319
Sc 11.016828688915279 13.280421481130409 7.074120589893948
Sc 10.161489344026734 17.57969781590543 11.557688281499635
Sc 12.681566270697033 14.255687798465678 9.31344713435779
Sc 15.504509633230336 13.346529304880198 10.15518903241713
Sc 17.646634920359702 14.493303996359126 12.074568623214603
Sc 16.639479937250464 16.04715784683021 14.31561833525867
Sc 13.663266567587106 16.030382993476756 14.67911264262342
Sc 9.987460126734966 12.753915133341623 9.991707643145462
Sc 10.596262466367296 15.863493608718153 14.506663377472853
Sc 12.106859405560314 15.282488260813361 11.970612462918098
Sc 12.24397604068958 10.916536676312852 8.734420032884273
Sc 8.972541538756328 14.805059216120457 11.91812983723775
Sc 14.90797321243332 13.746094330651998 13.12660134385563
Sc 15.077839887503252 10.392014523364313 9.947365986674649
Sc 12.832830288674472 11.954800128485463 11.417203593107816
Sc 12.347270680514194 15.656051493066867 17.307242043626776
Sc 16.92288352267275 11.353565236686029 12.160785656480785
Sc 8.101485811590662 13.8483349002675 14.754339252773045
Sc 10.596392640421175 12.702549218758968 13.463795395349612
Sc 17.0656275836683 12.906574923704259 14.888363659720573
Sc 10.127172059652729 10.047816167648536 11.26062418354615
Sc 14.44286486168342 10.801372431441504 13.735125201760203
Sc 15.225701495297802 14.46405884262177 16.826762209344356
Sc 7.9210189831696995 11.783550404973068 12.542702231485578
Sc 12.975076842121686 13.006614272097998 18.475552035662705
Sc 11.589080237225762 9.704338008829563 13.913137072461355
Sc 12.882943674981696 13.097205282577542 15.484222231809666
Sc 12.929202039470525 8.780102988176848 11.293976070932192
Sc 8.523771334312077 8.870418863301984 13.576346357366607
Sc 10.276549008672578 13.391947898210656 16.903483025648598
Sc 15.633439299838228 8.34609812081049 12.57697189959112
Sc 15.04186970367931 11.328646063564362 16.821995704913878
Sc 16.97529251930358 9.736864906705001 14.852186965392155
Sc 9.057914584443578 10.98533878844794 15.494520497819208
Sc 10.470477389210261 7.116162521479943 12.437484191537898
Sc 14.092256620689641 8.597132325374815 15.672955088247994
Sc 11.883881071153194 10.544290254147558 16.881248651417756
Sc 10.72706454551029 7.69600094720726 15.520990873178402
Sc 13.129046168094192 6.8268632202489 13.615513308668586
