49
Energy = -257.77925902 eV
Sc 15.845028423484004 7.70469342697345 16.490809706362793
Sc 14.792451789476972 8.25276161214907 13.677762062471777
Sc 15.553078755484789 10.530714107281193 15.89827553987846
Sc 16.79885264661251 10.469357559619697 13.33732401158169
Sc 11.883981317918725 7.970209762916304 13.027894327547621
Sc 17.224341037014636 13.077011051572116 15.313337443585224
Sc 12.953454946016008 7.264254644759635 15.777276323436537
Sc 16.21772273354516 10.653661331619414 10.234040891851597
Sc 17.34320096839365 13.120465230291057 12.011434955561784
Sc 13.72135934430514 10.570797737588048 12.050112535115815
Sc 13.508923040395016 9.439121620495333 17.703863760663047
Sc 17.414342144886295 12.944833927038587 8.82885075157267
Sc 12.640324904011011 10.2800850350684 14.826831519778496
Sc 16.351235295127893 15.625876084208926 10.135735273581115
Sc 14.559241816763777 12.657502782597877 17.577713346277452
Sc 13.985806983002288 8.45312183106994 10.100203858854039
Sc 11.043215170849862 9.432140765810097 10.55653819081429
Sc 14.949002486095262 15.008148940466574 15.947903349818201
Sc 14.745257486296655 12.726594569155742 13.938709207846012
Sc 13.069192937403255 11.252561509731187 9.196988541049564
Sc 10.525589050676702 9.023614577628104 16.155214876694085
Sc 14.779265686217423 13.259251407004163 10.525614306003854
Sc 15.177368470602865 11.17359923795676 7.3145895942687735
Sc 16.023970897024544 15.552108176385188 13.257989749343977
Sc 11.706203456189877 12.027329811652317 17.283186895259778
Sc 14.996091752982359 14.090525390852621 7.747709036378207
Sc 10.915913214923387 11.77072146958532 12.717926026026724
Sc 10.559866977626665 10.992206071517314 7.755949569468038
Sc 11.934699038474626 13.996195467570148 14.947730485530585
Sc 9.259720783037345 9.444015709591516 13.176285323101466
Sc 14.414465067857321 17.515898315965654 11.509576009993744
Sc 11.094609433953568 13.345044800148239 10.037598284756319
Sc 12.451287612133662 15.266619510893086 17.470976180630583
Sc 13.113327754704537 14.87840273490841 12.224323469618955
Sc 13.265319194019634 16.887739065222753 14.46095890150724
Sc 9.357088836242314 11.841333587691258 15.377993599318463
Sc 12.231838749120765 13.401470427897907 7.16710309894094
Sc 8.761709529416278 11.360561716016687 10.212881351807345
Sc 9.663991452823243 14.410177419230074 16.979729890579236
Sc 12.982792473023931 15.84213278352128 9.315801361451555
Sc 10.016281588330916 14.685745214004012 12.576427245038577
Sc 10.196603269274295 16.635764153132577 14.910114798410175
Sc 9.142197619948863 13.693225432926305 7.912338046620574
Sc 7.786565098322464 12.098591569843174 12.916807496470529
Sc 9.808957869858249 16.127731867462757 9.74790192590941
Sc 11.395031949924931 17.374916587765057 12.027800611477725
Sc 7.881852892492786 14.654867482490923 14.504573545951917
Sc 7.789865715933787 14.199010855489329 10.713059153420689
Sc 8.153966320264539 16.86039644125245 12.320019157747701
