43
Energy = -222.49309891 eV
Sc 13.964298029704594 13.693986167890586 6.464820874086884
Sc 15.297292574178432 14.571627052602448 9.001597213042675
Sc 14.975878003939792 11.544856471185284 8.444943966837593
Sc 17.149162096684165 9.573150605362784 9.641490566247045
Sc 17.401352789029392 15.914603575003209 11.27042998394323
Sc 12.033005817039669 11.957946813734093 7.9193886380720615
Sc 12.172357918517013 14.95673505860745 8.641807707364892
Sc 15.104656678099575 14.714861524448915 12.066182923024744
Sc 14.88353355474844 10.471158194633972 11.368127773670649
Sc 17.024276567691366 12.556373919171042 10.45544519959876
Sc 14.156652985652329 17.07327364473803 10.32321850812324
Sc 17.6229177608156 10.380288925068825 12.538998570232138
Sc 13.145901370648845 12.922346404099217 10.640094408725577
Sc 15.499805837898395 17.68079245816894 12.895832541591567
Sc 10.173854679398868 12.865442955394016 9.936957258489342
Sc 17.43624591216408 13.216540637615706 13.298478763167774
Sc 11.771939219908305 10.392049583724758 10.581347192292434
Sc 15.594751351598974 9.627173039909714 14.677067073665345
Sc 13.754918000169056 15.436098215613764 14.59783132022519
Sc 14.513169192791803 12.266182691815448 13.807941787755928
Sc 17.867766135970594 11.384579559182782 15.545733757014077
Sc 16.77983999528266 15.737909779192284 14.724380124535804
Sc 12.029436731319954 15.544995460332672 11.744852024024638
Sc 11.423451355007684 12.966934049178336 13.20832437711449
Sc 12.614480932746401 17.958990710451086 13.432130282625332
Sc 15.990045452497915 10.430941575410408 17.678683850105127
Sc 12.46062121971154 10.01833666586705 13.517449491897372
Sc 14.747277418509098 18.0176102160876 15.723218817561262
Sc 9.137477467222764 14.580557492677013 11.943561250632515
Sc 15.684381861858292 13.19007500971558 16.356349014510247
Sc 9.268311920654444 11.241742960177426 12.437365682529098
Sc 12.292630600547882 13.685986600532354 16.430511884630764
Sc 14.466075423911201 15.65880245999619 17.75563827292308
Sc 13.328228216431997 10.865872269994846 16.342725002438826
Sc 10.343945362525455 15.709748231841655 14.447700599861024
Sc 11.927945744792149 16.903204479506 16.6831612202881
Sc 8.359490613484631 13.296602598216664 14.578958186217294
Sc 13.960165489328231 12.731821364963098 18.860571244767222
Sc 10.30920063901431 11.349161134922445 15.570116602080889
Sc 11.787287835598233 14.861241520588395 19.137873500502195
Sc 9.457504275684776 14.331675418362192 17.14144324094514
Sc 10.893555231548435 11.95816185387232 18.516039172451887
Sc 7.936596650577328 11.756273142627485 17.26478332960981
