42
Energy = -219.99472788 eV
Sc 12.450550758709563 11.77430227301908 7.771451722085925
Sc 13.112106804010725 9.001028874067382 9.038247338676669
Sc 9.940375304391067 13.464097571932822 8.000079927978335
Sc 11.687920253843012 15.96925917501546 8.298352946424306
Sc 10.101877955796464 10.521880838890452 9.13350204604248
Sc 14.472969913737975 14.356870326189728 7.754120248945664
Sc 15.006060048936567 11.52343748258646 9.415790774730041
Sc 10.417371171050958 8.592019816437698 11.494800686007212
Sc 9.23553615166351 15.837208830357978 10.080996979031669
Sc 16.181813337154253 9.01467413495489 11.043005441097037
Sc 17.668951180272444 11.762779464616868 11.052443411946074
Sc 12.819052194478623 13.749814270747205 9.88243315332877
Sc 13.40376047751034 8.237522421826613 11.870432928396914
Sc 12.432268594656662 11.027681525909742 11.008487686417062
Sc 14.039642354683327 16.603494293873013 9.886197767674778
Sc 10.036227816078833 13.03033020481121 10.901735728130504
Sc 11.275108639863173 18.19723561582793 10.474106376186628
Sc 8.188981276485766 10.88010624305804 11.911694360257718
Sc 15.682913895121372 14.17264395594799 10.909245112511591
Sc 17.756376169977543 10.31717738046375 13.587061211430573
Sc 15.254848170980654 8.536743356124893 14.178830605861826
Sc 8.765395447569137 8.912326350026 14.23027683801472
Sc 9.444580665289077 16.76664331321659 12.97775094349362
Sc 15.119352403176409 11.146841472564871 12.627837059714471
Sc 11.87723251267668 8.221634391884946 14.421277591816407
Sc 10.725715765471094 10.817157652183123 13.434586559887311
Sc 7.811657964720911 14.181805996576829 12.670994270635344
Sc 13.473266752973602 13.557400473953706 12.957936471056207
Sc 13.068151580582752 11.367283821229528 15.076824222836713
Sc 11.81249191432288 15.758070756996563 11.753245221895469
Sc 14.66495987159572 16.16911055095843 13.093941621788659
Sc 10.605132294422178 13.82323531579559 13.720872903598847
Sc 8.44840081404557 12.04007719503938 14.95401946873705
Sc 16.639898229107487 13.460445399170988 13.765729439713743
Sc 15.859127154125703 11.20054926732028 15.935926256119867
Sc 13.68073055616476 9.033978059805628 16.783167999835474
Sc 10.733876047371119 10.254684325242621 16.546718558712424
Sc 11.203115438255724 13.390034128695916 16.5735975569236
Sc 8.83488923042109 15.202920053179756 15.49252405806307
Sc 14.326439652561943 14.049724314388017 15.908723716075148
Sc 11.998575080350944 16.008591477593964 14.937632712145755
Sc 13.414315729949982 11.719261079245546 17.95431649972716
