42
Energy = -217.97375409 eV
Sc 9.749594641316829 8.747444851560317 12.570464374955744
Sc 9.513607579084539 8.561355896197522 15.470809421626786
Sc 12.365558664386134 7.654722423520326 13.876361459187732
Sc 10.122533592650509 9.932109344276892 18.205808081360825
Sc 7.984347129218879 11.253175833049948 16.44732017426021
Sc 12.08471287876902 8.312681632335392 10.780505091795064
Sc 8.336268642706589 11.268653855819341 13.362109989118201
Sc 12.29576460468696 8.664701177276205 16.642953524543273
Sc 12.306820986972642 10.318105728213283 13.000829528804983
Sc 9.85196807763424 10.605257596060255 10.298411442782694
Sc 12.863465723455704 11.45140250162594 17.822862461392308
Sc 9.995058544382355 12.91780148309362 17.9722419083339
Sc 10.859861527133425 11.23150987539347 15.491532109063561
Sc 14.922232390283808 9.153986187583037 12.26965098970156
Sc 9.234172824794415 13.824338625934649 15.012095299434419
Sc 14.360644763463009 10.279552107421432 15.269909534317161
Sc 14.428584750780368 9.12983106884034 9.172649447758745
Sc 10.670441850823252 12.783366324782797 12.530516622853117
Sc 11.762965263393681 9.69282925060759 7.980238294183052
Sc 13.65429388840905 13.076811165975862 13.75864896905694
Sc 10.799525963178887 12.649139811532343 8.14045481654231
Sc 8.740544292439704 13.459180182756233 10.268561230527423
Sc 12.193182309753524 14.019049751568815 16.248214615693946
Sc 12.83450734175637 11.541019496035172 10.255421376205941
Sc 9.296064574767039 15.715771703382472 11.937608833225244
Sc 16.317685393206084 11.786597907639859 13.321774980711567
Sc 14.08805618394028 11.721238459062798 7.598793924406861
Sc 11.89443798488565 15.564885658689692 13.492652630032149
Sc 11.72206562521282 14.58482649588171 10.509065488485811
Sc 12.979848075093026 14.535421834793953 7.7573116784220915
Sc 15.946077339473323 11.460447303225983 10.177745004214149
Sc 10.19105878769931 15.948194552783564 8.698797147105122
Sc 14.312014062147936 15.87766506500122 15.287654049572602
Sc 14.66790783876263 14.33936453176861 11.2053069578773
Sc 15.327906970114977 13.12734182512282 16.14086447824614
Sc 11.562296387003201 17.54427316487798 11.109908714282103
Sc 15.945707124267168 14.260039158253939 8.564959011569947
Sc 13.928540796871543 16.74738066424849 9.395199150560233
Sc 14.388830309768537 17.150930619595417 12.447983538228252
Sc 17.668088086894887 13.670908184401823 11.10616219651085
Sc 16.47810776485853 14.949592792055663 13.578848688778386
Sc 16.763533118809743 16.413501960441067 10.667350068404929
