41
Energy = -212.09367452 eV
Sc 7.990756751618653 11.933786445266405 15.081198425565997
Sc 8.892780078670258 14.60998551549835 16.052319883561037
Sc 8.577292821190976 16.914658900645207 13.914176143282127
Sc 8.040513562546938 13.973445501448383 13.113296482362887
Sc 10.500552171612721 11.623251451723899 16.701738678761128
Sc 11.859694243410331 14.310619258894125 17.26103066348393
Sc 7.589821276985331 10.94759576001696 12.245427931155895
Sc 13.157862974759206 11.475257253371415 18.10163645220253
Sc 10.838668115844804 18.422497307047905 12.684130254638685
Sc 11.27578747288178 16.5254082290639 14.993375649520011
Sc 10.07634912866883 10.188990724093808 13.770875727738158
Sc 10.832483345740508 13.347893203401117 14.239992324388624
Sc 14.871757965422528 13.833949417073407 18.194804284576104
Sc 10.397745383299764 15.591876821348436 11.944117411760363
Sc 13.690388531649663 18.102747083034792 13.618568045149942
Sc 10.099423719970787 12.3060804016789 11.335263184497329
Sc 12.891144918234678 10.069247295657572 15.393806461706951
Sc 13.876464577719164 12.939553669486363 15.469930757604
Sc 14.245659129586075 15.937631034251035 15.980819379157312
Sc 9.729904869088534 9.317750344471214 10.932304560124924
Sc 13.39511022578567 15.059484308232774 13.064321538555442
Sc 16.74551258073956 14.072580344501631 15.828065871167123
Sc 12.914270554366706 17.11798357797168 10.832040341638063
Sc 13.13662091707858 11.670345104875066 12.452740342068465
Sc 16.307054024439417 16.33481526132101 13.57100573125786
Sc 15.829872094649554 11.172028075156353 16.67815445373938
Sc 12.41178431779224 8.80631144339348 12.40758719030343
Sc 12.620584350839144 13.907851429140656 10.307133309122179
Sc 15.730323031741857 18.271953186823673 11.33499106138532
Sc 15.565055950401932 10.057634400911553 13.799185777424771
Sc 12.314516461575225 10.666324214045241 9.83208204446875
Sc 16.012035072678003 13.113413040651952 12.92914667631168
Sc 18.852290781970712 14.46311121310598 13.413084574217491
Sc 15.507073074955752 15.370662549824788 10.640824887132057
Sc 18.199975876163567 11.65228821360234 14.404772087795914
Sc 15.156099562189116 12.235764132414264 10.049764285745196
Sc 14.795329479174688 9.404463040921069 10.927405036784922
Sc 18.17689677782387 16.5817026181214 11.279858645096375
Sc 17.508716436200125 10.880501280268582 11.593529960468556
Sc 18.090087156912414 13.611145277802276 10.56237330672183
Sc 20.24203007102557 12.232744455529378 12.103888319715768
