43
Energy = -222.7337595 eV
Sc 10.06081153724319 15.26752854571388 16.1162493039587
Sc 8.505202613395591 16.420156518906065 13.297583760550015
Sc 8.990136146710226 13.408662751895237 13.84555274447712
Sc 10.306290367459983 18.47833651419474 14.437829607992597
Sc 9.288968513203423 14.605508812589287 10.914941215390769
Sc 9.87953734224931 10.198404937954756 14.046194225826111
Sc 9.598189455405064 11.331359708263742 11.13371565868567
Sc 11.046225332080663 12.148914897659568 15.999808489411276
Sc 12.628917628387205 14.416834871782477 18.033729825030107
Sc 12.416383933129696 17.096025095557124 16.301453336293953
Sc 10.833722977920859 17.63196000364665 11.368973958980161
Sc 13.083546304332627 14.288189449206541 15.27433502626025
Sc 12.163799750250435 14.807783078035667 10.977474569969864
Sc 13.258875395808355 18.254331122966114 13.421399367053546
Sc 11.167249440164467 12.898273655109351 9.000234902235952
Sc 11.314380298400014 15.877599809952104 13.631425498327882
Sc 10.586639661581916 9.82116744435784 8.769380008809517
Sc 11.644226684754033 12.720712172015626 12.881512821749515
Sc 11.136352641797568 8.692050646437593 11.705461385033635
Sc 10.4349851553351 7.175063347039478 14.220304739761442
Sc 12.064512888208414 8.94998976350273 16.06022274770194
Sc 12.898000735919469 10.435119903045006 13.84230840098009
Sc 15.252955618462067 16.96251700062282 15.423808981798834
Sc 11.517484817376586 16.01928222712543 8.556252702865097
Sc 12.708616944207265 10.854290800049446 10.507253684193563
Sc 15.589368107912057 14.256485857753995 16.858158772509267
Sc 14.001531393001848 11.736493920535242 16.939116875807002
Sc 14.000672544296227 14.191754628425354 8.789104439796535
Sc 14.455330516830172 15.533427086313258 12.92286928603721
Sc 15.195419047463671 12.349529049312004 14.279133545608572
Sc 13.445706291969556 7.559604271037163 13.590639884302814
Sc 13.989433236489555 17.0459991840442 10.343732876667726
Sc 16.618027103247247 17.517925410615643 12.555915571316037
Sc 14.53227131058692 12.837113689619567 11.48509124017617
Sc 15.35834868642081 9.757607710841596 12.192214865073582
Sc 15.398868252916445 9.25391512472003 15.310883226370152
Sc 17.04552866796543 14.873905194112972 14.19177825230512
Sc 17.452788386329154 11.937420226266035 15.84790879794696
Sc 16.577001895835384 15.061114122059255 10.863468980930115
Sc 17.57270704924422 12.587688416326689 12.402263525667797
Sc 16.58261985991286 7.244968169400601 13.435155625120592
Sc 19.1508475957942 15.460792318569512 12.230904649600728
Sc 17.927654524673617 9.798309227566053 13.805552359088415
