43
Energy = -225.30164534 eV
Sc 13.722948938343453 9.112922720896576 16.352824016307625
Sc 12.744365909541482 7.234254883337612 14.060286128142279
Sc 13.671741414240987 9.783303584505225 13.178356594388067
Sc 16.39330145463533 10.54606912748392 11.762312639112103
Sc 14.370401946372786 8.440709676014126 10.724870277495707
Sc 13.730944580639692 12.14950747238655 16.68916660270512
Sc 10.888313803054581 8.024778983404552 16.584041877417786
Sc 16.03834368562196 10.928941920470294 14.964919981047228
Sc 11.555064071475039 7.831354993954387 11.418757718531761
Sc 11.500843585351076 10.688910724896578 15.03218332881892
Sc 15.297893331953048 10.676335812313956 8.56525566242296
Sc 11.466726838260218 10.464735288588544 18.055156056821424
Sc 13.76341385641223 11.651358047212549 10.663428226653298
Sc 9.905200304605708 8.226028904614388 13.733839962563373
Sc 16.109072568397746 13.846840319815945 15.831167988081091
Sc 16.540746764465396 13.020052835741668 10.185738027946952
Sc 12.037716398765172 9.534886689510536 9.097637448726129
Sc 13.024077695800353 15.032494315716407 15.736631344098294
Sc 17.03092221199859 13.395235937396981 13.028347522716167
Sc 14.167108235530538 12.858932713610386 13.700622943575615
Sc 8.921268531558981 10.50922912478676 16.379252510667765
Sc 10.939752874925087 10.814329456229936 11.78225738410923
Sc 10.624750006650833 13.162014832749996 16.622637555392583
Sc 12.516177770243173 12.075424876694472 7.732328367302916
Sc 15.265647056652485 15.902549659412811 13.62968228932386
Sc 16.475503121241765 15.964582248007437 10.708921750583071
Sc 8.367839738681521 10.622792508116328 13.459626172053628
Sc 14.713274946539707 13.975578555982624 8.237449418414034
Sc 8.80208850369439 9.282544366771422 10.74361934850527
Sc 13.794297724239389 14.946591166998402 11.155888051844215
Sc 11.266599657018725 13.646836565606124 13.533103655620268
Sc 12.113116150458522 16.600468198564844 13.2111344420416
Sc 11.242838773506456 13.593987675404556 10.394647254463335
Sc 9.969413991812074 15.810811488130676 15.233539405336881
Sc 9.752662988031053 11.568905811473511 8.783342722828218
Sc 8.415525754991465 13.364946137235187 14.410684298919072
Sc 14.279189963036806 17.92913350616513 11.462530739805313
Sc 11.933213844024444 15.008458852669069 7.793148001234368
Sc 14.23663844830761 16.909878934384608 8.733380910289807
Sc 8.335527442165542 12.635006820414413 11.219019588485407
Sc 11.461327953996788 16.779752222187238 10.15288586122016
Sc 9.328207601059484 15.514031716283965 12.160018258148414
Sc 9.113835980569805 14.694545077016908 8.929342903039492
