47
Energy = -247.62583953 eV
Sc 16.997397388347274 9.4502167125011 11.980235187123569
Sc 12.669145136908535 7.946005621301818 14.675188105314428
Sc 14.13614102268776 8.138457350257173 11.929841242512072
Sc 15.426801435980169 9.515754628862261 14.53956506845526
Sc 17.22567164746972 12.274627076521304 10.754167735835251
Sc 15.227427387387475 9.919404121003016 9.518966458429041
Sc 16.951326921449265 12.129905572615876 13.865964263594678
Sc 9.788922352198131 7.660359156891958 14.864695114479808
Sc 12.884479130196574 10.899096119800308 15.190224265401874
Sc 15.191131185828151 12.308195510735269 16.46533064800402
Sc 10.781900457486941 9.505959211736457 17.089770618678912
Sc 10.738745437282438 7.367701916775859 11.950150844998687
Sc 14.47193927095649 11.145563078029372 12.089080938219718
Sc 11.691415336846383 9.921536311792043 12.553583356889753
Sc 12.187392521675608 9.434733621308812 9.667753407563833
Sc 14.295604506399947 13.60363292695672 13.852979896473908
Sc 7.676763486081576 9.59942650924725 15.916246436194658
Sc 16.463313783197204 12.246699053828653 7.882192272502569
Sc 16.55949828966213 14.863747317475276 12.291447142349844
Sc 13.356840340434847 11.575323122461686 7.550421144512415
Sc 8.10353169635576 8.85462779604772 12.92396036365255
Sc 16.46298549575685 14.885118942788964 15.433874267942972
Sc 12.16405160005008 12.455196435891175 17.777640391723285
Sc 13.566829089275778 15.022896504583347 16.511569474030864
Sc 14.674595981473567 14.231529822499526 6.756913141535089
Sc 9.20837835479277 12.28960098040658 17.008225665551596
Sc 10.113328494624309 11.457619768865483 7.851611752374457
Sc 16.625440678217476 15.109184203125293 8.996514502565004
Sc 11.404312869620826 13.521799026864539 15.121198683628206
Sc 14.536555574099431 13.518258169578548 9.993682005861952
Sc 14.257865657589544 16.62973550955485 13.886647738158842
Sc 9.864112719634283 10.68119054949163 14.58465160237635
Sc 7.583882902469294 11.980972344341941 13.134041314057566
Sc 11.611730283585711 13.982323400544155 7.2393706431268185
Sc 11.635302187174622 12.530440081142114 9.951684568951167
Sc 9.336506557832358 10.474794373776383 10.74314534247031
Sc 12.37648690502497 15.040779148796961 11.88653213793528
Sc 10.458232991409925 15.042426747474916 17.358207394023314
Sc 14.828627063603001 16.76702866437558 10.968213620041485
Sc 13.243752841723198 16.06299437368108 8.726387639093817
Sc 10.34258206329088 12.76076417328982 12.52476694383808
Sc 8.593581121617055 13.301037331809201 10.11275134559973
Sc 8.651343979958266 14.428948059701218 14.851977373862454
Sc 10.426414288118488 15.58497870165786 9.511000838849156
Sc 11.860040685414495 17.714390465667957 11.439566258499221
Sc 11.187519972741402 16.399338795925445 14.477515083769655
Sc 9.292475899867009 15.659953249107028 12.14965271126272
