43
Energy = -224.64146592 eV
Sc 15.254677524617797 19.065745063620685 13.143260778624471
Sc 16.740999245842374 17.343801434613678 11.29952588869209
Sc 13.741698210401445 18.015651702464016 10.345708477223425
Sc 12.338351652052559 18.824753236984805 13.021804081933505
Sc 13.68433935224318 17.53273733581096 15.380370451737932
Sc 16.463434727475704 16.4418674282678 14.438571769447414
Sc 14.226435806835255 16.2626971067979 12.560589141914585
Sc 15.080480430597659 15.179900474482547 9.845611185176843
Sc 17.13556827557462 14.356581513252083 12.101660675675237
Sc 14.516544677873334 14.639547466822476 16.351780269755327
Sc 11.16712934284787 16.415304333897534 11.811654592296103
Sc 12.202645765256962 14.883663588402763 14.251544220402074
Sc 12.113328322144966 15.335569584522904 9.012075105180609
Sc 12.67917513926927 13.626340005868414 11.268882582374728
Sc 17.41003332048903 13.671291919241177 15.112985182145719
Sc 11.138287611922067 12.019723885556319 8.960152092461891
Sc 14.808625504150049 13.32078649576278 13.691159862904984
Sc 10.694179723103272 17.33596317174124 15.086125031472736
Sc 13.823825137769118 12.915290516784951 8.302257138783562
Sc 15.31638511291387 11.962049723117888 10.810193791481773
Sc 17.17224146474277 11.206533149926159 13.350332141370073
Sc 9.575761857895689 13.904899290200913 10.888321891198919
Sc 9.216774087157138 15.017007785359164 13.950681169693205
Sc 13.883303099912691 9.933772305645991 8.987142155580415
Sc 10.996738833342091 14.71105483916971 16.74220527801857
Sc 15.685888016526448 11.391678374038863 16.11777084314716
Sc 12.135356258105391 10.50634142554466 11.351080863847264
Sc 12.4580969832369 12.138537593050415 15.795791976336128
Sc 14.168486381432347 10.310438434886812 13.543627996250603
Sc 15.826586497362788 8.916250391868662 11.546517003796012
Sc 10.496797412394455 12.291009610416912 13.294407315269735
Sc 10.998294204512986 8.883136588657809 9.18565230124881
Sc 7.555824973339783 12.557433727865712 13.03187623888666
Sc 16.16306476997122 8.536131821481414 14.725095129715651
Sc 9.120675579745075 10.697544237897533 11.056079783346718
Sc 8.978999389942885 12.591423378980757 15.750176880492724
Sc 13.150816935412863 7.829307195294223 10.961574627279767
Sc 13.550640406914479 9.193324591697454 16.40803682985049
Sc 10.390927483785259 10.359218070436189 17.02615694084942
Sc 11.42993759289793 9.450545331128994 14.449617998547316
Sc 10.418313309957721 7.985259396947154 12.153926172152673
Sc 13.490800922388193 7.346360073666347 13.825869112066927
Sc 8.61566988737471 9.975918038407038 14.184665185237558
