52
Energy = -273.978811 eV
Sc 10.533496564743485 16.110526910337462 10.958980396275601
Sc 13.738074615701084 15.708544074706646 8.009255763679134
Sc 16.161155033314287 14.431910621875053 6.697307207970373
Sc 10.904150426072063 14.18613857451821 8.182764744447748
Sc 9.650441796087339 13.218984828642393 10.853843728342335
Sc 13.581223934081502 12.581845660950371 7.529099619090314
Sc 16.56897563848884 16.290223706298285 9.343769421891334
Sc 7.7158580559043966 15.836207469163767 13.35266287324485
Sc 9.989764432867402 14.592728782356312 13.645889417454804
Sc 18.44388698730878 13.76197242633806 8.576267585346269
Sc 11.640906467888225 11.2120975227291 9.66363026747888
Sc 12.750666035913271 14.129247972681622 10.306279759398663
Sc 13.707030051951065 17.273940935159622 10.749067800048683
Sc 15.674679533017306 13.501733158166694 9.42384520630662
Sc 16.609666461030134 11.495303799291634 7.512606562102082
Sc 12.016234012146153 12.390971176160567 12.565650255268146
Sc 9.55863142481323 16.294431122594165 16.261436376839015
Sc 9.734736795884755 10.43418796454572 12.362481622107765
Sc 7.801997663408606 12.56467412643356 13.32248752571052
Sc 18.03702388432669 14.271657357674291 11.627802012834154
Sc 14.666284965279761 10.129231014301372 9.486602988160294
Sc 10.784186641872783 17.589108858499735 13.76426094623932
Sc 17.17873127593559 17.36921632539695 12.484069955173398
Sc 8.162555746657192 10.395707724713011 15.577702740345263
Sc 12.675846076700463 9.252752054693506 11.984591037810326
Sc 15.326372821615042 15.162787464955464 12.092322207303967
Sc 10.426893334341148 12.019485171916894 15.12466188167154
Sc 17.536422369278487 11.238398510800984 10.499634084891511
Sc 14.858892767459592 11.95013704383131 11.784410326204021
Sc 12.68847384215653 15.508191275465283 13.079284361468737
Sc 10.97665505052419 9.015124038931614 14.899275049024688
Sc 8.025431566987304 13.704122945964253 15.932763519887057
Sc 16.726899903924725 18.037028357590014 15.520710515730915
Sc 15.79134336932219 9.353587489690264 12.667868451940771
Sc 13.440668343961985 10.548841633123006 14.448630826722187
Sc 12.59373053262605 17.549647422189672 16.33864725429781
Sc 17.342110477499453 15.057992966900244 14.568336990098365
Sc 10.443383474041532 13.580600052712022 18.042314072605652
Sc 13.771933048183463 7.701740350180453 14.875888816139271
Sc 17.372473129316955 11.952361326178002 13.63049561666941
Sc 14.362945254726966 17.82829396520969 13.714641254100426
Sc 14.663351013366826 13.214956139203364 14.481849874524158
Sc 10.642006767841966 10.327471004251223 17.660602102425425
Sc 15.920798667219593 10.198432445358597 15.725914017901001
Sc 11.422085412793972 7.231388679266718 17.177265742421206
Sc 12.069710792125251 14.723488919050196 15.798226428631562
Sc 12.92163939331002 12.256288849202944 16.955006203069935
Sc 14.91372681907083 15.759372304702637 15.954026104905392
Sc 13.443988240685906 9.37759521174959 17.352470499991888
Sc 15.777231301529332 12.974058877790998 17.220634237337883
Sc 13.330898306714495 14.842046723610832 18.432599646723002
Sc 13.088764968185352 11.839670401901106 19.584859757424184
