55
Energy = -290.31473314 eV
Sc 12.441278813840729 11.963422252317116 14.228318414564692
Sc 16.38658910451313 9.797723997293577 17.178062641513375
Sc 17.730332911120172 12.393937413278495 11.769695793455268
Sc 14.799747070747426 21.88801297467815 19.29089450708521
Sc 15.247135357841287 17.019456954747458 18.61213325057728
Sc 13.31821277437917 18.920010865072864 19.744068719829098
Sc 18.00568029161242 17.920765120286163 17.226567419559423
Sc 16.296840544088862 19.212407574603585 20.621577742985014
Sc 17.359427955452233 10.324002415766094 14.02999274171763
Sc 12.894218719070377 20.447026453507934 16.907894219150318
Sc 20.937214974745753 14.457428264332714 15.478601305049116
Sc 14.273331074021952 16.57008642677689 10.533648119421816
Sc 15.568044862690524 13.85195376093564 21.03756561067531
Sc 20.55443148511981 19.5295787973646 17.110725230287162
Sc 11.390332722020649 15.328370992704905 14.449842513973406
Sc 18.298547227075126 20.233543313412145 15.062932961808594
Sc 17.155417563579512 17.701662152585765 13.168909360259077
Sc 13.60043320162355 14.360647870467268 16.0512049367689
Sc 20.751833854339466 16.693051990394856 17.98724487114347
Sc 17.235649974064742 12.541678644501252 16.08068225206619
Sc 17.531803682145608 12.127244079672586 19.18737828804156
Sc 14.056035123024708 18.504163588272487 12.976960045635588
Sc 20.06263752377351 14.981897622723318 12.388731345247615
Sc 15.780288220735784 14.122488191023722 18.151389983929814
Sc 11.349043148870779 18.95086525495596 14.246161037576414
Sc 15.514953957068785 19.71346054922698 17.941108582394747
Sc 14.284644341084935 11.721355312246367 19.252679951014127
Sc 14.431837419941582 11.715855980409547 16.349279744906063
Sc 17.661978189999733 16.067072691484125 20.087712623206944
Sc 14.612727016844108 9.49735125385978 14.612092144773223
Sc 14.79026098988209 16.694947663149883 21.453732517441146
Sc 19.223331724237656 18.837025249711584 19.674274238373215
Sc 16.86502862011647 15.24231138778439 11.59731805336846
Sc 19.76740611615177 17.23128787133199 14.89873338022376
Sc 19.74572278795637 11.649046413803253 16.942962534057546
Sc 19.738728061965524 12.189832490960889 13.998695261364023
Sc 14.242307728029118 15.853224740697447 13.468001939569572
Sc 15.380823963006634 13.043384224201205 13.57195567164119
Sc 12.539165362471248 20.010967741372692 11.371687260302195
Sc 11.69203883083414 16.985927824692528 11.902893839895466
Sc 13.134163730298726 14.900656091536101 19.267648619251858
Sc 14.675298109345981 10.849531183803098 11.939789702110808
Sc 15.171847237178971 13.38920147054637 10.356066497094753
Sc 15.526523029008777 19.19996207716913 15.214519516197853
Sc 18.00554169607442 21.15815870248823 18.100760803415604
Sc 18.651891422465116 14.69316679837241 17.490100882099746
Sc 16.118286522475874 16.090764260883606 15.774075247487314
Sc 15.729657898916757 22.020950537744728 16.016552758613546
Sc 12.688971470284885 13.958449653394899 11.818457396073429
Sc 13.347680479233432 21.24031973083665 14.089753275084904
Sc 15.94201052574224 20.81602696242878 12.76481315945047
Sc 18.1444648292329 14.705265007376347 14.27304771456005
Sc 11.78884286726344 12.449662210999893 17.4258728684299
Sc 13.172766161158135 17.38329154591935 16.185992687695133
Sc 13.061925326863367 9.525449995522795 17.313572413213667
