51
Energy = -268.87677575 eV
Sc 17.30105990399126 9.617004999626051 15.072467771762607
Sc 14.898669206843188 9.069068705107282 17.12731571178337
Sc 15.179192639442482 7.274903693324893 14.745738617837718
Sc 18.05184661458149 11.063768810275391 12.166840922807577
Sc 15.6430530691559 12.023838250763777 17.063076952487688
Sc 16.209105206462763 12.418903988490772 14.231244743433777
Sc 15.991143705048346 8.886864592027985 12.015371767384856
Sc 18.478963065647687 14.111331890228694 13.206595266674151
Sc 14.55256928898726 9.993144615519668 14.325233930535191
Sc 12.317057998241367 8.29610683398271 15.733828701517231
Sc 14.068427563396481 14.538857943144384 17.018577420532246
Sc 16.62626940780336 14.913741580184542 15.625647057480382
Sc 12.761145688689767 11.300167224783184 16.122067615518105
Sc 16.62265495186614 10.70206672692072 9.29644422490785
Sc 17.708892507581254 13.411446020309379 10.46250291595258
Sc 15.176680247673122 11.938514643194907 11.282799593006004
Sc 12.820884311614826 8.19131523803169 12.686005841100421
Sc 13.429157789289599 13.57762462271848 14.319800305900126
Sc 15.635156950401361 14.855215151069578 12.676956627050618
Sc 13.619538317994026 9.53303898447694 10.043278837128069
Sc 16.874012988282587 16.31911504741404 10.679872546837482
Sc 10.38781302357605 10.133080556010412 14.134657644207955
Sc 11.743179196031308 13.09984112125349 18.20580157666827
Sc 12.509516640345396 11.339208760487127 12.534558676609588
Sc 10.074539868465072 10.72872589000614 17.282186525411923
Sc 15.450797353969369 14.17816663068109 8.860441272353425
Sc 13.1279142755178 14.467029382644762 10.973194011444301
Sc 10.439498660303386 9.480705346649772 10.962883312934546
Sc 10.398528345715134 13.08188701834394 15.087658343310805
Sc 13.940745633555562 16.64014090625744 14.873921433491734
Sc 13.80513850224304 11.713556341455993 7.817732152351557
Sc 14.177974291282744 16.900589082061323 9.226374231997264
Sc 7.846681241577495 11.263946532066416 15.437380299525431
Sc 7.965803586458324 10.969799302305434 12.236570536722608
Sc 11.591885231811208 12.068371258406236 9.644153307274022
Sc 11.48976219401796 15.516716095507425 13.286129312903952
Sc 8.719389413846624 13.67176933618519 17.19248889042839
Sc 11.404993528128436 15.740007969889959 16.46056096592695
Sc 12.543960433217944 14.689812037568014 7.927559448296881
Sc 13.84042375155728 17.3923159018792 12.063524673172434
Sc 11.276410344903914 9.725091351408398 7.96260446404711
Sc 9.979822725197979 13.140331999019793 11.930994992326227
Sc 7.538461111693392 13.698307113836428 13.731781687642565
Sc 10.777012214067602 12.45300498600756 6.865699046930598
Sc 11.041596888188211 18.102536979410214 13.689324671536518
Sc 11.340158302278235 16.91367041457973 10.416884998076858
Sc 8.773833837514918 11.376001828651086 9.068676366189111
Sc 8.941314759336358 16.00373112564138 14.940385577776903
Sc 9.688028231086138 14.569494979942656 9.104911873566651
Sc 8.752769148835569 15.991103990851707 11.945682603405789
Sc 7.250445820714192 13.483993820016083 10.703687434354084
