51
Energy = -269.69263529 eV
Sc 18.072529807122454 11.972020244975695 11.753823320475565
Sc 18.91565565568593 15.190088937925475 12.262405526421714
Sc 18.276704097269416 12.985230523309502 14.662268776973697
Sc 17.19275683110222 15.913902255870077 15.366695296607906
Sc 16.895719383587487 16.76971257469219 10.437230942934677
Sc 16.52772480106005 13.676015344339774 17.170067978006283
Sc 17.093825513033327 13.998819307636303 9.659626534932556
Sc 16.98695277275005 17.618496875387528 13.021887091541581
Sc 15.934048720497522 10.572352878009015 17.03082854019978
Sc 17.272733188078924 10.069773378346147 14.084851986405809
Sc 16.325949874325392 14.32595955475552 12.716311616601267
Sc 15.99440171448603 11.082857508179778 9.435882571669474
Sc 14.179766094553587 16.414567360985444 12.086805073029453
Sc 14.484200872201356 16.12611593500633 8.90950937778797
Sc 14.689145017408652 18.017989455387983 14.863702186427266
Sc 14.46055864646777 16.090285217043714 17.553516375008687
Sc 14.297433321113092 15.031298563087052 15.018261727710174
Sc 14.741485250264752 18.957700516097578 11.237826955786703
Sc 13.764895482501899 12.83135833937426 17.537912268849862
Sc 14.38655912283305 9.113482141014723 14.516890881667186
Sc 14.203318692460902 13.589926621685327 10.552271508896835
Sc 15.261555520677557 12.180027303561841 14.896211167167529
Sc 15.101851147702627 11.211239752970176 12.212104910863903
Sc 15.816920331050953 8.579449107274518 11.595208939215729
Sc 13.517775471886535 9.576443541459138 9.990175846420298
Sc 12.72572768286237 11.997357600891956 8.487433460644912
Sc 12.93315909216559 13.179921716601877 13.264716437950186
Sc 12.206969773846325 11.250406687636834 15.430360963888175
Sc 12.017525255465136 16.95965170695077 15.654480341069144
Sc 11.730258859193352 14.828606357303606 9.29611364414123
Sc 12.09628581147464 10.283765941492957 12.655337350370413
Sc 11.924600110530067 17.572964570261938 10.33882188910283
Sc 11.432268728183018 8.30963791512977 14.946617867627195
Sc 11.012467682359373 12.58714044569455 10.962721229005748
Sc 12.124508164451978 18.48522184140452 13.089921349124843
Sc 11.382298425717666 15.528043333364646 12.677161053721663
Sc 12.855124096739795 9.650168324588707 17.53315532316814
Sc 12.523128004812147 7.629139651354223 12.040047681271297
Sc 11.312822478215931 14.122706861625478 15.884426611486212
Sc 9.612161923666669 12.618475993417183 8.521224867437466
Sc 10.724397327955543 11.988667716874998 18.00113026527253
Sc 10.48618956909908 9.804719034650155 10.038272689756946
Sc 9.790989277559818 12.215562355397127 13.756192435140823
Sc 9.283520096661873 10.216606370900875 16.01725818111103
Sc 9.091686624366721 14.993006998755407 10.802137511540016
Sc 9.229929984700052 9.254120545490942 12.975263347794684
Sc 9.22625776537684 16.098216534614956 14.54393591590288
Sc 8.112895863875721 11.685720563398398 11.22162827167888
Sc 8.335605289144727 13.234887785487645 16.149755411415395
Sc 7.000061076504974 11.216693208453037 14.195878804824396
Sc 7.61020118740257 14.019156035645832 13.213238132893498
