53
Energy = -278.99231139 eV
Sc 16.9739679340953 9.95604250784244 11.835408528525354
Sc 16.01279888264441 12.252576030986752 9.305584085615779
Sc 13.588976932198102 12.927729064283692 7.165930839554459
Sc 17.995456286655084 11.219534110079929 14.319484675962377
Sc 17.809863153189127 13.03700080435923 11.89897933372662
Sc 12.8166761808315 11.196483715381895 9.46565201274452
Sc 15.557431028637078 14.995695238301966 7.517635615344267
Sc 15.07772911358777 9.798449214019662 14.068802214179598
Sc 13.94944612359149 8.904549147054881 11.398434841232907
Sc 18.420542650117724 16.210812710009087 12.61551824582151
Sc 13.72269412679302 7.67334479566809 15.45998811589959
Sc 17.06678536460102 8.691640643756896 15.713394428849897
Sc 16.686983292567536 15.465602182104064 10.232953820735029
Sc 10.996999405481052 8.719420659103047 10.391701709380166
Sc 14.698647318929552 12.0530098091634 12.065204064898387
Sc 11.62588424260566 8.125123374625387 13.271321300727008
Sc 18.12899152974605 14.220525787643247 14.93698119918493
Sc 17.14754658601179 11.687157603631608 17.232586681813874
Sc 11.012715005380604 13.83934687388723 8.983667077581686
Sc 12.642395283774682 15.772613297043893 7.454810203941453
Sc 13.869616197374803 14.22256785407455 9.969288889569048
Sc 15.456711057870594 12.663041365656062 15.053912669567847
Sc 15.79516415166173 14.969705647402082 13.009740828619346
Sc 11.786372777881054 10.877964956726888 12.204381790334336
Sc 15.604196947534097 17.842542156291792 12.237020966084893
Sc 14.140569377267958 17.22309384113401 9.614108632235258
Sc 16.366747746564492 14.850881952273472 17.32666764975348
Sc 9.506050055431581 11.48464959922624 10.296976773068018
Sc 12.586388199070145 10.548594548573083 15.17303710383228
Sc 16.663735931817858 17.0562393838507 15.149450125904009
Sc 8.99163030631545 9.636370104470084 12.859022527707303
Sc 11.032426670816124 16.79685817798274 9.852196517749539
Sc 12.922427076188121 16.08294376584731 12.48456495959552
Sc 12.426289325120164 18.80952246498736 11.866524553422105
Sc 10.733336809402468 13.809566323059848 12.087593153601874
Sc 14.661822453884648 9.90237720169089 17.149762338619983
Sc 10.158253298373774 9.083902762636031 15.788786448768407
Sc 14.12806859619403 15.488934274934346 15.58466513967768
Sc 8.506775977084116 14.888718081969106 10.693715830836057
Sc 12.380478331888954 13.62802411698581 14.716985416138753
Sc 14.011994629740139 12.845480280914806 17.517875782362076
Sc 14.576698236266637 14.848265494588833 19.786990290633597
Sc 7.8018840024409855 12.433416355831447 12.558942516146884
Sc 9.939054568101717 17.000234774400873 12.497424921838862
Sc 13.770646256451021 18.207115735879313 14.616849375298482
Sc 11.123004098006056 16.494603839025654 15.221221700531917
Sc 10.064483377843585 11.916066184442235 14.512987041300224
Sc 14.531303099274574 17.26695189791118 17.812094030330545
Sc 11.0705746372631 11.613539070782847 17.548032451716512
Sc 8.556291533584771 14.815154392401148 14.05007702300678
Sc 12.178839118747376 15.134815820878009 17.978862479939338
Sc 9.78188198481789 14.062161193891587 16.578793078429488
Sc 7.798911269616695 11.596657948790615 15.756181666410226
