5
Energy = -18.55284005 eV
Sc 7.928709336079457 11.929262227232147 9.921442624914649
Sc 10.445849684034274 7.5704521051201406 6.988858509448835
Sc 8.55691100023168 9.491123911152215 11.175225004252809
Sc 9.08355663217296 9.892825573763913 8.492070345397478
Sc 9.892669042597433 7.306952230623227 9.647238939636319
