51
Energy = -266.85813394 eV
Sc 14.493383761669886 19.31504194921755 13.276554213814816
Sc 14.119909813378772 17.677820248996046 10.361528801064505
Sc 18.270361383934965 14.919364526555334 11.831807843173948
Sc 15.74213823823935 14.906073016437851 10.067403766655234
Sc 15.118475863258611 12.443770146489417 8.298894958412472
Sc 13.66756308174874 15.701146887603237 7.996747569421181
Sc 15.907806874669435 16.668374671403825 12.581216228060317
Sc 17.323476235837788 12.303100378493786 10.433937083004489
Sc 11.852562404347525 17.79916666529046 12.51620040454784
Sc 18.38596893666295 12.33542598409541 13.223047140975693
Sc 17.919979843475964 15.032673335472953 14.77367155561832
Sc 15.065031643536233 20.32859581017333 16.193311402255333
Sc 11.246879373010056 17.171509807504275 9.365493506619204
Sc 13.421842390254675 15.79857269907088 14.199567416575245
Sc 10.981639765642214 15.561316830109057 6.742778205528985
Sc 12.62998564334606 15.066364477950064 10.972605808724945
Sc 15.834780542088744 9.659846350735302 10.234276218205867
Sc 15.646175645885535 13.652268291066656 13.416411178186475
Sc 14.36306753987735 12.202554973809923 11.054295387475221
Sc 12.90250657650936 18.409468310575583 15.610815499597013
Sc 16.758326602537984 12.058191473876125 15.715700710303466
Sc 15.900874215375252 10.396660437815203 13.23521681713141
Sc 12.225303915047816 13.139208306475274 8.14370104193684
Sc 16.236967681878536 9.084902044496486 17.172805777625296
Sc 15.98782647186648 17.705347208164554 15.285881085363071
Sc 9.865764333676172 14.437670244642469 9.330545389120047
Sc 13.46818472133426 8.755449343649932 11.881331839661431
Sc 15.405823473721275 14.936802514204118 16.568132867905877
Sc 14.7400353845022 17.73715851374224 17.94043328061777
Sc 12.901117753769626 10.145828734372202 9.282761338822093
Sc 9.513266564056293 15.768016755935596 11.951094629840883
Sc 10.38099650618262 16.30598148424377 14.908310806369911
Sc 11.010273870986346 13.739522074792905 13.474887923294254
Sc 11.318576414130119 12.214849753604634 10.71272153545332
Sc 13.223433908271897 13.027104780536233 15.84913085353758
Sc 12.459243405530342 15.70270819649959 17.24698966152143
Sc 14.912090754206305 7.751335610845915 14.47954659939754
Sc 14.167542103836466 10.239870264102688 15.939572854109187
Sc 12.690424263576173 11.206543735353304 13.391012658289027
Sc 15.323955000785304 12.237205667457259 18.255279434498885
Sc 10.523257230257848 9.660766080435248 11.753604074075525
Sc 14.445242713259118 14.96944132842769 19.46808857209233
Sc 8.66404207612368 12.56735991518826 11.797864124980691
Sc 8.190971125665094 14.094272533080778 14.297936515886109
Sc 10.253103045307384 13.519399845211822 16.477641581960395
Sc 9.67684266148372 11.167794155237146 14.38782830739385
Sc 12.397830689415068 12.858320973505213 18.79827321823211
Sc 13.535123209227116 7.667219174317807 17.10404154332469
Sc 11.386969052106028 10.588611835387564 16.921916661083678
Sc 11.901556392082137 8.569088472647682 14.487081314012825
Sc 13.64277160488661 9.990112654639802 18.970335499451878
