5
Energy = -15.6361694 eV
Sc 15.329778664529822 11.606482979216588 14.008933541930169
Sc 17.582756282457247 10.421874793353899 14.395879699151187
Sc 8.875220751695425 16.428894937237764 10.95227147910426
Sc 10.468789902375178 14.84250407622861 12.197358389481163
Sc 12.96071701223297 13.260137167192461 13.030730423791294
