51
Energy = -266.69077107 eV
Sc 19.117696716311645 11.419701422766295 11.855977110749555
Sc 18.745101658621497 14.397267115287791 12.011066750282255
Sc 18.384039379871624 13.206752073734542 14.689351427834096
Sc 17.628834507272646 10.366107441884095 14.481800575416123
Sc 17.08719385698383 8.448237862951169 16.70840170698496
Sc 17.068327348768634 11.458613008568552 17.254131536318884
Sc 17.747341934955923 16.218513165086733 14.186750923117792
Sc 17.14511303853012 10.81305273195266 9.65514994748073
Sc 18.017302301028973 13.579452846292057 9.41211865650607
Sc 16.52384499202718 9.231195760670742 12.005282199185453
Sc 14.286136806611287 10.001642942273289 9.52043817544335
Sc 16.400612141415653 12.419116749585537 12.27538544387401
Sc 16.430722652116014 14.459876942463996 16.622959622829967
Sc 14.908954320790148 8.73385359558685 14.572684024729575
Sc 14.161223327230404 7.560268387689802 11.135609106434341
Sc 14.929108440177863 11.807445433700128 15.138278808620782
Sc 14.482213653356347 9.912887099628891 17.49540450226656
Sc 15.74141504442398 17.34848989814147 16.110222173411227
Sc 14.914443191846502 13.05316070865267 9.634691454344265
Sc 11.820970301462637 12.00328385148754 9.777171450361907
Sc 14.966761312962452 17.81112947082172 13.279419576660898
Sc 14.092123163388786 13.025249540940203 17.865597124333416
Sc 16.067216640972152 15.53590220031589 11.235791930766561
Sc 13.711940170250335 10.661773346056812 12.33235277486775
Sc 15.138582756091111 14.844596010309735 14.069477426233757
Sc 13.259906539307218 13.86866908876313 12.003285362846425
Sc 11.541968956452413 9.066642603591257 10.480143496747722
Sc 11.671744757600308 11.412427951747382 18.008554843644454
Sc 12.084821563394469 8.14518730477321 13.114460626442053
Sc 10.281681954813006 13.84529175894584 11.842324885164961
Sc 13.008924761474725 18.684493894697983 15.423170492743957
Sc 12.193739707935835 10.048256330507822 15.483249860617741
Sc 13.355131800335897 16.984418284445894 10.93897185631157
Sc 12.178180318237228 14.877724205559629 9.294203324810985
Sc 13.331109099400871 15.686561116699817 16.483619794672435
Sc 10.778216988733298 11.092107980174095 12.936940831415637
Sc 12.127848929863019 13.140537494593564 15.081062994049491
Sc 9.0420920328212 14.096669618675962 9.229705065528847
Sc 8.890293540754772 11.30758673948808 10.49097285194723
Sc 12.044421369310736 16.28364378217119 13.65609940483631
Sc 10.724275843349417 14.165645543454875 17.47477565152824
Sc 10.355562394858763 20.07072573901978 15.099047888007616
Sc 11.884597579847961 19.157201677379845 12.615172206004885
Sc 9.559736331435174 11.791069885456318 15.833411851366156
Sc 10.360784372513999 16.74182483224807 10.867857561622307
Sc 7.7489003819853135 15.321279493737842 11.857341860108297
Sc 7.850157037047947 12.51391318300429 13.04906137167423
Sc 10.53700419871855 17.21352889830805 16.263245132540813
Sc 9.395056581216863 14.739464195121156 14.669807813500542
Sc 6.425894186831506 13.021101643361392 10.38465970824216
Sc 9.320604934767848 17.706871062113894 13.562425391956985
