55
Energy = -290.72882265 eV
Sc 10.388319308594786 10.055519205969318 7.864012533975713
Sc 14.968975102696684 9.172438930245878 12.160795211442199
Sc 12.148769277276806 7.8883017477446 12.55290449293337
Sc 11.235689145170898 12.311388063540264 9.95283821943016
Sc 10.133789756583713 15.125674484504371 9.075367593349625
Sc 12.553259216754338 14.849276492208478 7.316203867912463
Sc 10.259406070835714 12.863545641751138 7.071230647766947
Sc 8.042307893743452 13.307492535549141 14.714760483491201
Sc 13.768812377080945 11.524729442291063 15.000739615355952
Sc 12.716292091721161 15.181855514613698 11.027523463232543
Sc 16.208810215910663 12.895730182099713 14.374819166440538
Sc 13.929312979375897 8.58124071795385 15.043197334429188
Sc 8.40537083608556 11.93111854512531 9.31143286518615
Sc 9.80878847998422 10.114583192804252 18.35421542448241
Sc 8.682175141577204 10.402950003161692 15.528650864723518
Sc 19.113231958422272 13.68496946940091 11.428433790966112
Sc 15.89536961038373 17.0387199137859 13.660046758265672
Sc 17.21119849184771 13.444226786560415 9.13261719518836
Sc 10.763981521617259 13.59490921467762 12.959146702589637
Sc 8.272270804846444 16.076394233612234 14.027850504193628
Sc 10.000373179478958 9.556835575425621 10.77291297817279
Sc 13.643085647801518 17.393428053857257 15.814535144286381
Sc 13.009958034702407 11.556417358470584 7.417968525823069
Sc 19.059724800192416 12.057630176682245 14.01018411612552
Sc 15.954490885229717 14.528788096884533 11.713881781354413
Sc 17.88322128039523 16.291908609378133 10.660357441823434
Sc 12.536312854613142 17.311746190095615 9.190670911518959
Sc 13.748180916944827 14.813997612822625 13.94869073028765
Sc 10.813069518751023 12.485665691138573 15.898387510636912
Sc 17.726482488507784 12.333457128112597 16.734133373850433
Sc 16.791077482733748 10.001160864435075 14.549705553474114
Sc 8.312148577027806 11.294316671378585 12.531066091218984
Sc 11.230197317471804 12.829845889959849 18.784872626829166
Sc 9.563795751474595 15.083991440344931 16.907028559155023
Sc 11.268433693617066 10.500861444785338 13.433366562933257
Sc 15.43306576834878 10.758117643253085 9.375501952810602
Sc 8.367597787562783 14.27972448916228 11.45437000987319
Sc 14.196736988346103 13.506543542971977 9.265116768836972
Sc 18.254518046856045 15.04596658623241 13.924117917225598
Sc 9.202006139735131 8.281497464719589 13.365554576782909
Sc 15.65161099584337 9.993791033036281 17.24787259256267
Sc 11.040656462180833 8.53087511706472 15.727537800452355
Sc 12.610322589016794 10.38443621605547 17.46570105357493
Sc 15.05888903103182 17.43801046735414 10.857358806218864
Sc 12.924350554579265 17.699033066276538 12.794078640573964
Sc 10.21769920690991 16.6656197934014 11.68735623381707
Sc 14.781270510923667 12.697802286060305 17.587812401592302
Sc 11.077959435271824 16.12257598914389 14.596475411173259
Sc 15.396676126303966 16.02491198873116 8.475600581463734
Sc 12.788450159524782 14.643359326703411 16.762825984662097
Sc 12.840258913004902 9.496252083702098 9.852237760661387
Sc 17.064258791073676 11.540290680783396 11.733322078427584
Sc 13.794354184831636 11.912050934733342 11.88268920132502
Sc 15.908745310590644 15.252549269183493 16.212260208792344
Sc 8.313037714651424 12.610624326098346 17.776808802367626
