55
Energy = -292.94722339 eV
Sc 8.141009264835 11.247045393064708 10.38623695681664
Sc 18.753081776626125 14.077614585944374 13.105211979440416
Sc 15.081935501402704 10.787325076466479 15.213687483113937
Sc 11.041155937774041 7.59673200819236 12.532721434873674
Sc 15.992978738024693 13.916301820570668 14.568846334749349
Sc 11.60916419399508 10.959191515996968 17.782703393254476
Sc 13.51729997384451 13.089280270705538 10.121446906483921
Sc 12.93992282593498 15.969367669978302 17.55246856178125
Sc 15.513542636759542 9.861227932419855 12.318341724797
Sc 10.601334824838677 12.143312031339905 11.731880655119907
Sc 10.770855728508518 12.098162798096647 8.71665554396695
Sc 11.88583692000597 10.792872235359583 14.625553182948282
Sc 7.984932797940318 14.478866843407264 15.737479611149276
Sc 8.003816119698127 12.854767872705569 13.109212548676805
Sc 9.110153739724828 11.505064869966619 15.821905209625516
Sc 13.019853099461427 17.50487194763039 10.394854203971962
Sc 9.934436305765576 17.231484342509585 10.326387082006299
Sc 17.57769234040954 15.359165486423286 10.398925727018664
Sc 11.365362381958452 17.89282112616518 13.064397233147197
Sc 13.505032675789849 8.26924514133284 13.87023367712817
Sc 14.898514929168314 15.47248916967804 11.79232311392947
Sc 13.492674227263414 8.873538612055233 16.87397782600396
Sc 10.74446626442533 8.431028276832345 15.6067558291174
Sc 13.128178188068205 15.765607208853035 14.486565296321794
Sc 17.91295939266321 11.316461271484856 13.932700459065165
Sc 16.42070105634519 12.67791139507619 11.515855959962531
Sc 10.394024247169158 16.523051651156187 15.764555656303672
Sc 13.24763480496639 13.139007208913545 16.36484666302876
Sc 13.703620565582856 12.546588522861061 13.044226998646817
Sc 14.737871400235177 11.335113480061413 18.275724935376736
Sc 10.45621053431453 13.88065123712555 17.506662513253897
Sc 10.620543417944226 13.763120224433086 14.464576016648106
Sc 20.14269517017361 12.735649737884417 15.467189511965497
Sc 17.256891613718537 16.67705010909028 13.278442381014306
Sc 16.133080626612987 17.92758501234498 10.52149539843046
Sc 15.621428455733039 14.355615509846585 17.818332904073557
Sc 15.526263899731473 16.849171856277454 15.901426287353619
Sc 14.508461975760358 18.191734793183997 13.193229588206666
Sc 11.680374790168463 15.139679969948658 8.690504468133028
Sc 12.666427764742636 10.186478026352274 11.463003048837917
Sc 12.880943239910716 18.510599993375305 15.799519498486022
Sc 12.567977238988435 9.768296885873518 8.261743651788525
Sc 9.183143278767433 9.855988824630684 13.107723907965179
Sc 17.43092552517398 12.206802405562504 16.756362909980968
Sc 15.099522036609505 10.528766668561952 9.42726051165034
Sc 14.877233986499693 15.587650775491444 8.719651881047527
Sc 12.945142385483052 13.40661874227905 19.365455512207284
Sc 13.708760664825663 12.62888804988771 7.366756842157352
Sc 11.610845913489635 15.149769403371597 11.727729240630396
Sc 18.3240313610344 15.079230985544761 16.00742356845602
Sc 16.489142051990683 13.114090601831728 8.557749504874954
Sc 8.894468976067568 15.900291520279437 13.032909424382579
Sc 10.283959058504264 9.195865660268824 10.116348624588698
Sc 13.477027402048359 7.789767874185628 10.538449563269772
Sc 9.014079884832581 14.284741479431968 10.302995165081963
