52
Energy = -274.14380127 eV
Sc 17.222897029920542 8.68783149848245 14.777272679862898
Sc 16.3442010519769 8.378994895586244 12.00134181514701
Sc 18.80712659555684 10.203501270387456 12.475481203211435
Sc 15.845951876302765 10.438956808474348 9.964416683904794
Sc 18.418550441570684 11.2239420808429 15.464574404334776
Sc 14.357843983133103 9.417430114933518 13.939750590926973
Sc 13.292650923156614 9.31091703772092 11.271046226899063
Sc 12.607952244295397 9.518185759324634 16.26896354803286
Sc 15.69240923774862 10.586773432135168 16.91132549058087
Sc 16.421357969089563 11.475810082329822 13.150366030876887
Sc 12.670899242083763 11.545769690645166 18.268670169134253
Sc 17.844909623585142 12.551745375057711 10.347978030369731
Sc 18.885850832440305 13.339451653892143 13.297649553357763
Sc 12.756899830398579 11.01627072883055 8.961380756966767
Sc 11.180780363917115 8.631248595888625 13.774484983469254
Sc 14.058844478711093 12.37093451143941 11.521360925392743
Sc 15.077421548953412 13.20706968989109 8.682426938044676
Sc 9.594921358315966 12.06026028524665 18.620225442699258
Sc 16.73444442657496 13.741339026693954 15.574577627191363
Sc 13.982327609575792 12.19869486462158 15.326234271836855
Sc 11.79417866185422 11.465406073465838 13.242282388503018
Sc 14.777281880394483 13.614963019400466 17.95235685401797
Sc 10.314477359471812 10.076785401167163 10.94377206961218
Sc 9.592224446212253 9.692767705653264 16.48676467430483
Sc 14.556155352411588 14.951236952742992 13.857640942770516
Sc 16.44493277985573 14.363328190766346 11.862618889725885
Sc 10.738559138536104 12.352946044014963 15.919264374561873
Sc 15.070656283064192 16.299749366419032 16.515481919602962
Sc 16.294244961561283 16.02082286729163 9.405821664027968
Sc 11.036150990637791 13.12067707971085 10.545777458077469
Sc 17.21436768233471 16.313511728099268 14.014399259983366
Sc 11.87609357783119 13.698004203975648 7.73794275492404
Sc 12.434981691259443 14.853790550292667 16.01062336576367
Sc 11.875336585084954 14.289589517329995 18.892166050926175
Sc 9.628073905860289 11.576047018450575 8.374477275879741
Sc 7.803785028744564 12.23572771726666 16.20264651187578
Sc 8.873600475219016 10.731364554181413 13.697677773000423
Sc 13.448603129365475 15.269085876529498 10.357905296105276
Sc 11.759676708042905 14.767942045891976 13.058196336188281
Sc 15.033291309823818 17.324061908010712 12.031235603572801
Sc 13.971827133441296 15.918182279036978 7.421807836421218
Sc 9.490826653810931 14.836220578182227 17.039796482415316
Sc 8.24595030524463 12.49774500869282 11.057686931181546
Sc 13.116907087685568 17.548383186363164 14.58935646451066
Sc 11.974241413045844 17.097402898147156 17.49485111021556
Sc 8.984156514729012 13.891655532566247 13.817024988436339
Sc 8.90929243572705 14.364446626328354 8.66634042429448
Sc 9.383554785547966 15.75881390502415 11.35483030165893
Sc 13.91271914966515 18.120510167965364 9.3486235432528
Sc 10.184765581169605 16.733868904735427 14.58268668832269
Sc 11.841093937880864 17.630846062355534 11.82212320731552
Sc 11.177928401764001 16.541400080780367 8.916108432696106
