5
Energy = -20.29706377 eV
Sc 13.18587374678535 9.928493495503625 11.856506456827612
Sc 9.544591704764926 12.813165313161772 10.928857709245932
Sc 12.30134654266514 12.38413054980004 10.70601662143529
Sc 11.079690560317104 11.498023029636142 13.090446717603246
Sc 10.634502844087505 10.135159440325275 10.537931775004902
