55
Energy = -288.62775112 eV
Sc 13.708732477156705 13.907062552908668 13.686239050783737
Sc 8.754376890807002 9.323287698274251 12.469702889320816
Sc 13.389288195718947 8.589242847020362 16.281954645909796
Sc 9.095973151088286 14.031282044805723 15.218446052754741
Sc 13.942528335887669 12.386620311399367 10.861991050095156
Sc 13.75776098892218 11.768446752063745 16.40172286295013
Sc 13.985500970806955 16.96800037428311 13.791886992807697
Sc 13.987038577744238 15.589594227026451 11.04687183468516
Sc 16.33525283677431 17.499406095343055 15.730217055615165
Sc 13.930037197524456 10.374728092099874 13.701299977826618
Sc 13.97395217254727 9.14715132669482 10.759249857495284
Sc 12.25605168482506 14.234371433264492 16.504391018183515
Sc 8.639903896784356 10.992924688780906 15.369028906868085
Sc 16.491225961748594 13.884581236615142 10.205795422996173
Sc 10.139999753536259 12.805150209991169 17.830822835745636
Sc 13.981489314476836 7.4982873625780115 13.444418708531014
Sc 16.463244728481644 10.926926113855224 10.040576949334522
Sc 16.612014070632764 11.61428854355942 15.858956518819705
Sc 11.211001687056626 12.0549557617821 14.595542295314155
Sc 8.723611554000847 14.207203118461278 9.821132755513261
Sc 16.094446691244638 8.698939248007639 15.512133734205987
Sc 11.145246736962525 16.07513895642262 14.459122221536134
Sc 8.670618287602103 10.8855167466922 9.743440051897435
Sc 13.522850813300703 17.034193122753376 16.7758263470198
Sc 11.066187239962163 8.900565492959329 14.372026353504795
Sc 11.343714133340555 12.516443307437708 8.890971144094038
Sc 15.336499620705727 14.67592619387109 16.01440727567
Sc 16.359067405310157 12.26760656028966 12.782076274981836
Sc 16.511765352690112 12.53180297339973 7.364535468301682
Sc 8.978429128951053 12.576676193188495 7.049364052851917
Sc 16.382312267389555 15.370210277155477 13.106336132772649
Sc 11.407673476150771 15.770525571364333 9.02707536077888
Sc 8.999487784065874 15.70674381637929 7.259172228084338
Sc 16.455318860263404 9.174164753578063 12.634558264633368
Sc 8.887561847057034 17.21550866840423 9.792747587404701
Sc 8.877704408219032 9.433215582957969 7.108768244541344
Sc 11.188427069245263 14.161821590807838 11.920815097311541
Sc 11.32107731343382 9.275493287983362 8.834071683747267
Sc 11.502249992258184 14.076020371051749 6.328832311702749
Sc 11.352498177042168 17.213399279299626 11.763467942214913
Sc 8.777164354574442 7.902105232872318 9.657731258530916
Sc 11.437779659504438 11.081258351820988 6.228136100396536
Sc 11.236157278586418 10.752178259526936 11.646751192229637
Sc 14.121199944575528 14.124668952881562 8.117056287856174
Sc 14.13802946321996 12.579387085170348 5.535769156454698
Sc 11.266519157301488 7.774195479044617 11.58972014950433
Sc 14.04268773389119 10.91169694772431 8.009467295298231
Sc 15.496041442218244 12.975811193192513 18.569492573823943
Sc 8.626866336714997 12.468077794971164 12.604676500475133
Sc 11.076332232902384 10.186634124940541 17.1518964090415
Sc 15.881740826146682 16.264537724100613 18.428044770750663
Sc 8.769012126927253 15.779673835830243 12.536415709261856
Sc 13.200807553436707 14.845944963645149 19.065089766647986
Sc 15.227046098049838 9.965871975539313 18.21999306025577
Sc 12.74861906243499 11.852659616128923 19.107888632867752
