53
Energy = -279.17562554 eV
Sc 8.533307811091067 10.883907048922875 11.578976092383883
Sc 7.545911363279783 13.754807119545363 10.775034381291052
Sc 10.053397946373911 15.014923863912433 9.166994224200577
Sc 7.823009627217941 12.697200429812064 13.861793829456627
Sc 10.434862362131136 12.041230922815803 9.330181310393971
Sc 10.807724776219986 9.806235203232594 12.901348443120163
Sc 8.802718295557034 10.131728793930103 15.026702353121994
Sc 8.394408115420307 15.687978154412942 14.033439780230932
Sc 11.834772960955327 9.40390866630446 10.37040870821711
Sc 8.939882402176659 16.547145472455725 11.20467576616562
Sc 9.927210664698785 13.63962283735553 12.06836160424625
Sc 12.959142737089415 13.969128597110466 8.933895675962978
Sc 13.018474835531665 7.512866700048684 13.01730463128317
Sc 9.22106142392101 13.92167458546179 16.407484271524435
Sc 13.53101795891104 11.046029365037082 8.572697546825008
Sc 10.997874559912804 12.152889662346002 14.686578317315501
Sc 12.577507450153988 12.290322055140365 11.461594520914677
Sc 10.047666656804182 16.92241059661858 16.394040830072978
Sc 10.53569443121077 17.883174895828354 13.406820482988538
Sc 16.166092709183122 13.162226770494575 8.619361198716694
Sc 10.42343812007672 11.200324466810716 17.59566241144947
Sc 14.761205048743642 8.464366034944588 10.457773644346076
Sc 11.49949326406924 17.874307344348885 9.87992156684508
Sc 13.817557602231767 10.170818656098458 13.156720270671006
Sc 11.374849985689078 15.190959501433845 14.488167461169885
Sc 11.934227456966038 15.649966927994878 11.477809522501463
Sc 14.345962329716818 15.956670370681307 13.136163102116937
Sc 14.409364677575244 16.65553635004386 9.981067218577659
Sc 11.873944364211514 9.269047855232511 15.601638946628759
Sc 15.217719828998643 13.90363894241096 11.384490627196996
Sc 13.349500430157756 18.526408831593127 12.34553605120113
Sc 12.993657671537752 17.598434419054954 15.357247554190577
Sc 14.068550158669833 13.105691213733051 14.307042039519144
Sc 16.464726125781905 10.020900076251742 8.172545731512692
Sc 15.551988391143077 11.187356574823104 10.74871179592533
Sc 12.253466689252441 14.613001752428255 17.200786916790197
Sc 14.881620050581747 13.901016267406598 18.731474115245444
Sc 13.339854897239363 11.813200406814202 16.99079842140105
Sc 16.09649348714912 8.323647126575448 13.151834338586658
Sc 18.930122343591012 11.560897481193399 8.533667695225121
Sc 12.773774408147622 9.421075688653946 18.591016648175227
Sc 17.03058352453714 14.577268759719107 13.866883971173484
Sc 17.03726459503973 16.322543366565725 11.373201350111819
Sc 15.973004935244782 19.132438596838515 10.945547030369609
Sc 15.070042117360694 9.621758312422845 15.926913093310457
Sc 16.121991401981585 18.011403893088357 13.857751777875663
Sc 18.026711633263968 12.895298456877342 11.080466729314573
Sc 15.112531393588023 15.476973465800125 16.035894803997184
Sc 17.933952412862745 9.657351320791621 10.835302121047027
Sc 12.499056607581798 12.308900048954582 19.715588434427556
Sc 16.72160446218975 11.306468137455163 13.542851109363777
Sc 15.27961685878318 10.946963755187193 19.02006891857149
Sc 16.327864379234697 12.539050176953193 16.436143011129488
