53
Energy = -281.60559866 eV
Sc 13.43503540144333 17.59865757759836 11.433757327058833
Sc 11.839186580381739 14.073605569830358 7.422310336157615
Sc 12.240507804017337 11.41077777384668 14.831443086751525
Sc 10.13690662748999 7.498388532058434 11.48739267743811
Sc 8.248024628062584 15.134439019564281 12.157724733562288
Sc 15.539739871615895 10.540357337568327 15.530330411345984
Sc 13.551515415047255 11.439691185704337 17.638037999742625
Sc 12.948205258170594 7.482590590193392 12.755608959143125
Sc 10.784415960100763 12.974428029638085 17.355432818123717
Sc 11.043158869295565 16.454045963229056 16.843370445382227
Sc 11.686140969440672 14.43532510067698 14.979721059087524
Sc 16.008038209124244 15.601858249475077 11.955189358135316
Sc 8.684386172653971 14.255521436769193 15.344664830340825
Sc 8.483401456063914 10.020802380396818 12.411038648424745
Sc 16.347943717656186 12.771282986840049 10.210833083080558
Sc 15.265135540767304 8.125322265104566 10.90860281565479
Sc 10.291660608179447 17.849859839335185 11.30286741921843
Sc 13.855740603720575 11.244750653442853 10.205999246449563
Sc 15.193144203438132 18.394587163088474 13.875793911403957
Sc 13.780760077335007 14.65229229546213 9.87663119752246
Sc 9.378830530167873 12.409131544453212 7.5423247350296565
Sc 13.434810457654537 8.634068568804222 15.570564985109884
Sc 10.565208032756317 8.621780805745873 14.350513266054172
Sc 12.565462588101893 8.426262790453634 9.663440256671088
Sc 16.22872386911116 8.122668645966547 13.870419374687827
Sc 13.80695665151301 13.214609881867965 12.5122805402864
Sc 9.04902271399502 11.186690323982086 15.328793004437589
Sc 11.496172199869749 10.087648231353205 11.95586939301326
Sc 11.134100856228342 12.656320392518884 9.946577292512528
Sc 16.629023570086744 15.889406186464958 14.93260859269256
Sc 18.341696278680047 13.533712850461448 15.572683386804108
Sc 9.90413998668203 12.717130034797254 12.958639457505491
Sc 16.696333680359487 12.737633409661548 13.276585199347338
Sc 17.16421359286745 10.16951061417896 11.626371200300659
Sc 14.44642301666847 10.206255451359237 12.957503524376275
Sc 14.785728999582371 13.414888190892318 15.544589388799023
Sc 12.259243739631613 10.926139958376305 7.63218826517734
Sc 11.393120547524433 15.254963667385004 11.770774401728822
Sc 16.76542666683572 12.05283215568265 17.512664854288314
Sc 12.143731363722003 18.28709843998773 14.27242090589151
Sc 14.698470448254039 12.807386228243953 7.656424482645847
Sc 13.263230842962356 14.561025684435997 17.861116808749664
Sc 13.792123700090455 15.942010358614624 13.917722333370216
Sc 18.29230338673101 10.585365524405368 14.818997178526427
Sc 8.116698785016597 12.499213918988382 10.463065927966403
Sc 9.80026114520239 9.912008525986414 9.437283462943896
Sc 11.919102487547248 16.802096719633354 8.922548661059649
Sc 6.9706721468394175 12.529205167601168 13.45257574220568
Sc 14.238700541595517 17.09546402583089 16.56819825989232
Sc 9.73226829666234 16.746434056874417 14.095820341847729
Sc 9.469579093721475 15.119920061502656 9.25304721164298
Sc 16.41144889847798 15.01765983803745 17.723268750845367
Sc 15.626702733820972 9.999090508344459 8.492441114362128
