55
Energy = -288.66422318 eV
Sc 13.087085447587205 14.595810884497306 13.164173959419836
Sc 8.134040761773754 8.778331723703058 11.290558769325129
Sc 13.61006609524725 9.66142810240668 15.656914595624464
Sc 8.473678591776237 13.875316442619669 15.979833822167857
Sc 13.585028351094294 12.87162927714592 10.611226523582753
Sc 13.850001580022097 12.669680196251507 15.593014358912901
Sc 13.725260750067951 17.58024959603842 13.464391825354982
Sc 14.046939809517577 16.017605143491355 10.618971499409671
Sc 16.470401678776174 17.3227239617342 15.45023805027546
Sc 13.034980707416592 10.724524481223341 12.781385797879272
Sc 13.596226030790298 8.534356456612562 10.625890775033364
Sc 11.215656316617366 13.410813715061526 16.818561882331103
Sc 8.15874634794108 10.98478443789279 15.146811604386222
Sc 16.33236955540913 13.785268876937925 10.294590920996544
Sc 9.131608647899165 11.775240914578212 18.067927770332812
Sc 12.901939699773047 7.634463537319969 13.509192492552298
Sc 15.710693660257983 10.78009168194769 10.545309756663318
Sc 16.456214779031356 10.695990186321097 15.72281040711242
Sc 10.803378183341076 12.564983664241343 14.029368392291676
Sc 7.8510381117539705 13.069805207575053 9.382127810735254
Sc 15.671712537549919 7.598648953447021 15.812261568294739
Sc 10.978976508139299 15.806086534065349 15.022257651343562
Sc 8.716687968597476 10.207422487621725 8.517557895662762
Sc 14.064195866618393 15.75306828110727 15.832938695803625
Sc 10.271182625454113 9.355413420921444 13.379365612819333
Sc 10.67702607819282 12.622471654785723 8.21660791665582
Sc 16.70724421621385 14.152103010800593 15.51805989867783
Sc 15.59093573231259 12.462374262252974 13.07092859604531
Sc 15.876519588261381 11.982205578009445 7.79346851297296
Sc 8.441185048293699 12.17460179027846 6.188356656419122
Sc 15.900876826208368 15.599414391370408 13.000512422070493
Sc 11.429355028243148 15.737026359743822 9.01029385673907
Sc 9.031616822967806 14.966170095509861 7.334692084884584
Sc 15.533410198568 9.162817049776669 13.25025676685717
Sc 8.665293443619062 15.840536212513113 10.17550626732345
Sc 8.688941983519522 8.647877259664007 6.025731537443629
Sc 10.694990055988903 13.61380295137725 11.06221847537272
Sc 11.188198360552859 8.34342371232919 8.018379749936798
Sc 11.28179343028074 13.621870744546465 5.522837935936928
Sc 11.085931194472764 16.568230058180145 11.94322459960843
Sc 8.523951171684892 7.222053140830645 8.705635219340321
Sc 10.972286291803059 10.612627703840719 6.0382777663438745
Sc 10.97714016197113 10.342690435143389 10.509524709848604
Sc 13.63193854928864 13.918062724355758 7.769133259860536
Sc 13.786153817315471 11.851781635144528 5.615282425307034
Sc 10.75739369436804 7.39225172751054 10.991111420323355
Sc 13.220877857951768 10.757290300234601 8.363527617742227
Sc 15.584593190359584 12.560334844334552 18.01080450140612
Sc 8.650772786535889 11.686897335826309 12.107701969822658
Sc 10.789866633030623 10.246879217532847 16.22934338755649
Sc 16.156189708321353 15.656714470062461 17.978887979637566
Sc 8.820397533545002 14.672147971694432 13.062850054566528
Sc 13.391034267342514 14.490206703754188 18.496762410664875
Sc 15.167873218028701 9.442064247364675 18.149631076311444
Sc 12.688658783822099 11.389890531988716 18.313324771530233
