51
Energy = -268.80927718 eV
Sc 15.281566090732408 8.578320966770281 11.466507866263004
Sc 16.351349490533263 11.490333012250575 10.622592279709657
Sc 15.694647085659769 7.480130058969813 14.775603445670301
Sc 16.813515550522457 10.134803455922775 13.589867557626294
Sc 13.56186437098355 10.64172694340307 10.098195778247508
Sc 11.917635298094721 8.262049174044115 10.315561517473755
Sc 13.019855394546687 8.004158762669856 13.190422398126659
Sc 14.688537486849256 12.471003551882745 8.0444017938264
Sc 16.600820650874795 13.704298682696148 12.749312310849552
Sc 12.63308013154666 7.046642165924775 16.109674748736914
Sc 16.9322763113841 9.734059173393511 16.67131173195561
Sc 14.187847469025996 11.272908446955245 12.948063357267106
Sc 14.82438657586251 8.10544387105247 18.012626543122924
Sc 13.96960439886856 13.589185123064231 10.698822363846444
Sc 11.366821785515494 10.813478627615234 8.175432701835033
Sc 14.068513619331126 9.631055901606926 15.650683675747514
Sc 15.732531532201783 12.391132418173031 15.514487766627816
Sc 11.356414519068112 10.346840911142968 12.50601306510082
Sc 10.021170724067286 7.72101777333795 12.674783239531966
Sc 9.303857779050846 10.071924947983431 10.374434159071747
Sc 11.99570815248327 13.633865076948513 7.8171409867955415
Sc 16.649138644582756 14.666282415941325 9.807165808424102
Sc 14.052482014328163 15.754135182448199 8.46512256699275
Sc 11.035510277126479 12.767397269959488 10.55972534868856
Sc 12.007518188787031 9.706202315245156 17.9255349425791
Sc 10.81987462334234 9.266875468267834 15.227347447356278
Sc 8.075909725012446 12.493896049705233 11.510056576161245
Sc 14.65061981506101 11.281716472563506 18.15350709246107
Sc 16.740559859226618 15.216393149261656 15.336647697121649
Sc 16.11082500433067 17.720255660459998 9.670385867870278
Sc 14.492713272720257 16.389546714908935 11.745075772216547
Sc 10.94664721305476 15.913546306500178 9.339944726942797
Sc 11.584709383011418 15.610834071131084 12.300839634496707
Sc 9.082248107709844 13.118886907558121 8.661645560929546
Sc 14.024617644422086 14.63199282442065 16.990789238148462
Sc 8.521285898329175 10.527058473895337 13.56295592597429
Sc 13.854877660923508 14.397319312949287 14.148522254493118
Sc 17.25713021162997 16.77338021441445 12.534091429494321
Sc 12.43701582737455 12.03143978035328 15.815300147222516
Sc 12.97194735350649 18.321554413050343 10.03082100062069
Sc 10.445767010473755 13.106944992160235 13.655004311303705
Sc 9.423956519786012 11.762598277763129 16.256068383143834
Sc 8.634259786115033 15.287265664629748 11.370373834388294
Sc 14.95565572643073 17.433610060965663 14.589994084734377
Sc 12.482615888641726 18.507377018248008 13.08876669119941
Sc 10.000869891744813 17.95640759770113 11.46015034872336
Sc 15.25590788418073 19.24578466933982 12.025782926383336
Sc 12.21331997490934 16.689679742332068 15.403003399682541
Sc 7.808496825276006 13.768096227857958 14.331737606788183
Sc 10.589029955003523 14.495565133991356 16.27983936325438
Sc 9.450707208278365 16.43386940203419 14.150361072372156
