51
Energy = -268.52975387 eV
Sc 9.638099624015581 16.473912199727977 9.341518500475225
Sc 10.313222446028819 14.248299980329646 7.636055508496093
Sc 8.05020464435083 13.783936872212706 9.786923574007531
Sc 7.003512437437623 13.203904042129576 12.993303281801417
Sc 10.430767867452204 11.684480663636117 8.852280097503197
Sc 13.010172933531464 12.691673194530543 7.523269125764538
Sc 8.558699283287424 15.854504212462277 12.081541240317767
Sc 9.419922509240116 11.460255973678276 11.873953797081791
Sc 12.763512613615093 15.500893343355354 9.066482191616798
Sc 7.307473861656141 15.626231933531395 14.899240633281483
Sc 11.763564780175704 16.80269342154529 11.677304261240906
Sc 12.976210055550728 9.594527372325498 8.218303422922588
Sc 7.313852787596197 12.936010818385363 16.099342499203942
Sc 9.153856164723656 10.877274031549883 14.846040954264177
Sc 10.424445584033084 16.694051754393488 14.547155716817311
Sc 10.690571869420321 8.651213844673322 13.069222202842562
Sc 13.408228989319666 12.65444890138513 10.469081424543877
Sc 9.523775315592575 13.844182628507072 14.122537381447744
Sc 10.714682536110482 14.057260265254477 10.854395148955712
Sc 13.047650831254561 7.40209383339032 11.013486986211909
Sc 13.509816232380516 17.443066747401613 14.000834976064699
Sc 15.545430784569847 11.073230094340369 8.696410737836878
Sc 11.863517245108477 10.09047214376209 10.752953780303454
Sc 15.498189374261496 14.273997684276994 8.732142467346996
Sc 9.521394133586282 14.8022487395325 17.035713853165824
Sc 14.648228837298772 15.13567216703608 11.658065922570735
Sc 15.422086750624473 8.10311762304241 9.29075863074998
Sc 9.640774345810252 11.644094966999942 17.87321004952861
Sc 13.658805641203974 8.37570195023471 13.972713600001367
Sc 14.822943574609885 9.938267259520256 11.606708284642822
Sc 12.522054438773534 14.514507536204379 13.67663850629616
Sc 15.924881172615535 7.2227725951975374 12.124488553585712
Sc 14.753254906938805 17.75054796943039 10.693259515278733
Sc 11.484063772409591 9.50117037200725 16.079887454848606
Sc 12.27275885185698 11.192492550606994 13.431580515759949
Sc 15.451490499710532 12.502145642663065 13.389852625469565
Sc 17.076218291566004 12.666625774118105 10.791963606107855
Sc 11.732100921114634 12.715417858800334 16.145603636396437
Sc 17.332794777239698 15.903575298106587 10.702789002976203
Sc 16.355600450300017 17.07329258991893 13.19411352648627
Sc 16.619090515283872 9.582287835326726 14.054439708096469
Sc 11.674923727502279 13.757719274848872 19.008721481538217
Sc 12.50292649169182 15.734582417389886 16.64445539539332
Sc 17.658471785530306 9.566685880234674 10.985766208575596
Sc 12.674530082880063 11.011181623657363 18.501210366792872
Sc 14.389351764119624 10.842077015044561 15.807419320895018
Sc 18.521066772858532 11.656249348685288 13.152007429765758
Sc 15.275408356691367 15.027481883189843 15.259055057330695
Sc 17.815961399968216 14.494765398157849 13.449610409188159
Sc 17.099095145961304 12.499945826302978 15.846733016060707
Sc 14.39636214620563 13.391068128376926 17.604907342409167
