51
Energy = -267.95824532 eV
Sc 10.893945823987867 10.139599970398478 16.963628860544176
Sc 9.018990414612594 9.249083044467048 14.631883918696927
Sc 8.284485190373973 11.878326814095983 16.171301994514543
Sc 10.363564803741992 12.78674956466668 18.6426486195541
Sc 12.18879221210888 9.053620877774486 14.252666174956522
Sc 12.911132128533868 10.854820950298075 19.1709357124776
Sc 7.935818919157421 11.538377368256668 12.811768431525815
Sc 13.224460793717192 13.706516050214374 19.852758837218293
Sc 14.203034722137687 10.002523553593049 16.455873924460104
Sc 10.520662098581047 11.677586382065497 14.469660057213495
Sc 10.032809383387926 14.530849737699329 15.997251223049608
Sc 10.547005514568585 10.066229878280225 11.881469398609617
Sc 11.779211913695196 15.587366264839046 18.19482226404827
Sc 8.261647369932135 10.913758789195752 9.747695049588193
Sc 8.624015365459838 14.39776930064521 13.24299423396011
Sc 12.657543498027398 12.829788774425785 16.85169850695094
Sc 16.73565270081622 11.434653891317522 14.985984371978253
Sc 13.218056270674055 8.876096125115088 10.872192777773456
Sc 15.178774383036354 9.261714290546513 13.246973260134185
Sc 15.473100036824759 12.273056657598707 18.171527479402155
Sc 13.804942098467334 11.757522825525614 14.062976071636003
Sc 7.230932794893393 13.567386698308566 10.480690994999987
Sc 11.73188169833119 13.953629643578635 13.4505719542595
Sc 14.795805800352023 15.622577963309272 18.032012575444885
Sc 11.278840281468751 10.741912535944394 8.947369885377247
Sc 18.170397922617404 9.461448350790258 12.845542651375865
Sc 15.210202700743121 14.035400321956203 15.73024655330582
Sc 13.264154689262561 11.850818528363718 11.114450157837652
Sc 16.415844238041508 12.014074319644164 11.969915984504752
Sc 10.131445158325569 12.959146984427397 10.946095921248606
Sc 14.308410253222881 10.87328547808833 8.559039830748493
Sc 9.46208161719676 13.539506806098085 8.238555376661814
Sc 14.611235087474633 14.77842626501826 13.009483830397452
Sc 12.924345000529616 16.092136247357057 15.335875126429052
Sc 16.31399494371557 9.443412873063021 10.308348874520048
Sc 9.278403731654992 15.926437402957005 10.438676624700944
Sc 10.620087769028196 16.778782471521378 13.220957312377672
Sc 17.53252010159521 14.493293574864909 13.762302063362483
Sc 19.36387846409672 12.169196235325973 13.104362737713123
Sc 12.233224929738206 15.501787131075504 10.895646521827974
Sc 15.812324489217316 16.892346286159526 14.83585333954135
Sc 12.557391747051119 13.481327779266092 8.491129535083877
Sc 19.055562900743034 10.984905109252267 10.413280440998399
Sc 16.891774897118463 12.162890623213238 8.800899849999412
Sc 18.271714227398448 14.085808779482432 10.779826890685024
Sc 15.125159127021591 14.232743082973052 10.054107636529487
Sc 11.354041814397045 16.30432824585711 8.161168200112169
Sc 11.406456720469002 18.267707859191145 10.419145978919287
Sc 13.635940010924188 17.654371339415096 12.548873665087216
Sc 16.489828800011644 16.622527316812405 11.683165076798442
Sc 14.14627940026588 17.175949566417877 9.476521863822503
