5
Energy = -19.34812343 eV
Sc 7.867691348565282 10.929192988493403 9.259495547580821
Sc 10.759125215287527 7.131397591778956 9.767818380384506
Sc 10.150155742355567 9.471376885959678 8.33256103417103
Sc 9.488316716998787 9.265707950480214 11.143057927749915
Sc 10.398283350527164 11.807137136168985 10.188006978064003
