51
Energy = -269.63581289 eV
Sc 18.307676885786623 11.461915073999512 10.43080465724795
Sc 18.11621406580899 14.057858869089278 12.193661118252008
Sc 16.804857290469148 17.086541911163582 10.510433042900221
Sc 17.814728866428077 10.663098867660423 13.385514217032433
Sc 15.80089106793579 12.278706996377524 11.70084876036644
Sc 15.978252734604219 9.372850381168119 11.050718576333427
Sc 17.30442458540396 14.064526172351512 9.29701118656655
Sc 16.470378772935685 16.09928530249354 13.897652530479258
Sc 15.591643481857506 11.673723008527976 8.583368829281136
Sc 15.220734551884654 15.086072071391664 11.098761581030013
Sc 16.403563794270624 12.969520937158412 14.857149033725412
Sc 16.259429583152983 7.871749227204008 13.894704460554921
Sc 15.729782092345316 10.125381139671777 16.591594247679026
Sc 14.239735530687902 17.51408812099888 12.491792923090804
Sc 13.038369377312405 10.142715323139704 9.760189872382218
Sc 13.544556834231555 17.157004059272456 9.644382245930693
Sc 13.265417433014983 12.355298302904691 15.798901362867047
Sc 14.860003753961186 10.283655064418086 13.930081510697102
Sc 13.331574324081027 13.12256919306011 9.809706236948676
Sc 14.935996257203676 14.979066369421554 16.55130283525525
Sc 14.719989924707502 14.79023556736705 7.88758041010893
Sc 13.37642248148487 8.21863530101369 12.330437597325158
Sc 14.0391837719479 14.468446806460513 13.67673144612775
Sc 12.350169487444695 12.142671773628413 7.229485632362891
Sc 13.739267258402151 7.8504312563003324 15.557857555732717
Sc 12.849277338715321 11.801505780770214 12.486916883276063
Sc 13.187616943844578 17.122402524756772 15.290411427981349
Sc 10.62380564038259 12.386396618655192 9.663451150725507
Sc 11.561314573231222 15.012352167055692 8.247596362398605
Sc 12.057411763401225 14.922243757566049 17.431400251706968
Sc 11.823540504302365 9.70957957446475 14.44281252876388
Sc 12.900161475814159 9.922791026570092 17.595764557377947
Sc 11.080422672477733 17.627640894478933 12.92907733377603
Sc 9.937422129912093 10.10416404440624 8.35706752381439
Sc 10.44413874198107 10.04948023654795 11.551295155362649
Sc 12.104448135737622 15.289522553263323 11.477150897378884
Sc 14.246673959631629 12.545850014806776 18.384637651303034
Sc 11.256659574872128 14.963800446833984 14.578003051905108
Sc 10.221358179295644 11.981411928479199 15.136995003297029
Sc 9.066965391335792 13.146413267637886 7.588541214384947
Sc 10.111910516066512 13.094236333862945 12.387239834530087
Sc 10.098796276723528 17.239592658340726 15.861734912857633
Sc 8.472491323237117 9.979134255277016 13.91023026217202
Sc 9.178903043202887 15.016048468392261 10.274777235633277
Sc 10.083885171298624 9.290623190157168 16.716050214671064
Sc 7.9699305371248865 11.875702255444496 10.694311254864965
Sc 8.668848826289103 15.757059265676514 13.55684759116094
Sc 10.856864725940184 12.091614870362395 18.010520600979884
Sc 8.948290419636137 14.399697225282583 16.456078939766474
Sc 7.551241423318616 12.868585117306734 13.997383921021775
Sc 7.842815062548636 11.336444835336852 16.609976878401184
