54
Energy = -286.9672366 eV
Sc 8.507114681157612 9.807259236488107 15.8893340834025
Sc 9.585247751089067 10.818355480027888 13.269468844065118
Sc 9.769973474136803 7.619716186743848 14.191263171286325
Sc 8.73845912862517 13.088781516370773 15.106949355204074
Sc 8.323972938027989 13.291542207787442 11.789515118328874
Sc 10.673307041144973 7.892846684538835 17.061680980443423
Sc 9.7832002878457 10.914483520460324 10.333952685384544
Sc 10.473181496136961 11.11287690411425 17.644202547517942
Sc 8.948444886066891 13.39440064127344 8.280678714138473
Sc 11.522896551888014 9.751721708660419 15.144743804246838
Sc 7.9770227757160965 16.127440549006867 13.420797563324394
Sc 11.372536300998421 8.597278561452637 11.83686845520444
Sc 12.054824159636103 12.359978792818014 12.393305217590358
Sc 13.023237839548008 7.345135318423575 14.514269084648234
Sc 13.154638723150699 10.367610429942669 10.087903323582266
Sc 11.673034716494275 12.681270856689299 15.314490334165658
Sc 8.948797725445651 15.892081134540897 10.420576216382665
Sc 11.272947455869186 11.240941018501909 7.923855559474117
Sc 13.601928711366819 9.350610348777733 17.13531786039484
Sc 14.19498589582369 7.63687570922335 11.328063928129234
Sc 10.959004920632971 13.740347688930074 10.074090199445438
Sc 9.692466811529295 15.777897871756018 16.016533892757835
Sc 11.977016973366213 13.901104417547788 7.2421104262831655
Sc 13.2519093565954 12.031481010409431 18.05268731823448
Sc 10.518097908192141 17.855445141364953 14.272735459556424
Sc 13.68615057832824 9.953110762301325 13.069757564238127
Sc 10.504964816905352 15.007652978408455 12.97161502734957
Sc 11.522624538182944 16.52067939825825 8.702912819727086
Sc 15.752294569442777 9.057113759449122 15.170252139550689
Sc 13.067357228177594 15.87509194201506 11.299326659150328
Sc 11.014606534900507 17.96826242497744 11.335208746809323
Sc 14.554312378330355 11.959829917928255 15.202146697882943
Sc 11.463305620677206 14.32349225902683 17.771082427204455
Sc 12.36233766147606 17.368433873176585 16.851599980881435
Sc 12.672791731657135 15.44537062885102 14.916391503355031
Sc 16.277078402954945 11.49309993035118 17.306018357931915
Sc 16.705555444398975 8.908048046673459 12.337119714449829
Sc 14.664318473422732 14.15522615288591 13.06693515094129
Sc 14.326589209583476 15.440167309786137 7.953334212117157
Sc 14.30331192207061 11.841238008997784 7.44447639119676
Sc 15.748364387968289 11.647170525206857 11.700564956971915
Sc 14.538140646432138 14.490897920003338 17.22778209256405
Sc 17.486426184117292 11.375012291192625 14.145770028460268
Sc 13.899085563198609 13.327803057413542 9.94946736832331
Sc 13.361313282734628 18.122624060383828 13.442855381705167
Sc 16.114732454558627 9.766416302628839 9.421504672229158
Sc 14.138389662743691 18.079430606252895 10.103549223505063
Sc 15.234255195572592 16.76686173735929 15.483942104119894
Sc 16.029578599152682 16.822529606558916 12.724276240311289
Sc 16.850052315702435 14.198410256009772 15.207211028364725
Sc 17.689216757386898 13.909939400043829 12.146609562708718
Sc 16.088799795034667 15.54527326842917 10.230554845334725
Sc 18.48392516975473 10.999089430996877 10.998900713820381
Sc 16.831608437482735 12.82190534075331 9.091322772065036
