54
Energy = -285.00523472 eV
Sc 19.244548253808453 17.167193677111094 12.050793585012201
Sc 17.265196706873144 16.48309241765307 9.754670667600234
Sc 14.057898033372156 18.16694390873985 10.593969514766073
Sc 15.88420482612797 18.60784213418589 16.888284441633296
Sc 11.42994746546652 16.468753035512457 10.649568151537768
Sc 16.63649497457898 18.49313946877348 11.879080425295976
Sc 14.607918809356947 18.925081849300863 13.924182337765448
Sc 17.555773066080707 17.620026903802543 14.651510464921333
Sc 19.399266816863467 14.376807282849159 11.295401116452727
Sc 18.897408730690366 14.72129789204574 14.40779732340556
Sc 14.314108518961193 15.190453732817081 9.730912253206137
Sc 12.76183376756196 18.34202096677018 16.255690626942837
Sc 16.73742917338133 15.580355870021075 12.47049526878234
Sc 9.253311435314219 16.326028378882196 13.080655191039535
Sc 11.187440886324346 13.848421701547215 12.372606628591175
Sc 8.900249351153763 14.619585106403566 10.551878516901189
Sc 16.819198129935824 13.307233122132784 10.377033540864911
Sc 11.701241080884184 18.337193795827165 13.152330496793143
Sc 11.557442913435715 13.76143759076435 9.228929362590405
Sc 14.83968570847272 16.309585236763947 15.358866079757616
Sc 13.749968393576346 16.037383845653594 12.57354709574617
Sc 9.71274702858956 18.07881055848447 15.627826867334758
Sc 15.9617765452674 13.520448305983175 14.710230656292412
Sc 18.204592020732726 12.100820448356851 12.936567384127033
Sc 11.089568724504455 16.387647955381944 17.948453639596217
Sc 14.400727017860337 11.996505333981165 8.899120191547972
Sc 14.271923866285054 12.860290300556471 11.787611444095761
Sc 17.819744014883085 12.163661823776614 16.216702679612105
Sc 17.21063949519835 15.567085788120666 16.96046049755656
Sc 11.976583829568666 11.254618679632841 10.563674224845217
Sc 16.035954503100214 10.435299323746424 11.046606237675089
Sc 15.935298137188356 10.518518920239016 14.065533672435704
Sc 12.930003305666716 14.085826814941992 16.9325308532993
Sc 14.319372785153584 16.39038993484325 18.344869664019082
Sc 11.566487791962752 15.828120552590224 14.905394545815112
Sc 13.30837488429516 9.795465792173324 12.80330875304042
Sc 8.810323472847225 15.236753276272454 16.039384500548664
Sc 9.099499939428712 11.674183355370534 10.587387829270996
Sc 13.709200300994926 8.857153386908125 9.935330055118017
Sc 8.418371028952178 13.31521072612404 13.326515206748997
Sc 13.085716769788188 12.332532030789606 14.417750056564827
Sc 15.450694885655743 13.456469541411805 18.285143034417196
Sc 12.75883615551933 14.182367285657907 19.85496589976945
Sc 10.442416126695775 10.770645338836419 13.217746834559305
Sc 10.945432800336178 8.501801407246964 11.108678521821497
Sc 10.478532710962918 12.684761819987475 15.659807352251375
Sc 15.08387357320002 7.587238485068539 12.445074699268721
Sc 14.40445033991102 8.249573854330606 15.477912977464902
Sc 10.124336898907254 13.599430556041861 18.45359452562047
Sc 12.419146968787452 11.584209817590198 18.35204081685244
Sc 12.824977585725346 6.114007546273121 10.957398752373226
Sc 12.201873155034335 7.213720799119727 13.683305993227995
Sc 14.767264416384029 11.082676553949383 16.674273726761115
Sc 11.934858109435257 9.815111159540884 15.78767603100391
