50
Energy = -264.21960818 eV
Sc 18.52049917454274 11.166500430645995 14.546130364489334
Sc 18.321088060352523 14.17657863267962 13.947775705394296
Sc 17.082029678466263 12.83242041496514 16.772072844732186
Sc 18.12386559915158 12.016794982545427 11.752306094772798
Sc 16.162327875050227 9.871906654459382 12.589912579066523
Sc 15.786817950701518 10.116836003908427 15.778700781755026
Sc 14.334758781501147 11.79548354904758 18.124459429754324
Sc 15.965805566292085 12.579538489856077 13.963486568575256
Sc 13.254725959497618 8.937109826408282 16.973832525320304
Sc 15.00272246749657 15.138534529723541 18.543393672634878
Sc 13.454208681684305 8.988375933040226 13.793706063865393
Sc 17.028420022020562 15.769781710436503 16.344292226355698
Sc 15.57481946735402 11.415143737364941 9.929143030387076
Sc 16.15366110760083 14.153459937148856 11.222181856624415
Sc 13.587448600414712 9.150343507538764 10.680513122892116
Sc 14.38310103612896 14.213094605697416 16.089471637668375
Sc 13.038113706759283 11.4996259885013 15.431633805102912
Sc 11.08262580371543 10.975025507714117 17.633631653657424
Sc 12.1738730869241 13.844352335871578 18.164278449302632
Sc 13.639523953068368 11.880201786727103 12.134018428917999
Sc 15.403196931501208 15.79034375665266 13.60575881269006
Sc 10.6793000420603 9.128499421308648 15.223619327752331
Sc 14.791562296511772 13.957648028194974 8.413334054702322
Sc 14.563401756034045 17.259417960670916 16.165010041004958
Sc 11.788050092438496 16.19184890589058 16.27261695167908
Sc 10.353773278018759 13.47260585553981 15.773036476395704
Sc 10.788226848401358 11.468524658242986 13.395886043254501
Sc 8.55050971131329 11.116743334202603 15.713661825197189
Sc 13.313662515343287 14.932490364359085 11.189449750699623
Sc 10.793998898993967 8.372721782903296 12.080542116838595
Sc 12.701968977127429 17.24721789977083 13.434590218010419
Sc 11.310235859706216 8.101312002493591 8.981650897448791
Sc 13.435107333100433 10.539811000853593 7.9623633553063815
Sc 12.42978286879791 14.318806953545865 13.849551625859394
Sc 14.63193347148338 17.212215651970563 10.660349390048696
Sc 10.339083664130477 13.957562943400138 11.55189279029189
Sc 12.273186613748056 12.928963399936906 9.425203377280917
Sc 8.350318158510369 10.211379120699974 12.598624713910548
Sc 9.823204674199438 16.01740104024891 13.728520619667414
Sc 10.760857744679488 10.700922028249263 10.372391487368951
Sc 8.11962150919388 13.272776128565964 13.471267785794778
Sc 8.549293330551361 9.360964041829423 9.235899637268993
Sc 12.573445496619156 15.848327260321195 8.425784825323365
Sc 10.927582281143819 16.865356836790344 10.856400908659644
Sc 10.849066458893839 10.010604084184575 6.864807282809792
Sc 12.023485035315863 13.132234930798322 6.596823482973785
Sc 8.002289542965615 12.478136787207767 10.455225567050459
Sc 9.73116673900282 14.871296349708217 8.767272217787559
Sc 7.969105520506073 15.591172346264987 11.266511195430846
Sc 9.458660995857818 12.098537045412321 7.9781203624919526
