5
Energy = -18.11456383 eV
Sc 8.9346826194427 7.5781300591072265 7.6003485432535305
Sc 10.769134651918195 8.542800248352734 9.485574280371987
Sc 7.2289308150338245 9.422608012359659 8.086314786977537
Sc 11.142868799820736 10.409159910637657 11.433097059485831
Sc 8.813247790885963 10.649188845987956 10.042804293353818
