52
Energy = -274.09059966 eV
Sc 14.71149471749249 13.050749650368225 18.703768018127267
Sc 14.374481450378603 14.191020922864503 8.7302934433368
Sc 9.047469093014914 11.927740904980354 15.292950739479584
Sc 8.130034268179314 16.833944989375492 12.592724875482155
Sc 18.38993909248699 14.277253279887523 14.862923010230487
Sc 11.54132042078286 10.764834399591205 14.629692544056285
Sc 12.231273739220626 11.492407175451225 8.797326428205393
Sc 7.392834762149556 10.57971636053668 10.881288668187704
Sc 7.476388564145947 13.85319881324602 11.474975855424825
Sc 14.728757834911749 7.532227181673711 15.133168650807995
Sc 12.788994759144597 13.07123187482959 13.256010841895176
Sc 15.786006824450148 15.559292611759647 13.798711608656482
Sc 14.786554780480973 17.73082592614409 15.924969483033173
Sc 10.074485185793975 9.353166821801441 10.311735975899362
Sc 18.697155551963707 15.498129622191891 12.298263964714181
Sc 12.61753904980875 16.742878942221857 9.305979133022081
Sc 16.643937209476434 14.156860517261608 10.979818250045554
Sc 13.167706340630309 15.51874606698388 17.5430233771151
Sc 11.410889032301169 14.375861029375093 7.682223798087149
Sc 12.200233912600229 8.641044868981133 16.514611263782708
Sc 17.23674273772418 10.030298039020929 14.69988658992765
Sc 14.36767667808661 18.201375841494457 12.915246393844527
Sc 12.822019276586488 15.97010671727057 14.525840016937991
Sc 13.88648750250805 15.481027211832455 11.600652953230856
Sc 16.285714776355835 17.132575417718535 10.94988378402839
Sc 9.490592816675234 15.706048306375633 9.928603776793507
Sc 12.131261442322 11.686687306498579 17.472979053334864
Sc 9.274295784086604 12.474642616865886 9.22607209988054
Sc 17.457862587027922 17.580049853466704 14.289979549563128
Sc 16.952513351889657 12.371832398926562 16.706771279925967
Sc 11.724538946659143 13.906299342976869 10.481256997791375
Sc 9.968086264027983 16.880564871267655 15.088839324309058
Sc 11.217577203080673 17.176626428974792 12.1104376113939
Sc 12.031017856095225 7.899272887881303 13.547168720077703
Sc 14.555016430804137 12.067581038550259 10.833120396144858
Sc 6.807054020462882 11.805549422248472 13.504793265683544
Sc 12.575375770291753 10.147111923265445 11.588088930404256
Sc 14.828321409919512 10.2322270024727 17.023307076140444
Sc 16.63398768444624 10.012054192635377 11.700029554752602
Sc 14.32826504808762 10.150568719521212 14.017812966683957
Sc 9.79305124958042 11.781259807951852 12.174544267641638
Sc 16.050951129483423 12.55888563880667 13.60439646498173
Sc 10.009277070934289 14.637072657482484 13.076755959233887
Sc 18.681804542944533 12.258926274729895 12.305573855838938
Sc 14.578854294477225 7.755090430199493 12.052234086435632
Sc 16.993956244423117 11.785280832133223 9.274473342684269
Sc 8.942730363921163 9.356388704848158 13.43334665670189
Sc 11.020743731074475 13.993537315956505 15.846435107199513
Sc 7.6455389082142755 14.624611837868438 14.739563775153785
Sc 16.247846610157406 15.311585510636247 16.929640549791067
Sc 14.176909829583991 13.27819715689649 15.852941449307966
Sc 14.722048895667424 9.511131317257853 9.397831757925273
