53
Energy = -280.52118921 eV
Sc 8.253168019323255 13.947434927640144 11.05334734439549
Sc 8.885729771492297 9.348580328860253 13.887438579582847
Sc 11.455774770223176 17.507784841643623 13.83505530356452
Sc 9.779247867851375 9.0901573986617 10.991216080464103
Sc 11.004485969794187 12.077834915012998 15.868615692401985
Sc 11.28878677961726 15.068346599022927 11.10827642098084
Sc 13.152717387851249 11.23773307360128 10.899209947495347
Sc 13.05156719002919 13.309700233528408 17.946589102005674
Sc 10.490720608142574 9.02113562321361 16.363408993199695
Sc 8.887126979067146 11.64516529582355 9.044778389091313
Sc 9.506005102471295 14.846912940851405 8.434783670968388
Sc 13.91383221530095 17.40040585546265 15.759015494430956
Sc 14.636967066797123 18.69850787216836 12.944935460030395
Sc 12.53873526397097 8.110678120646797 11.099634776142858
Sc 11.312011423252113 7.216598737331438 13.803195122931717
Sc 12.15706310725032 18.261088141202297 11.151452147754663
Sc 11.638706767208346 12.896031812603587 8.831458651931067
Sc 11.688683873184297 15.160271401194553 15.846862735105345
Sc 11.97404799135079 9.921017556428977 13.636479602513335
Sc 12.416419178679615 10.460947714351649 18.204307096651874
Sc 11.747959366039405 9.870923053677442 8.730486598513535
Sc 10.36373835886888 11.943606936094474 11.611995166090587
Sc 16.44756227912451 11.966160539978775 10.344502524008789
Sc 14.427416437022963 7.930530016908693 13.285098154699876
Sc 7.4236315508864505 10.924161855803277 11.636404316278806
Sc 14.391244710151813 11.810484509212436 8.167051135367364
Sc 8.70569372355735 12.399738671895065 13.978188867533422
Sc 11.708763193556107 16.749130252181242 8.749437256826072
Sc 9.339570636257756 17.077781506139882 10.826788528628146
Sc 15.114793463462847 10.929248712493004 13.012980416920831
Sc 16.521938664342407 14.704383875464606 8.875921164799157
Sc 18.109211067606303 11.368102984701764 12.93655835105195
Sc 18.672571948660906 13.858995029017954 10.99835350105848
Sc 13.91993175168393 11.465355674950493 15.658241719163161
Sc 15.20854958324826 9.180890293940859 10.33358068474038
Sc 8.166373470624798 11.064077690323003 16.551521850035165
Sc 16.051240100011935 13.741105969903751 12.84404645973677
Sc 13.459764807016935 8.45966027697846 16.109269059281928
Sc 9.639553769027804 15.141953819607902 13.593563236594704
Sc 14.108774224068323 14.070554449170997 10.383844542059975
Sc 16.33784432445064 9.457725009335167 15.338611195092284
Sc 8.745549001123615 14.085119060490044 16.49423735243255
Sc 13.490168512194167 14.812281004581406 7.500129328126823
Sc 10.105132745275826 12.386735179053316 18.554094699240657
Sc 14.530548443062818 17.070879925933852 9.786320290401422
Sc 16.9071897685787 12.338623721961588 15.528973324398486
Sc 16.949934208890834 16.323964337996294 11.560835325960133
Sc 14.768127459886944 14.510696986107622 15.625679029501184
Sc 18.55674664779217 14.495708357429104 13.907383855158752
Sc 15.412760248079511 11.062745646236133 17.965575110095433
Sc 12.64196810185695 13.348916805966514 13.3973167418474
Sc 16.540204343946474 16.76080512096103 14.507799830946084
Sc 13.927587731422928 16.07788218605194 12.9018550467068
