51
Energy = -267.12274111 eV
Sc 17.0418350497947 10.262582035050652 10.461560204661934
Sc 15.958186196225668 7.870325870960122 12.308056439690644
Sc 17.374751104219225 13.214459625347146 10.261939880770761
Sc 18.88650270352719 12.358660634399653 12.640304505216951
Sc 14.072163463242015 8.83043874252024 10.372149787733736
Sc 18.299976145423376 15.393711297459676 11.915106610734759
Sc 14.890849816338962 7.690763547947548 14.996903299801259
Sc 14.688035578228977 11.69051751644005 11.423004834741477
Sc 16.663652886154438 10.447102725785573 13.604057331948306
Sc 11.35241398321993 8.104276907095079 8.962584143676313
Sc 15.017069531929828 12.749175713484359 8.730886754072234
Sc 16.30578578218566 13.516796312908282 13.079348706049366
Sc 12.894963583628021 7.104961533072028 12.629633931948874
Sc 17.550817338070708 12.649735323693163 15.73390367491032
Sc 12.607646218413974 10.919460294807266 8.990293664831878
Sc 15.930639444312892 15.73153214274368 9.51721248506239
Sc 16.25516009891718 9.92251843850563 16.540801551995575
Sc 17.295765970913095 15.631697252139213 14.847697485958605
Sc 15.656083038721116 16.963578719792054 12.455974336817079
Sc 13.569296543634984 9.861191188039065 13.390521743909988
Sc 13.344488082874504 9.6282426001451 16.667743224428882
Sc 11.683402054500219 12.356788767418749 11.460907073865444
Sc 14.489155264523564 12.117588134789491 15.332950470244054
Sc 9.720233761436766 10.749274354874766 9.407564799025584
Sc 12.19535807240806 14.132981901989423 8.953564035840182
Sc 13.987354362282339 14.603022222882354 11.292263056818959
Sc 14.608030399099448 11.915263570090232 18.23663451927983
Sc 11.257948272134309 9.420637550576126 11.527018226143717
Sc 15.620678201982981 14.72679239468713 17.10808760583723
Sc 14.027964169395648 15.123662676716815 14.449831693823112
Sc 15.008560316024685 17.507845543945063 15.80757144959312
Sc 13.152460392351362 17.319450557252512 10.49438789956292
Sc 10.46820318197132 16.243240589010547 10.137707512312964
Sc 9.217412947823089 13.644025974716177 10.596461397127907
Sc 9.067302234946698 11.223481579718147 12.62381693978567
Sc 10.864744594943156 9.504326429451066 14.76316233622613
Sc 13.367220669557145 16.889541409977987 18.228766805886497
Sc 11.376553890228989 12.579900565641209 14.481662979311402
Sc 12.891699327304954 18.155182923827937 13.431159783438124
Sc 11.262993430532145 15.386687376650768 12.824319719314927
Sc 11.244822736516454 11.548387749535612 17.27939167832522
Sc 12.727238828629678 14.110618851495095 17.15980634728479
Sc 12.97446269949089 19.572398651722537 16.391000218408067
Sc 11.783400355093557 16.877306861896216 15.776015276570226
Sc 10.243894561385826 18.499141170819534 11.972308352956327
Sc 7.957463057901951 16.354602862111573 11.61103517952104
Sc 8.50854424115006 13.963731877649826 13.591440964431829
Sc 8.701522670522175 11.67211398999255 15.67240491682362
Sc 10.480010203189876 19.477643497588875 14.92369582850113
Sc 9.839853970989841 14.457979844555016 16.381483445783797
Sc 9.045004699531221 16.87883450867535 14.263567053960271
