53
Energy = -282.81861526 eV
Sc 16.59909861690449 9.54222481419155 10.954756629760814
Sc 18.465323504238018 10.97676334721896 13.129880331722687
Sc 17.511754339354795 12.654640753654505 10.553307523334167
Sc 17.6503368874562 13.89996623998072 13.500606177971294
Sc 14.700064853741296 8.210611302596337 8.786004019602183
Sc 14.225164717431964 7.606368806766183 11.879330590350682
Sc 16.80903618275841 11.790035301185103 15.641613908928344
Sc 16.119228429742563 9.054879513417603 14.09416705619876
Sc 16.5874281462302 15.660650082842999 10.863260799334292
Sc 15.637543957062604 11.789736161729605 12.783608541507757
Sc 15.54747079895881 11.257536005738652 8.388611132088991
Sc 16.38156116661 14.35408484262353 8.122372316772394
Sc 14.498066274216601 10.014214024837349 16.494472164176386
Sc 13.664606440485874 10.306359320839647 10.553211502652237
Sc 11.777329722891503 8.012740344075974 9.894564619225127
Sc 15.964824974639578 14.794225121919014 16.13940029504345
Sc 12.521348655588634 10.299202341048618 7.732620015327343
Sc 14.192540375308383 17.76346155625482 11.856147825048202
Sc 11.297526678674407 7.45868421733572 12.788061305665728
Sc 13.386494441811267 13.393096651455574 7.453396863766704
Sc 13.952726990426484 12.543272393420692 18.023127568348258
Sc 14.779313497196231 14.963030930560263 13.208335984415388
Sc 13.258428089562123 9.956001615867029 13.607995641174687
Sc 12.708206045727957 7.843240307166312 15.42644358610232
Sc 14.109373258077643 16.253760747127693 9.072248368406454
Sc 14.53394722351528 13.49940669651478 10.278005064236034
Sc 13.947527192612934 12.791847558550918 15.208011785652602
Sc 11.010128883643317 17.667729402952077 10.494578225203156
Sc 11.481374866379541 12.392700066885924 9.73694280061518
Sc 12.365462681063503 12.804060464324785 12.465960412429242
Sc 14.05761869093301 17.202894629407083 15.082624626186082
Sc 11.6746060621787 10.159743947956002 17.509808511287616
Sc 9.717299163048349 9.932194257219201 8.963871964196139
Sc 13.273672880519879 15.33607306529545 17.26055045169913
Sc 10.650653864047046 10.287455381554217 11.988674029960618
Sc 9.726475603053311 12.782491871701911 7.709371695215422
Sc 12.260043165540864 15.530168800669074 11.545575330947282
Sc 11.691640470128368 17.934516123437742 13.480496232766153
Sc 11.331230887042043 15.28685586119781 8.545293584782097
Sc 8.553489859375345 8.5330891073786 11.551451528099705
Sc 11.80867661349625 14.918194565696442 14.65704119015269
Sc 9.785424958552868 8.94366381423788 14.87128987003527
Sc 11.337722094680467 11.539838412661647 15.112491499396977
Sc 9.569032656296134 12.983025520568042 13.367902147848842
Sc 9.424137916657344 14.595558288252368 10.653663909598656
Sc 10.954077861264224 13.460229947094904 17.458101710806957
Sc 10.72308829215886 16.894132619788152 16.246106310277053
Sc 8.19867217816723 11.716925832113146 10.763883931445731
Sc 7.668269575626978 10.791742428661765 13.624017753982052
Sc 9.29403139995676 16.21200188738929 13.317296986544743
Sc 8.77068226334633 11.496935834469095 16.39149394886739
Sc 8.632699590677994 14.481253000628996 15.71312315313868
Sc 7.010889414070219 13.910776921430838 12.959514018162416
