54
Energy = -285.87457738 eV
Sc 18.27671805179255 14.190152919383312 11.213418789696034
Sc 16.89129486573758 17.067947150808617 10.631066800442472
Sc 17.662625087103716 15.328692452944608 8.374124911002193
Sc 18.136758218585374 13.153939893756604 14.348829136524511
Sc 18.450812915557847 10.9746254265811 11.945226157554268
Sc 16.42013969584159 15.549060836877155 13.1861318428579
Sc 17.545450848606635 10.190806551189253 15.208842623466973
Sc 17.73551622555173 12.437761013740257 17.394883948400725
Sc 16.265711795413324 15.05087718046254 16.169128877409925
Sc 14.820560726065901 16.834643215743824 8.392579227312707
Sc 15.982232699894144 12.312416487903713 12.268484889719478
Sc 17.046182775289417 12.284980514434244 9.113822516330016
Sc 15.140631894981398 14.405230412773065 10.094964727994093
Sc 16.182192789292085 9.18923826908923 12.863632124216048
Sc 15.487534333850233 14.101251815456203 7.010073869903555
Sc 13.918242695987047 16.814815081314613 11.611718816947427
Sc 15.333457564747526 9.923643403171715 10.187275195195472
Sc 13.743171766795873 17.04826858594475 14.577507162203249
Sc 14.913419113384055 8.292202013017183 15.432238788106586
Sc 15.555223960314526 12.272098932421363 15.638934151184728
Sc 14.81376426093994 13.36601291415669 18.488124026115216
Sc 13.979776622425389 14.095253353887811 13.769878211263336
Sc 15.332040204626077 10.368191604401805 17.861318330376342
Sc 13.775823607202774 10.637260554801742 14.208460797654885
Sc 12.67219079417025 14.639932290517036 8.167038873774883
Sc 13.456955110069622 15.485832103598808 16.906084321552175
Sc 13.885480281879827 11.90309062785898 8.480191900598179
Sc 11.76341235887778 14.686218994112634 11.150150441319848
Sc 12.534105697065527 12.624187696865713 16.44470644930123
Sc 10.825979661610438 16.712876882644498 16.394424419240714
Sc 11.580150084716765 14.527413230439498 18.830985604514673
Sc 12.31784985146852 11.575021619714313 19.111978183368034
Sc 12.295192553620987 9.494234734907078 9.27443286192362
Sc 11.685549388461032 17.16911920939029 9.616260343814464
Sc 13.275467858755977 8.641225987140121 12.058551239561279
Sc 12.981832712580376 11.696580161154007 11.408017163548376
Sc 12.672264205744538 9.528555743374827 17.00646703767604
Sc 11.296110433445692 14.687990999584308 14.427585676907764
Sc 11.04122926432187 17.24488569214989 12.86749944198214
Sc 9.771904433993987 15.150170704252105 8.539251952290758
Sc 10.68885895233151 12.278712654282 9.435231246835647
Sc 11.387143189151324 8.75264430006322 14.482082232751011
Sc 10.848807401115591 11.705809563837484 14.001343001499524
Sc 9.234182259144205 13.287563031685758 12.13088854225757
Sc 10.054920725503168 10.823267956544774 16.739387954205476
Sc 10.257458536723997 10.012590416417607 11.679979360844333
Sc 9.526961948883274 13.956375866710387 16.735397780934104
Sc 8.734824189738275 16.016472678388272 11.109762074433464
Sc 8.563242436551436 15.619496824955661 14.231057649193009
Sc 8.503606888771959 9.587019853803643 14.203005593758554
Sc 7.627252127134591 13.37883188333918 9.691586856100015
Sc 7.827900639331298 12.467595108919024 14.685687796927233
Sc 7.220089911195138 11.159674691734493 11.939310790815568
Sc 6.44979285726654 14.122333229444815 12.350371714083504
