50
Energy = -260.8071748 eV
Sc 17.68931019454434 12.99015493784932 10.703664688659863
Sc 18.56274238424205 12.689337502990737 15.106619694698741
Sc 17.511152296903223 14.80759833570354 12.889956254195953
Sc 19.67877973565354 11.550228900408422 17.628938841413987
Sc 16.532809518256112 15.842418607787886 10.105456157599143
Sc 17.547649499896934 10.707894805716759 12.742211004826935
Sc 16.304175014858863 15.409882900300042 15.621976068789467
Sc 18.63764114218875 9.67749387055 15.491081608964665
Sc 15.47332785166523 13.236792686131237 8.472400315679648
Sc 15.245178734858975 16.801885359454133 12.914426153074222
Sc 15.798962296834436 10.895807822452943 10.324637997139291
Sc 17.630242364751833 13.87352273710316 17.827218551020053
Sc 15.111724183054482 8.43734411078856 11.971070759611985
Sc 14.3734074417569 18.44122232196529 10.464251876665333
Sc 14.687412468477214 13.867076892825484 11.298975011175939
Sc 15.690588490283501 12.600374500202513 14.124239636607353
Sc 14.92575892569414 15.709670249103672 18.39610953158599
Sc 16.813871439717825 11.206895652163478 17.095924425847283
Sc 14.55115116347685 13.24832333682604 16.941826584616845
Sc 13.708731671632341 15.714295795018192 8.918576719297619
Sc 13.944307505200667 17.37224877498423 15.762556273475923
Sc 13.475665511103877 14.74939039208103 14.38703502024754
Sc 13.527902399307063 10.839067935096635 12.470170874535542
Sc 12.164835074322907 20.627861169774103 10.695600803878516
Sc 15.50611743512847 9.62101279437781 14.874054311738224
Sc 13.8651315828417 10.09734062021291 17.510248073575294
Sc 11.835907802427899 18.255637958813324 9.038657125527141
Sc 12.458714010791716 16.446425484328696 11.708975400041783
Sc 13.174938402659851 9.740943828167435 9.737507739247393
Sc 12.877900420652148 18.981661340649755 13.119870710728186
Sc 12.370996255729063 12.749133433402001 9.322927785934736
Sc 12.176730485196826 15.49262891641334 17.144661874728556
Sc 11.50024434809454 13.508829566152594 12.109454783834863
Sc 11.657485823949214 12.6748651183236 17.944100233102443
Sc 12.733356140260193 8.55328233812153 14.943927592712168
Sc 12.732120874861502 11.528660710543162 15.196952896395551
Sc 10.939946710784415 16.78152738881567 14.503832499963067
Sc 12.031640102363484 8.181961458763494 12.066957995997043
Sc 10.646450651622192 13.737687841192892 15.146531548433833
Sc 10.724479100083803 15.497229779200072 9.548467185642979
Sc 10.23089410581041 18.401442829518096 11.63884384439579
Sc 10.669855703230112 10.710308964048817 11.270207145630728
Sc 10.878763834453935 9.90641122091798 17.07307985012936
Sc 9.190264141028948 13.07712195176723 10.14553046296718
Sc 9.249111172435253 14.669646211434538 17.695344343761118
Sc 10.169571280975806 10.078732432076274 14.230594091287275
Sc 9.231069706119005 15.40466173137387 12.211312020382888
Sc 8.66409979826451 12.070835430432396 16.358519458255742
Sc 8.602111582785481 12.46929115613552 13.129009111947374
Sc 8.00545464879322 14.906967903947468 15.050424680421228
