55
Energy = -291.09620299 eV
Sc 13.162376100996244 18.00458217843952 16.36690958465308
Sc 15.818724941388105 18.18202309502037 14.879443247975072
Sc 16.090413791597385 17.11268381848889 17.661075346035457
Sc 15.756782945419832 14.20478149155216 18.642025679779344
Sc 12.89751038064401 15.498823168777099 18.242032758597897
Sc 18.740808075937203 17.755521815154136 15.643123701129735
Sc 17.973726504408102 14.971871411422121 16.710998476535508
Sc 10.31134052243987 16.540182789416804 16.95552802527068
Sc 10.621830394261432 18.59631160164084 14.535138382407725
Sc 13.402164515531993 18.558239896773678 13.093982806864412
Sc 12.070150478476318 16.02533960631895 14.331168040762783
Sc 16.459638613896757 18.19007210030077 11.95540518860503
Sc 13.365920912170711 12.568154320727043 17.866765109483925
Sc 20.434904055129394 15.53631121921106 14.669403514349918
Sc 14.764105320995274 15.193061631421052 15.881992123660895
Sc 8.907834145160582 16.092158480286773 14.044103409681341
Sc 8.095987754799593 14.474449953953698 16.38887671773511
Sc 16.196735776460113 12.528898267255826 15.90154159598865
Sc 10.171611491214856 13.365329173691899 18.50069575174051
Sc 19.372182448284228 17.32170879781855 12.568041747925271
Sc 17.55962639881249 15.604761718558688 13.866420340327679
Sc 11.050118843980622 17.09466049854697 11.742115378922042
Sc 18.718634273852174 12.85132872570323 14.171526827171306
Sc 14.863546217794454 15.944369038141199 12.88173529068872
Sc 11.064746864569418 13.799386119122358 16.05881878203865
Sc 12.715257829881766 14.073997378424083 11.800361133991547
Sc 13.819856548147271 16.849806155101973 10.375972321978095
Sc 8.808278081134658 15.190475030895788 11.176227286957463
Sc 11.498218743459049 10.741585332912624 16.622318856204494
Sc 8.755997211565907 11.727032119295686 15.463941466105611
Sc 7.325249044586181 13.494741702392082 13.39705690551205
Sc 13.212432612239134 12.56638275063095 14.695094367991672
Sc 15.704456931414189 13.014008296656716 12.837377545802001
Sc 10.178881108234995 13.431070407996827 13.141049532011849
Sc 19.866938340478374 14.339282541097983 11.931900772186063
Sc 17.038234901636507 15.099656700714542 10.884364793197353
Sc 17.94085874123245 11.880379646983634 11.331248930899562
Sc 10.921647903407285 10.59998222051144 13.739821411593953
Sc 16.998290112186897 10.27259215472475 13.914618739036275
Sc 14.479926516940836 9.9472312104334 16.14218892691338
Sc 9.778640503020517 12.638727623998731 9.986630613397653
Sc 14.446346858109386 14.184782698530961 9.384299228093264
Sc 11.42455421951938 15.02557588807257 9.295158430079299
Sc 12.161792908497821 11.047565944823837 11.107786445346367
Sc 8.542462564012476 10.827593645490284 12.022920850003532
Sc 14.153882469686149 10.170723585056791 13.158583757091803
Sc 15.054307255710956 11.45556034315476 10.132320120459061
Sc 15.34710508719244 7.637469804757873 13.993146197045613
Sc 12.342656650219247 8.132419444626194 14.619218811434017
Sc 16.10844620308968 8.91737577666235 11.235050456846876
Sc 12.378674236578174 12.071271478738199 8.388905466367216
Sc 10.276604572723382 9.770456081255253 9.245056580848908
Sc 10.505435628812101 8.33310628022132 11.869861380969926
Sc 13.354669826886454 9.144259783159853 9.143632896831758
Sc 13.350673126698435 7.762075560458092 11.767216451995887
