53
Energy = -280.65415579 eV
Sc 20.143842772263753 16.5547915355307 14.973034837012685
Sc 19.715336498587536 15.70343990875221 12.086043946090918
Sc 20.16848665473476 13.613544768744644 14.373402954527666
Sc 18.569854154658717 14.53747872779881 17.02087002136801
Sc 17.760335926701604 17.9898720827379 13.198845062615403
Sc 19.794034388772758 12.47293617491956 11.595509464014745
Sc 18.5927334587747 11.721602740007256 16.291586921967316
Sc 17.66718737927105 15.14362434775 14.268432708782806
Sc 17.55635853383863 17.437628887583106 16.388912355045708
Sc 17.390731582854 14.107786623894226 11.25346064556709
Sc 16.17199572227587 11.826827226913498 18.1725663306059
Sc 17.545264054060592 11.887086505114063 13.498462367126162
Sc 15.062056837510978 18.301980869169427 17.947459279629633
Sc 15.340900598177846 19.185784929314806 14.79651698293987
Sc 16.782521147517965 11.31973577179996 10.491470275414054
Sc 15.07362562876237 13.649331857969326 9.454433310747001
Sc 15.739488347810534 13.20293495043931 15.652436686737273
Sc 17.10630411831194 16.956100588560677 10.328555251253583
Sc 13.535251920707562 9.828137752092383 17.47545680350326
Sc 15.726250376717726 15.063446762740012 18.138040351701125
Sc 14.835621859720572 12.8772346783013 12.408529174726725
Sc 15.306859560130283 16.10262622100114 12.643833604438573
Sc 16.183706475730194 9.954825422444701 15.731183180614023
Sc 12.61951215255816 18.724773220196326 16.294850259509996
Sc 14.850973837321677 16.530837704977767 15.666385363420481
Sc 14.190173138226674 16.398245675723306 9.763158059072016
Sc 14.792878714136156 18.741746614415113 11.485442521755285
Sc 15.215992945902887 9.715329585241783 12.582547877024613
Sc 13.810876353212112 8.067913457809247 14.973833102038737
Sc 12.89194811947091 14.61992076555768 14.85809954436644
Sc 13.59286904935171 10.990144163305086 14.751974371182735
Sc 13.293925586865518 12.957847527898918 17.569278616481476
Sc 12.318892802111089 15.243381019259953 12.037336546426987
Sc 10.605331400951712 11.236537197954672 18.06480350252459
Sc 10.596583573589129 16.44678498318191 15.753526896923086
Sc 11.082090877337784 9.368937986771407 15.609750038863536
Sc 12.050593400443024 13.888917386348199 9.45667210633595
Sc 11.822713623440082 12.308908837530758 12.452818099313317
Sc 12.737078423644022 17.663502133262273 13.57429493296134
Sc 12.762887419392209 16.074492235918644 17.83563590154437
Sc 13.464918861824497 11.062541467298988 10.249212990075163
Sc 12.102748620142089 9.279194750234595 12.61594538432857
Sc 9.930501786791924 14.291986896539779 13.629351766627785
Sc 11.554835463512008 17.577117386384046 10.55491364221608
Sc 9.976609160930275 14.169216147161535 17.516406372646824
Sc 11.129126470471702 12.412101435059617 15.46797263875733
Sc 9.739781618479451 17.178551469183606 13.010171032980981
Sc 9.455227429093336 14.950451489705982 10.757910194158802
Sc 7.82554961077638 15.145613801273875 15.251497225718262
Sc 9.831629447151318 11.870598327371306 10.513279559657102
Sc 9.443189886319617 10.575939345530543 13.333125963645307
Sc 8.34572030333731 12.088380878727435 15.783903061547177
Sc 7.686832405964511 12.864931697227918 12.71342405056635
