54
Energy = -284.88509672 eV
Sc 20.08403288232343 14.024278731089751 14.802596373224581
Sc 18.4931513238056 16.847426529131198 14.870545630554078
Sc 16.124383752932125 19.402269816884015 14.452581018964061
Sc 19.637919181068632 15.557608197580265 12.390845540000948
Sc 17.636736365067875 14.57982496384896 16.779848861590725
Sc 15.560994322737526 14.872652531565329 18.991489611154428
Sc 15.38549138519647 17.078765927228048 16.878040582656155
Sc 18.867918082559424 12.426543137402815 12.206448895536607
Sc 18.30632116444272 11.562451146094492 15.247050559683338
Sc 17.684195962683745 17.96951705759576 11.912519511488103
Sc 17.28149388796377 14.064376671665162 13.847766386146603
Sc 16.2055996013273 12.051625426521573 17.664666984963773
Sc 15.80001999229239 16.507040778841272 13.802379065087687
Sc 13.572223353918696 17.952006614554808 14.563846390124878
Sc 12.795778755088312 16.147485276620806 19.248239516559906
Sc 17.044843678432688 9.876164543068777 12.87665341776428
Sc 14.843574278688823 18.733693172355476 11.931553560897925
Sc 17.216298282503896 15.144168410186868 10.85902859589601
Sc 14.573806545536486 14.166631473317926 16.156360963292098
Sc 16.08693264830541 9.225261804822717 16.144271580876772
Sc 12.27761131729794 16.09168426062738 16.54936477147866
Sc 13.213519557375088 13.041153968572344 18.78176045643911
Sc 15.488337392168104 12.3468821449951 11.632369624227003
Sc 15.389748997896652 11.648965164280959 14.625314770739495
Sc 15.134153495895003 17.03042125628722 9.41585822121712
Sc 14.794194868318598 8.199082189397682 13.763880116399653
Sc 12.809259929510029 20.346817339641774 13.796279026178125
Sc 14.072386044978762 9.42022458275044 11.03445820307553
Sc 12.412934651266958 19.026041811392968 16.9503818397972
Sc 14.400910478127313 15.2442981530643 11.506142918408653
Sc 10.656611639066496 17.95685518694781 14.530068532173653
Sc 9.886990700741288 17.150065068830298 17.491282083210127
Sc 10.572302876621656 13.928514355166103 17.774374707407176
Sc 12.947036822265808 10.400356896888384 13.60657294696298
Sc 12.584761063036188 15.271448440304251 13.830653232051041
Sc 12.050707682097405 7.744559151258545 12.833263833505015
Sc 15.08088909742838 14.02372290106354 8.79558290570869
Sc 11.547293347167253 12.59250939194579 15.249079466308046
Sc 12.247139357405084 17.528298024082112 11.631199425067086
Sc 13.642393499438208 10.877099179084759 16.803146934761802
Sc 12.160779891853375 13.008098049863676 11.987320305268524
Sc 8.651627755519648 12.182869612705263 16.071497179230533
Sc 10.839880024790801 10.723821587963704 17.579348518836337
Sc 9.666069441372324 15.022968947505085 15.02101241061401
Sc 12.623222171426077 8.303940638580928 15.861199864892965
Sc 13.148085326683068 11.929570866705449 9.588630516493948
Sc 10.153052293455586 15.322209625280891 11.885889378021233
Sc 12.25496250291311 15.011996799564919 9.476008130093453
Sc 9.356569992520724 12.497246511968173 13.029854479916194
Sc 12.1675369332985 12.974503109046843 7.133277093427496
Sc 10.95133678037063 10.297507853048115 11.35992629349783
Sc 10.157174651718469 9.839381154748 14.58918715796351
Sc 10.226222239889314 12.692816197958996 9.57780711399522
Sc 11.396768848090666 10.08562322114162 8.316338737464937
