52
Energy = -274.17638509 eV
Sc 15.469189865964871 10.605761986783936 16.39188668354147
Sc 12.49522111133403 9.19868306863018 16.956551910855865
Sc 11.825278910385284 8.622161651013775 13.89138846945429
Sc 14.658577337454929 8.257627009091937 14.779026700505106
Sc 13.68451209465466 11.958086145773537 18.330502854696988
Sc 13.958056597287317 7.949186767074156 11.612983913212258
Sc 10.000023904220665 10.373610003959227 15.21625457891922
Sc 9.635073305302377 10.443068929849327 12.17661614326099
Sc 10.732434859508938 12.15946095636023 17.473232842173985
Sc 15.451544886692128 14.389299119768355 19.152075326183997
Sc 17.42439898375789 12.781985720365467 17.295997335036766
Sc 17.85567378508495 9.734998491369849 14.882462216223828
Sc 8.699861209773085 13.040655602557791 15.197709898710823
Sc 12.828649466024972 10.616605296231432 11.885821207746682
Sc 12.909092610186226 11.351599291584959 15.214746108136273
Sc 14.675615401951132 13.962030083611598 16.299287054367213
Sc 15.582536825164121 10.359441829298932 13.004689484317128
Sc 12.371157923734662 14.74640338449873 18.387543147572778
Sc 10.750272629644417 12.589624196745948 10.297751591141015
Sc 12.557700132892071 10.019225127103327 8.955380440793729
Sc 11.38235586658655 14.417109968572223 15.557713930781908
Sc 11.18925547755992 12.717904082719715 13.176595529682254
Sc 9.27477368017084 14.962967996910072 17.556915637336886
Sc 17.203872942326527 15.752102015892435 17.149558442294392
Sc 17.168730800055652 12.563844369947885 14.259693593635859
Sc 18.32100445939843 10.972489496268459 11.98079739322892
Sc 15.455510609928366 10.146594261754824 10.030870385825908
Sc 14.33014406822522 16.91547732674188 17.344069364354343
Sc 8.838966352116087 16.062191183421 14.798337717642944
Sc 11.26596622220236 17.210537143938435 16.5635876681319
Sc 13.642291192334852 12.547279397758732 9.923703307148989
Sc 12.03663270583407 13.146404512355973 7.57444081132013
Sc 8.529738126174703 13.629760851943352 12.120539093971518
Sc 19.17877975987802 14.660766459066204 15.098360828606582
Sc 14.470589585217262 13.20644752470632 13.056462546913838
Sc 13.402141664320911 16.40153472255243 14.266416786960372
Sc 10.863644352054305 15.494843021130412 9.45963497850298
Sc 14.983405968457525 12.127358656327571 7.609553359437447
Sc 16.34639769708911 15.465006726602697 14.12649494904695
Sc 18.524221105966333 14.370068343301353 12.20283242028179
Sc 16.404023231352316 18.167942344401112 15.55969594507053
Sc 13.516632679725307 19.283975934331746 15.310573558655989
Sc 10.602106082097482 15.75834033811588 12.553645593756423
Sc 12.969559108416624 14.922707786284786 11.503118389728773
Sc 11.14551273980754 18.403198294353984 13.725659738066394
Sc 16.41762678675743 12.943983042714377 10.678361067713295
Sc 13.945083133337915 15.209026334217247 8.649640112872717
Sc 18.354882474416602 17.240287513917274 13.398253729967792
Sc 15.867589773706777 15.892541677241345 11.174049276788997
Sc 12.830220106355783 17.736695669906858 11.18122361326563
Sc 15.361131746681918 18.396216555277967 12.902389241950218
Sc 13.134550724447733 20.483484725620094 12.591575283739262
