55
Energy = -290.98691145 eV
Sc 8.67944232514178 8.295240717116725 6.317208151753233
Sc 13.57189822720339 7.039108152947789 9.907331197758344
Sc 10.689474496452824 7.120219440610079 11.277838993876347
Sc 9.813047734921755 10.535723462549903 8.012526423533105
Sc 8.136980616013524 13.101399338249967 8.033361080986598
Sc 10.881230423240625 12.748927529808379 6.284170655049312
Sc 8.382216783568872 11.119671716881092 5.507371193546038
Sc 5.001480419496724 11.471088844168163 13.325822157839193
Sc 11.307923589128377 10.944546345405431 13.16510432168634
Sc 11.940503598849766 12.64860738979786 9.28991821225361
Sc 14.403152428089836 11.222490487380478 13.047235739590121
Sc 13.259698088228133 8.297946969862783 12.543017872688477
Sc 6.831818754124343 10.15139498916452 8.170103718339659
Sc 8.243179977745932 7.843303960587024 15.697745411042014
Sc 6.328226397549288 8.955437711780604 13.760547975444632
Sc 17.488404254750215 11.370004355569613 10.20576970465247
Sc 14.873201962158056 15.375070084996217 12.129085323481345
Sc 15.901917724101171 11.60544183222095 7.717030382477085
Sc 9.508883380275098 13.00939185909035 10.828752853454416
Sc 6.30888718199102 14.148520211847368 13.2180837702832
Sc 8.337523595725838 7.570210219778878 9.29934513345703
Sc 12.199437342535933 16.139169061200025 13.782625061615205
Sc 11.28107483036327 9.628645672708265 5.458280175616086
Sc 17.067041577993 10.080200137482368 12.903937692118705
Sc 14.68182840577396 12.732058780870943 10.298557476178893
Sc 16.5255526118034 14.409986158206923 9.357025565042521
Sc 10.540859294303065 15.043572597619779 8.360357638076126
Sc 12.356032516221195 13.718206840664946 12.192912898014411
Sc 8.066550301172365 11.767978979074346 13.417535296238954
Sc 16.206528859366664 11.506544356589785 15.420641122426433
Sc 16.071701831815826 7.580344967339473 11.723793584466167
Sc 5.798463514616758 9.069504933157907 10.935614255541164
Sc 9.69843509392797 10.642241200352876 15.912682275352894
Sc 8.033764793619616 13.478266875578672 15.79451659825056
Sc 8.637944796420284 9.983817070412332 10.819095095423192
Sc 14.46848786769775 8.342345313596484 7.317688218239131
Sc 6.465336710232796 12.282860132181915 10.686657827230443
Sc 13.034740594727333 10.721606582508032 7.576892580612452
Sc 16.777742985496978 13.102189814661434 12.620972418470249
Sc 7.611584270540454 6.858191881214104 12.285825312536181
Sc 15.05741134939682 8.757797453450006 14.805307058359796
Sc 9.405503102251394 8.87283422071327 13.372956970733311
Sc 11.677934471156517 8.362714074623884 15.109433727889911
Sc 13.335586737491669 15.59820598188117 9.660987069706634
Sc 10.68043478495539 16.086219838214042 11.097390987315661
Sc 7.766232146733881 15.243882623781886 10.516429340396854
Sc 13.107840678134139 11.071788679728517 15.794153290284957
Sc 9.210443714302452 14.89434938172908 13.324480607723535
Sc 13.781013569528454 13.83162641059262 7.298268455650064
Sc 11.200615254205708 13.433654148542416 15.0913008383615
Sc 11.34534236698194 7.77376992426976 7.993013565414144
Sc 14.934723676320267 9.762437643907809 10.125468324915076
Sc 11.884946071602826 9.738174179416037 10.319378477092657
Sc 14.258673816456138 13.840475978274606 14.63224381699205
Sc 6.614823103097438 10.744317485639737 15.929931104521412
