55
Energy = -288.32179623 eV
Sc 15.232490029610707 15.62057688106799 15.041625870472647
Sc 10.126095181332062 10.778282624050119 13.897554039985085
Sc 15.111317281142284 10.670279776305659 17.885283218376323
Sc 9.992468416480692 15.432774391326541 16.700849430622952
Sc 15.340059782010425 13.946711266979124 12.258384882443973
Sc 15.12950489678207 13.952479247015253 17.87084790764441
Sc 15.22968536285854 18.62367156564023 15.033034185073017
Sc 15.310102058978313 17.19591377316269 12.284538731087913
Sc 17.61565422661939 18.59000689766232 17.015394569680904
Sc 15.240587304129479 12.278738730144463 15.04580159288092
Sc 15.32579752411937 10.69756688979709 12.292328519307508
Sc 12.465538175834695 15.487279638442557 18.532899776247532
Sc 10.00001906919514 12.446877768640173 16.704762750904376
Sc 17.82004774168479 15.44467478338124 11.497073950269264
Sc 9.971392999204548 13.943290125822303 19.392099858163675
Sc 15.25179048382273 9.275536367567527 15.044094262804549
Sc 17.827401885177572 12.458928574536213 11.500451220149472
Sc 17.801958688767915 12.31275588350521 17.0228033770739
Sc 12.499821430650329 13.944565363574734 15.870133125054648
Sc 10.030497680691047 15.576202840214922 11.13371941010382
Sc 17.63798140101307 9.323911572090777 17.025791210682964
Sc 12.488593420565852 17.206292697211527 15.872765015626051
Sc 10.038884736600677 12.289923791595166 11.138041070765427
Sc 15.09530253672445 17.23418067278546 17.877306007075735
Sc 12.50441201784385 10.682819676663344 15.881245076628705
Sc 12.714954705684844 13.938147324754269 10.232168876881953
Sc 17.79390031811483 15.602095543843117 17.018572456431812
Sc 17.8838096891449 13.954841504544628 14.197819139361135
Sc 17.86520649045577 13.949042843782623 8.735358581180707
Sc 10.318252342972325 13.930541143907675 8.4150027608201
Sc 17.70370220266624 17.12095114688414 14.262529182365348
Sc 12.707951378726131 17.21621006846472 10.30508255939319
Sc 10.2754950065777 17.07087940398617 8.558309614141653
Sc 17.71912426800557 10.78805433066833 14.26981117467591
Sc 10.183455070603411 18.578578238266672 11.14736191164916
Sc 10.290951995837736 10.790688342459195 8.566438979392412
Sc 12.592147281036588 15.589245968822846 13.102213852895654
Sc 12.72373927081229 10.660779268454325 10.313218285047935
Sc 12.794504412805594 15.439355575666006 7.640401567636607
Sc 12.59640068628811 18.58045827639759 13.139029068335224
Sc 10.205959533222956 9.288496197349312 11.158744627219413
Sc 12.801786043141353 12.431871285071304 7.643835952409965
Sc 12.600284466436605 12.293875973005338 13.106528609081593
Sc 15.437326814552828 15.556526278616754 9.46039264868453
Sc 15.479870912547845 13.941291517832 6.94844507763701
Sc 12.618757856095716 9.30292640200351 13.150707980842949
Sc 15.445274980294082 12.331345394056594 9.463960373346579
Sc 17.516390311973556 13.959685045091714 19.76140891119615
Sc 9.934347078226791 13.93610995646382 13.948373687611308
Sc 12.473273680532271 12.408429906865086 18.53744878303254
Sc 17.512423344087274 17.086380399839527 19.621268252313044
Sc 10.11080014235633 17.095081387419405 13.889363919925295
Sc 15.036463517133377 15.441572134546831 20.475953438118506
Sc 17.528458441097214 10.832245983553193 19.628874488936702
Sc 15.044658199517508 12.467126130988987 20.479620953098028
