6
Energy = -23.39656492 eV
Sc 11.578384334366872 8.793406874440064 12.803110857091307
Sc 10.9640921239284 10.711094664240958 10.941636789615437
Sc 12.181065521562568 14.701003124363151 13.676762269142872
Sc 12.68567968040973 11.74237521446409 13.08296993406679
Sc 11.806501517808314 13.567471245042013 11.026401541696316
Sc 14.427783305061421 14.086241518941485 12.169651582943796
