6
Energy = -21.83777662 eV
Sc 7.311893900721448 9.65565723082446 9.288893844755687
Sc 7.937040877288514 8.457953286695181 11.394438171845408
Sc 9.866499637341438 10.934123506789856 9.051922411602893
Sc 10.592277212873595 9.538506812113116 11.417428901463792
Sc 12.522105490682033 12.019481181266537 9.073649183312657
Sc 13.185404425719492 10.722886197778205 11.110396806844202
