6
Energy = -25.15266344 eV
Sc 11.421455629854021 9.325956498942583 11.70437858552548
Sc 10.041622357041017 7.806064056209664 9.158097486545078
Sc 8.629687170478471 10.638256756407644 8.250587139354012
Sc 11.257955573177764 10.306388671431801 9.088550655420953
Sc 10.022560256973943 12.102666999073886 10.820519105395448
Sc 8.769813672849459 9.617117403404224 10.83606383408922
