6
Energy = -25.18268219 eV
Sc 11.374917175882057 9.940458370882789 9.851548544243768
Sc 10.240450240486963 8.800644749370289 12.269552676378737
Sc 10.201351145981976 8.82089053142432 7.439618149333235
Sc 8.620073626742132 8.970560173090934 9.867308716204063
Sc 9.314740441640376 11.38840622271524 8.34465933999832
Sc 9.33189129919772 11.372391123258527 11.400892281911933
