6
Energy = -22.12206973 eV
Sc 6.974086059141828 8.248583254844387 9.124293582782489
Sc 11.62249155357245 8.9667499543454 7.153965359652643
Sc 6.605557667705472 5.963409368294689 7.3043644232842295
Sc 9.103462409688474 7.522988114442454 7.287442693268192
Sc 7.195857982475048 10.470063503972195 10.985748359671613
Sc 9.44098878353507 9.77065080410112 9.086630581340714
