6
Energy = -25.1825712 eV
Sc 10.496930428790103 10.425337840794628 12.242421306882797
Sc 11.731130926563116 10.749444536333328 9.692843387017177
Sc 8.814991176242252 10.953919190990879 9.935185311037106
Sc 7.552130898227011 8.553496613014786 8.871090284424529
Sc 9.873330395702453 9.571302155628787 7.5721966310158235
Sc 10.118948918294542 8.358772990527058 10.230839659457947
