7
Energy = -30.68491829 eV
Sc 10.47530887876776 10.557126385107015 7.3628809877335
Sc 8.115882780175712 11.60547399526849 8.716966076769854
Sc 10.33078964059172 10.317893617424684 10.286439424451713
Sc 7.599673884065374 9.796221319676771 11.13597784831852
Sc 11.478145009694355 7.939528035488135 8.95765610890196
Sc 8.6401622085742 8.666155740637363 8.662866715610543
Sc 9.706341878066441 7.53754711226494 11.214670647511843
