7
Energy = -30.35062281 eV
Sc 11.109983356811792 11.733913814964692 10.231790186683577
Sc 9.317413123405835 9.634082281690041 11.487504635086673
Sc 8.23288186640058 11.664243111549077 9.527204554388522
Sc 8.49879393109913 8.722605512691928 8.868637092487846
Sc 10.255142034161278 10.802442196321275 7.553173340311992
Sc 9.516976077791714 6.779530598922216 10.795133973086157
Sc 11.30265340256954 8.791733892397549 9.565955835860157
