7
Energy = -30.68061716 eV
Sc 13.661635245117376 13.233888084811271 13.520145147984518
Sc 14.310032295010517 12.183106847008657 10.747835981821002
Sc 12.510433806847601 10.695105908729273 12.552709328239485
Sc 11.623155399024728 13.050201425741529 11.452110714303654
Sc 11.85378490440934 10.761935863170303 9.676427701232223
Sc 10.781560588776285 12.463695645963874 14.1598600429664
Sc 9.666339418749414 10.935714061049591 11.785194465796758
