7
Energy = -30.2565848 eV
Sc 11.092097640150806 9.650368851841808 11.343343554752828
Sc 8.922588054516497 10.966210946680828 12.734999776423813
Sc 10.61940331864038 7.789229393915397 8.962627851552828
Sc 11.886293289027753 10.342721590274989 8.522792024518363
Sc 8.355089966820305 9.213018638040054 10.487974206878862
Sc 9.625395640321738 11.780187405157832 10.013892457429359
Sc 9.14674778210307 9.890161035716549 7.65215784620725
