7
Energy = -27.16037516 eV
Sc 12.550450915177976 11.605572929705753 11.448898134496625
Sc 14.562603704382418 13.310566643553623 12.09564609141516
Sc 12.020353860672206 9.544767032830698 9.76522371317986
Sc 11.372756258542127 13.443595113461237 13.157318164720909
Sc 14.795407438190283 10.934414234751287 10.102083516120192
Sc 9.83265320521771 11.162500388731944 11.769651712269658
Sc 8.562007053098286 12.937162306595914 13.683584465225671
