7
Energy = -30.68568136 eV
Sc 11.062699964551909 9.926702232488669 11.48439142661419
Sc 12.479144835578422 11.181479853917883 9.219868102912208
Sc 11.191824521996626 8.231424205747011 9.067494767633903
Sc 8.418413796359193 11.09633231484736 11.787288724545805
Sc 10.760689378568028 12.843414834929133 10.877796420126113
Sc 9.589567953280845 10.698729571746243 9.15676129219494
Sc 8.748064328819716 8.243817773704198 10.628621490152653
