7
Energy = -29.04710924 eV
Sc 11.003036199832644 11.276185513123293 11.284759268234408
Sc 12.048641927371635 12.286517597167581 14.088871894996439
Sc 14.009219784752636 12.0979780804797 11.986604881058666
Sc 13.909571666819957 14.559131998210358 13.661687546334168
Sc 14.860350312929885 12.08899317918575 14.78542316999285
Sc 11.769655400658435 14.083862361826004 11.672867076308787
Sc 9.65350020275994 12.938574176373336 9.657325946224919
