7
Energy = -29.21671429 eV
Sc 5.8190223289649765 7.787733184879479 7.606320489868781
Sc 7.838299601807864 9.36393753428499 6.4584551793168945
Sc 7.627207714247962 5.764472548460739 8.215645102707722
Sc 9.721854465850651 7.249193881564193 7.093770676417153
Sc 7.126923921815465 9.589164537289111 9.317191875037645
Sc 9.978568038663962 9.892656066265786 8.476956971106429
Sc 9.009884428649345 7.474602934279886 9.953420205545374
