7
Energy = -29.31692886 eV
Sc 10.57791373182638 11.148370856910802 7.071511667230079
Sc 10.22477422918158 11.8583923032263 9.798048923807594
Sc 8.102333368871028 10.397804359442185 8.27490472381937
Sc 10.502544848204908 9.012345884145777 9.18364892600301
Sc 9.963456432509147 9.872148374583386 11.917219037841182
Sc 7.903708030169098 8.363542640086365 10.355652240019497
Sc 10.179491359616494 7.067796539600735 11.451095752766031
