8
Energy = -35.58355625 eV
Sc 10.84795148889511 13.793324384035722 13.530211745068979
Sc 10.178384827069994 11.821639004105977 11.249119159117416
Sc 11.459790682809048 14.232457594092626 10.51811083441802
Sc 12.264425390579097 11.236845822970283 13.320169719885893
Sc 13.21097654334448 11.681284846790428 10.593339886598223
Sc 13.609327563342555 13.798985228578921 12.566071080504845
Sc 15.12450199981857 11.450459183796983 13.209972180778292
Sc 13.450588185366458 12.945059845024716 15.289787891258985
