8
Energy = -34.61743157 eV
Sc 11.669338586481297 8.920973895185046 9.02724387055162
Sc 13.00018998971619 11.490892009056417 8.278864181693999
Sc 7.116469143023436 8.33877387948901 11.808800692139158
Sc 10.803713440400696 11.322708535287685 10.392554491855913
Sc 8.717041605436863 9.262502104890814 9.386500030918686
Sc 10.054742914617028 8.859969848427987 11.91665870433261
Sc 8.01525277944365 10.983607125931206 11.666528128492558
Sc 10.340846547754879 11.078045783543086 7.490054094454167
