8
Energy = -35.20370122 eV
Sc 9.686519088887655 8.41664672129699 11.114646821278614
Sc 11.531154883387599 10.645178829464028 11.937750231350936
Sc 12.122803361248101 9.210961162219427 9.400782269255775
Sc 9.682344508406677 8.30266876053959 8.152771882068238
Sc 12.42214531179155 12.274021944702898 9.614274794416788
Sc 8.630006393411408 10.991573571748871 12.409369601898126
Sc 9.792360741864043 10.988028750594276 9.717953299179918
Sc 10.329648198752698 13.360894756040135 11.513242590154078
