8
Energy = -35.22522724 eV
Sc 11.462702475738332 11.019978093851854 8.06096179476996
Sc 11.892340437717365 10.470923110069798 10.924581057862571
Sc 9.923216268925707 8.729157828221792 9.55087800784287
Sc 11.771864033872502 13.348065007167737 9.8425279824271
Sc 11.212298920392694 7.645691478730261 11.915625591594766
Sc 9.37748982899424 9.774396224430397 12.317174042933992
Sc 9.36089650678811 11.673460369875807 9.96254928893723
Sc 10.618209736893801 12.564782035974606 12.525804856992362
