8
Energy = -33.91223931 eV
Sc 10.144672819297629 9.009998151026258 6.951210393774634
Sc 6.27267164070237 7.4073463089737395 6.951210393774634
Sc 9.009998151026258 6.27267164070237 6.951210393774634
Sc 7.4073463089737395 10.144672819297629 6.951210393774634
Sc 10.144672819297629 7.4073463089737395 9.46613406622548
Sc 6.27267164070237 9.009998151026258 9.46613406622548
Sc 7.4073463089737395 6.27267164070237 9.46613406622548
Sc 9.009998151026258 10.144672819297629 9.46613406622548
