8
Energy = -34.87659776 eV
Sc 9.075209969247572 12.244796112351144 12.025907104552761
Sc 13.114604264245207 9.805505896638595 10.548078081222895
Sc 10.276367405145926 10.111794770542167 10.590662285020914
Sc 13.530432549176764 13.778138691890435 13.303434651185448
Sc 14.726131765598105 11.61989080310912 11.890789887158327
Sc 10.684608524873372 14.068580992447679 13.358136367570415
Sc 11.831169608662892 11.137149925812365 13.115510951330915
Sc 11.962487211275352 12.734776347213785 10.80929829582626
