9
Energy = -39.97658369 eV
Sc 11.77290613732783 13.562194765176494 16.39829692461494
Sc 14.364368671291714 14.963066551278677 10.845855073569137
Sc 14.706009096507456 13.457408831954039 15.954269273172907
Sc 10.413001777679762 13.245734072196782 13.730732415779622
Sc 12.540873957868534 12.689879828135535 11.519381594798904
Sc 15.059344822616438 12.44480304424145 9.913037956631701
Sc 13.024371487415006 14.570866146132008 13.80203469081658
Sc 15.290778437596868 12.905409324725888 12.861885223848942
Sc 12.896331500030772 11.766165346831398 14.362733247251898
