9
Energy = -39.89678579 eV
Sc 17.19588460781172 12.40236889685988 13.991913480261022
Sc 15.669962831200781 14.610288947564761 14.954155083180156
Sc 15.5736584555415 13.830690552945615 12.01621935413032
Sc 13.03971513297899 14.86127378371886 13.425403489549309
Sc 12.60135672554612 12.751359322862706 11.409355536722884
Sc 14.118061483045471 12.222988020765083 14.018381044403446
Sc 12.967668884655028 13.835250161605021 16.185646372514118
Sc 11.095777118515608 12.674036465711382 14.048121608813064
Sc 10.331005051158884 14.50310801269748 12.006871319043356
