9
Energy = -40.35323113 eV
Sc 10.66827214632145 9.708465893701293 11.922821788195803
Sc 12.231818981688358 11.44326885143968 10.186776425441916
Sc 13.03402699573388 8.435074287775446 10.912721957508396
Sc 9.403074002082677 12.340331377984555 11.145039935899387
Sc 7.064777542841557 12.340620135308024 9.437520669394143
Sc 10.361394528178096 7.025627304481715 10.863670086248383
Sc 8.364146978359248 9.709790711475666 10.082436918589295
Sc 11.026636239593824 9.10026916118131 8.957213832189348
Sc 9.712885172136765 11.762851469763163 8.35979693561463
