9
Energy = -40.57875745 eV
Sc 12.970273206751754 9.665858177291854 11.47509531063399
Sc 10.143211388753796 9.515293951246798 11.104971362072227
Sc 11.46510014815227 9.717082508973219 8.55123119338363
Sc 13.227532081694926 11.92100697155206 9.493115587585082
Sc 8.56963676660426 11.635400155780852 12.015131371886069
Sc 8.197447081886432 10.17623885220617 9.172841148972172
Sc 10.209320401484371 12.149144087854546 9.498408129302218
Sc 10.784871013263592 10.149307976045064 13.794862153796933
Sc 11.669405568498517 12.239659466522891 12.04568456346784
