9
Energy = -39.99593283 eV
Sc 9.032582255 10.58799586780264 6.457104613968106
Sc 9.032582255 7.477168642197358 6.457104613968106
Sc 9.032582255 7.662092190485753 9.577148356361548
Sc 9.032582255 10.403072319514246 9.577148356361548
Sc 7.046718891018289 9.032582255 7.849006939851339
Sc 11.018445618981712 9.032582255 7.849006939851339
Sc 9.032582255 9.032582255 12.234868872053449
Sc 11.442734123822866 9.032582255 10.645925802954935
Sc 6.622430386177133 9.032582255 10.645925802954935
