9
Energy = -40.0726076 eV
Sc 7.015699460122801 8.906119256229854 8.900166774822859
Sc 9.448351947460214 9.703377509048913 10.468899345585754
Sc 8.15637814327852 7.301989060673583 11.341645700824392
Sc 8.173602934182076 10.522025762790516 6.433408699770878
Sc 9.426009821996892 8.114349738073539 7.364404549174249
Sc 10.790625991136858 10.545850061552857 8.063746130467845
Sc 10.782136096224336 7.253981788569646 9.749991630137101
Sc 8.168170014908638 11.819012319454496 9.027646154566112
Sc 8.161826900016685 5.956095240915464 8.772892705323788
