9
Energy = -40.05334695 eV
Sc 10.74388137504827 7.519539795502287 8.602290665959108
Sc 13.156510091063573 9.127015771154962 8.866757181599727
Sc 12.567640054808734 11.6185321087274 10.25225553485699
Sc 10.437964924785621 10.512895894660874 8.426935956511866
Sc 11.041395783969946 9.164981708360905 11.111079728199499
Sc 9.693349062288098 11.831015597097105 11.002332568690509
Sc 8.37012005632563 8.853878141973661 9.808437092473964
Sc 7.175459043088141 11.462064317895011 9.669502430333871
Sc 7.768757607057147 10.143398400774203 12.304119239519633
