11
Energy = -18.96712152 eV
Ag 11.987286182038538 10.255679005378992 9.218209266966753
Ag 11.3552896368028 8.061442675129129 10.760211254843226
Ag 11.083858840182216 7.7130939454616065 7.932798089073463
Ag 9.597595225623285 12.128389722893965 9.212857182645676
Ag 9.11999314704953 6.567577119184842 9.46494006942848
Ag 9.3449138386513 9.343832370586341 9.374671494475416
Ag 10.422585507725067 10.686700245728696 11.502496791485951
Ag 8.295011752473398 8.050589724891992 7.195896988273067
Ag 7.367527959443836 10.657243873730101 7.9559510507149245
Ag 7.629908069081768 11.007195931461789 10.780696688472531
Ag 6.696405779890034 8.442133436810916 9.464771379502578
