20
Energy = -39.59300559 eV
Ag 15.756793846285579 12.115328886221079 11.87730184084222
Ag 14.035708251940655 10.040159127347811 12.399660824574417
Ag 12.050741805783328 9.389976878617833 10.528383956778685
Ag 14.21953563164025 11.059415950974083 9.728537602121376
Ag 12.10185236288138 8.102106944982319 12.98817254923568
Ag 12.333096351471648 9.917166477147186 7.855903640772102
Ag 9.82830847829343 8.977324391256474 8.857986624739732
Ag 13.012885687233112 12.566799165549945 11.813013268628968
Ag 9.691535917853505 8.308538238203214 11.537761663669167
Ag 11.274399082062642 10.750170187476106 13.107582415907224
Ag 7.288156883810185 9.060792365939973 10.40748398190024
Ag 9.867258163239379 11.30938390025478 7.313255282259599
Ag 11.68379577682075 12.129478215270222 9.348772422541252
Ag 9.572048624445483 8.824013834081622 14.233045474821004
Ag 10.26522911231681 12.849685958110426 11.643462407061172
Ag 8.47542450578648 10.75826543216626 12.576220401772188
Ag 9.547680546320631 13.831031712280666 9.063752682805118
Ag 7.372673474330532 10.005451123377417 7.7796197186718
Ag 8.536486411316453 11.414282518051603 9.799113831531677
Ag 7.541298526552306 13.191998042266464 11.596924335176569
