41
Energy = -87.40873893 eV
Ag 12.2018872142784 17.32453002368056 9.053331141193807
Ag 13.66027848488727 15.022420184001636 9.031840358590067
Ag 11.237707096769686 15.013791834835239 7.5405132468187785
Ag 12.636959833756329 15.913949114683184 11.475811619086967
Ag 14.843388584153812 12.715930817450468 9.905052744690042
Ag 16.498952304711274 12.767088336080146 12.2027796774176
Ag 17.60041824174334 10.521453695770417 13.388101173883715
Ag 14.517918835510843 14.510857307515023 12.990265698874712
Ag 10.179868063554048 15.730665405671921 10.052407139364158
Ag 12.801358805576182 12.567268553711182 7.830178578161811
Ag 12.58634535925321 16.10951772650921 14.260855098539919
Ag 13.21076042986682 10.463545226669083 9.765124935968325
Ag 15.491113216803205 12.07275033516932 14.725026498789893
Ag 15.651127441069319 10.200341612358217 11.344003986634997
Ag 11.879763541499285 13.247172176554255 10.389527861385313
Ag 13.679871200316454 11.933017817701728 12.31147085985357
Ag 10.149322393435785 16.029222240588414 12.815877509543945
Ag 13.390030777060227 13.744992649032621 15.468485858169963
Ag 10.281580263267994 12.651258274054845 6.378664391132245
Ag 15.23927665337636 9.314734196779712 14.038079089860018
Ag 13.046959262262444 11.915787058384886 17.435751336041694
Ag 10.704265414510923 10.804663367403158 8.644362948612658
Ag 12.855798018566801 10.954806555444442 14.742229038519792
Ag 11.595535548119145 13.57628880474772 13.320114253520682
Ag 13.144313342772348 9.039325378974505 12.201784976239896
Ag 9.294325080191147 13.381892716575825 8.820410754111554
Ag 10.961179162063237 11.020206987608507 11.880987879314729
Ag 8.224892110981077 11.104474455385759 7.532302622194854
Ag 11.17057971505762 8.531324678348147 10.232079580804276
Ag 14.37624153209911 9.615841325971111 16.691704022281968
Ag 9.253087823999076 13.581831207800185 11.617663068602493
Ag 11.516570170004435 9.651285714464844 16.860259112201987
Ag 8.389001909589698 11.2128919046284 10.437967553798709
Ag 8.933201341997128 14.003344327444422 14.35921302825616
Ag 12.769110648306524 8.07418425117676 14.854432686858482
Ag 10.456842839148264 12.032953163976208 15.593090579811786
Ag 8.622415021606301 8.776444499171852 9.12598498126478
Ag 10.315086640677306 9.422926767357712 14.330377446395362
Ag 8.585814117404746 11.406730192453013 13.381071840501493
Ag 11.087842417163632 7.261847903368135 12.718262521925771
Ag 8.906678664991496 8.916465107742223 11.943256581657012
