13
Energy = -24.01294292 eV
Ag 12.573064844845963 10.92981656793875 8.325772940368198
Ag 8.135876938182399 8.584311430563003 6.137421866526014
Ag 10.40165099924483 9.403626487080867 7.525171114895312
Ag 12.190218709245046 9.651163939959321 10.758755910509045
Ag 5.997088431644123 8.003880429054345 7.824307186854395
Ag 10.15084387476162 11.210769870301204 9.614239519895577
Ag 7.727695954877216 10.145422696627591 8.451396058592273
Ag 10.363716539308276 10.889940454406497 12.45473624150545
Ag 8.63752811690146 7.409234681787918 8.596427167089466
Ag 6.715954398287435 8.349447738260293 10.460105565788316
Ag 11.31213507121331 7.417949410043252 9.362390874115963
Ag 9.511640095717148 8.661662844346699 10.99066168943703
Ag 7.864544774972613 10.862292420951682 11.133649289391649
