22
Energy = -43.95959561 eV
Ag 12.404547370229233 8.332210508629215 12.848194445608152
Ag 12.695838730392259 6.521488130768393 10.574494054490156
Ag 13.510231356176146 10.856245460610182 12.355685226569628
Ag 9.777375381005873 8.70848850224752 13.672490890379283
Ag 10.332859619957507 7.877969661218943 11.012124418069483
Ag 12.722676962405444 9.193903705076742 10.168454864099932
Ag 10.70295958414249 10.778553806498314 11.993159052819218
Ag 12.35103601863422 13.394968923825292 12.143678391984949
Ag 8.17221995507627 10.950502793753042 13.660290112351905
Ag 11.180138941632032 7.70076432535327 8.33774441573
Ag 8.021881277308843 9.268508279243365 11.416694899252732
Ag 9.987166258486937 10.361952001032794 9.241604937163588
Ag 12.615496821764742 14.512158978094712 9.479337670270958
Ag 12.717388064090022 11.836115606157586 9.804360309273285
Ag 9.70528999444031 13.187580966929758 13.0483430056591
Ag 8.473440938735063 8.004463487577297 8.8517261911789
Ag 12.234353967575787 10.156730726687108 7.530878490847731
Ag 7.9912497935590325 11.96576305738612 11.054953684181932
Ag 6.950826642988742 10.310276538192937 9.048886175178554
Ag 10.278572323818867 13.246908232946398 10.274033874718752
Ag 8.433572152248683 12.499448939140583 8.24529825503264
Ag 11.136213123784625 12.726825600083679 7.660556755540579
