32
Energy = -66.19564554 eV
Ag 13.315378910634358 13.459101368347794 16.746687412984578
Ag 15.93014435938435 10.381178228741293 10.801435782902669
Ag 12.048210468986367 12.42870290384341 7.011599885383263
Ag 13.676420766388997 12.014865724362576 11.487096130472594
Ag 9.58632119192113 12.43274996840108 8.300614765429819
Ag 12.901432620221708 6.610541897231088 11.006058828984788
Ag 8.359851599545136 7.87201834211714 11.393197167819517
Ag 11.152896588086472 13.345038768468797 15.026880683218295
Ag 7.762726772284481 12.804969047174476 10.543586873420999
Ag 12.614999571411257 8.254835568051003 13.202564391035542
Ag 10.615320493222912 11.843373887094524 10.96415218175985
Ag 11.85222566657447 13.909672238129605 12.363812459937625
Ag 14.258387546350399 11.687107760796462 8.754989045766145
Ag 9.177421211877023 13.624693905142836 12.926891362342591
Ag 11.537091027401988 10.390597597745655 8.763133773703062
Ag 9.906957195607761 14.661360658445036 10.399492156748462
Ag 14.61879305508943 10.193555444912793 13.340943774051711
Ag 9.84039169010224 8.823574715902645 13.783307124525619
Ag 15.219115567743547 7.826459762578861 11.945068530289706
Ag 10.526023901415066 6.442180679442135 12.445230348237981
Ag 12.431179266680113 13.65250582074406 9.607657100449096
Ag 8.069927694065955 14.679321848112906 8.310124183986318
Ag 10.849474078592458 8.919315040511496 11.079739469364934
Ag 10.86214361092565 14.940530079407127 7.703913433384236
Ag 8.734605173484487 10.119196185706196 9.545300937199853
Ag 13.904555827853386 14.3515590287696 7.39369985091963
Ag 11.706663723599789 10.938987539681536 13.477002865362854
Ag 8.254802838431894 10.544415363542324 12.20576461081295
Ag 6.7230671115377865 12.456638384859422 13.344964398697678
Ag 13.763499897233716 12.71331109692444 14.20858201601467
Ag 13.471809611008174 9.317901638113844 10.377466174045193
Ag 9.08748690862507 11.41588161596428 14.652756573597197
