21
Energy = -42.03716873 eV
Ag 12.8579323218782 12.010296975991597 8.862181208793274
Ag 13.248335270037424 10.004628634566396 7.006212703846947
Ag 9.278828327289068 14.8952837574387 10.05779738753343
Ag 11.819397393787469 13.643564420200946 10.911883143071575
Ag 10.81718579210807 9.855480665925768 8.352929500332506
Ag 13.82842567574094 11.648800992175264 11.543037368306559
Ag 10.159865495358575 12.550764186015643 8.979392092811706
Ag 8.124450144405827 11.075907071017342 7.966154980388088
Ag 13.36327753463923 9.404952264592136 9.684012418133037
Ag 13.49835554823632 13.985873953230795 13.04637609500606
Ag 8.83988620332707 10.925817412231837 12.764916939377711
Ag 7.8138723851760545 12.359880963014403 10.517853063906811
Ag 9.488928468844128 13.572878456327091 12.448728468703187
Ag 11.593162196613468 12.066055339421558 13.513318229280173
Ag 13.05245672194812 9.051838276826746 12.406689877936248
Ag 11.195267840361293 10.774721706925233 11.072356148252968
Ag 8.70035775021061 9.666106200429104 10.238128021313084
Ag 11.022681738991645 7.992889504731736 10.57315906257307
Ag 10.84215874676599 9.465688316242025 14.029229436307222
Ag 8.945848173074209 8.10000742228464 12.506812530278761
Ag 11.422755656035646 6.87395101191257 13.133323362123521
