19
Energy = -37.13186920 eV
Ag 13.843990529645556 9.20488075152256 9.170964986677046
Ag 13.229153922344745 7.800425364493516 11.614998282004391
Ag 10.735263456126635 6.338410042143731 11.626923048573076
Ag 11.651355617289724 10.819518336989297 8.33765600891298
Ag 11.334787814052753 8.17123568405382 9.617065875004316
Ag 13.982458553073851 12.009840447809012 9.258746985137552
Ag 12.61163725688742 10.559789809450937 11.294939725188303
Ag 9.302109827388026 9.076612547780284 7.982658418018915
Ag 10.779025193292581 8.92338131843548 12.52864979765642
Ag 8.673950167988163 7.851335651720744 10.488434165269396
Ag 11.936430766732538 13.137468004014478 10.677551316349362
Ag 9.634501414701836 10.553003247864538 10.290648950211098
Ag 7.056830707152738 10.010168382563355 9.403253563373918
Ag 8.159624434401554 9.606108279132862 12.655523113607128
Ag 9.104355683841815 11.85086734379174 7.778653710155242
Ag 10.28815480683893 11.816312062930919 12.54871860437017
Ag 7.5098659809757935 12.036265949709161 11.627418084211778
Ag 9.314524966898095 13.459728015518186 10.16082486790178
Ag 6.81316582223945 12.811045917942836 9.037107268245878
