14
Energy = -25.99778262 eV
Ag 12.908165380037358 11.878302003892971 11.11234259930097
Ag 10.416381895450646 12.977221242549112 10.627139139654323
Ag 10.84741902561294 11.07722603060835 12.765661969602588
Ag 13.716421598765649 9.919648317129084 9.206861129219575
Ag 9.031619425243342 10.297430034447604 10.480372772457363
Ag 11.335868003450539 11.24104080001339 8.792402265166002
Ag 11.77566189883579 9.226485249956704 11.043444680745184
Ag 8.67520903745525 12.102299769178066 8.494510044483686
Ag 9.456868151436575 8.556565182827242 12.506707225413514
Ag 8.765509822490035 9.2603821990931 7.792745505632136
Ag 9.2067951062778 7.470036365019373 9.818516888060493
Ag 11.34888436762547 8.465885919954292 8.383030673374574
Ag 6.995472328833083 8.387184516543634 11.098376145378266
Ag 6.571141716250373 10.284825416647413 9.027248918247368
