55
Energy = -122.28145048 eV
Ag 14.703647752933973 8.96748793372236 8.902119825302307
Ag 15.878750555725302 13.592023395180329 14.292761080209063
Ag 10.945546083464889 11.198977073397856 14.52882087758889
Ag 7.848220923861629 13.276067792146 14.548843992966244
Ag 10.399390673748314 10.008946001710889 17.198405228012938
Ag 15.197636079018796 11.778618252783104 7.948297807012725
Ag 16.34153955094898 10.896674068571576 13.300271138858308
Ag 12.458115714768246 11.961069227133668 17.025651353636142
Ag 11.85936592573358 14.69051708824538 16.418736183865562
Ag 10.442888617196575 10.401580439823883 9.26814812780843
Ag 14.198581395252873 16.00033469838726 9.77012187776361
Ag 11.247318598936467 16.717363884557543 14.428955167431955
Ag 12.202667932468518 15.309300962712943 7.662098222679882
Ag 10.491623832774742 6.702348223820074 12.696057481565875
Ag 7.913021715771904 9.868687005378879 10.401545812071198
Ag 14.923093127461803 11.27954498026632 15.747531300954314
Ag 8.713475860438663 14.153722681898117 11.818586742420749
Ag 10.946886683352528 9.532858457424949 12.17885161798625
Ag 13.051200252647668 13.195274871970973 9.364643779928636
Ag 11.95108659278409 8.181577810127688 8.429863383014828
Ag 16.027550131691918 13.804941861687185 9.744690970719603
Ag 8.388808993082096 8.67030607283429 12.918348683061852
Ag 14.49303643731363 13.94779977190649 16.700767323806307
Ag 13.904451402972638 15.757014239561222 14.482761390032776
Ag 10.218988209221376 16.610835037444545 11.818284495008013
Ag 8.334936032671115 10.487170196898266 15.196180998357946
Ag 13.131093220560446 10.50433212874495 10.484981059888135
Ag 12.67675937165649 7.593842071592052 10.972229313404997
Ag 10.450452883286863 14.678219498497931 9.717673063308911
Ag 8.684797927399398 12.457768801662567 9.633065738326502
Ag 10.691055420498284 12.764312462616024 7.689214604572757
Ag 13.43152338297988 10.4352261728618 13.37808614098998
Ag 9.695169336948394 12.663970620050748 16.6580208138802
Ag 9.802116959339756 7.8229283130216265 10.23968493302216
Ag 8.359796767913384 16.058477840370553 13.76725336056434
Ag 10.371559140069987 8.3613830426244 14.944575343732323
Ag 13.071301966731488 13.062277970443537 14.36922907718619
Ag 15.100356019186787 8.73242582594521 11.824572558834292
Ag 17.361409977136887 13.143987967297956 12.009598991215752
Ag 12.862971023376486 9.33089416626342 16.045074777312312
Ag 14.44858348391386 12.716692447805483 11.870382190890727
Ag 15.295827578979237 8.692476803028224 14.69680318828654
Ag 12.516220873608308 14.81969770283602 11.95140955938373
Ag 11.75547922527935 17.213850055426775 9.676720537191558
Ag 13.180224868498803 17.424081602549364 12.21832440103879
Ag 9.20400967051588 15.354006351069724 16.255802249466225
Ag 10.454003587988057 14.022495910849091 13.957461253291399
Ag 12.897504637659127 7.6494297544424885 13.76827488472355
Ag 16.20599402551065 10.963446919682337 10.431069348790706
Ag 13.13367347930595 13.007989804554125 6.324488221707667
Ag 8.701223710742825 11.464322254465838 12.536780604275034
Ag 14.987171890853835 14.694446207517894 7.416392655582619
Ag 12.665824555110209 10.64912612092882 7.571721524645755
Ag 11.325614058774866 12.336366612860665 11.67843141038631
Ag 15.479551879932341 15.413582540398409 12.1444333320354
