20
Energy = -40.04958268 eV
Ag 11.861978824576157 7.779309043029671 12.769631167570362
Ag 12.41197688702428 10.702178500091007 12.85640480938463
Ag 13.14516650207829 11.904613532540015 10.40658622401533
Ag 10.27658191480725 9.54488492742471 14.209712344187125
Ag 11.942710643664496 9.29124613988011 10.472491437991623
Ag 13.9595012289144 9.768855474405248 8.684853316343622
Ag 11.51902928765109 13.354172513883077 12.186308082477062
Ag 10.008886944932021 11.122794604858184 11.474917445805557
Ag 10.725595287120939 6.824113578265245 10.21713564217552
Ag 9.229080455706614 8.38185073989699 11.934369441847792
Ag 7.843781100329458 10.365586738309998 13.23583756038709
Ag 11.556081088119253 11.094122944736833 8.242547806756606
Ag 11.136873541114763 13.569159572516014 9.448424555979285
Ag 8.76454271374208 13.512121032663165 10.997396002593224
Ag 11.562528662659961 8.289922779094205 7.858949196087142
Ag 9.274577218851487 9.20356313480528 9.321845999978107
Ag 7.354613429556285 10.979883617694313 10.581149688734774
Ag 9.503833332409968 9.931883959925857 6.7039013265458856
Ag 8.965308606290032 12.0237163190637 8.600338351047107
Ag 6.969052896267604 10.100124868051502 7.96601401845356
