31
Energy = -62.67452073 eV
Ag 15.727853335745777 11.407525915161873 16.333811986598825
Ag 16.250485009956492 14.123363490857596 15.688038073598307
Ag 15.698166984060606 15.045675978138242 13.101641224495873
Ag 15.519472759992151 12.361119605771496 13.718644482253861
Ag 15.627821747011634 17.437142710003467 11.815736794862124
Ag 15.940907913780709 9.616646849684948 14.117006885670975
Ag 14.841946980432036 13.1511378669732 11.067225340653492
Ag 14.146487916497918 10.650507872554769 11.959495463587198
Ag 13.577494705566815 13.159305286666369 15.90367959813905
Ag 13.654422053124936 15.715140678896246 11.154947633936503
Ag 13.710666747000275 8.213179846845224 13.095499824032942
Ag 13.446748474153749 11.329460971250437 9.362408055464666
Ag 13.440961842860135 10.561182931850265 14.871744308428068
Ag 13.082818404412743 13.859967102138981 13.174708798082944
Ag 11.908436726833427 9.802475892934819 7.664619290989336
Ag 11.186905937821372 12.16209424051495 14.440703598524898
Ag 12.43215580956997 8.918877616446048 10.529093255622907
Ag 11.411856155901036 14.786868004540311 15.201596895290118
Ag 11.378745036991559 9.756956442815055 13.13462606379922
Ag 10.59569631491691 10.903688852415238 9.782594837851015
Ag 12.058886221641993 13.47478789263108 10.507334923065981
Ag 10.330975197109195 14.265209310711942 12.638284583700777
Ag 9.508860379366693 11.603998605443568 12.273458563002132
Ag 11.336354970651982 12.631796017607584 7.853156342309877
Ag 11.278405467200601 7.059576120761824 12.37555605533007
Ag 9.510636951739787 8.838941574398437 11.238906821015364
Ag 9.307367282380813 13.38687736564357 10.00209985643312
Ag 7.838721485659161 10.794842842745124 10.045018354741158
Ag 7.852711475939253 15.072437887837905 11.636360308796633
Ag 6.496445853188961 13.175323932375425 10.300394166983075
Ag 5.211845508135276 11.045151943027372 9.322869262382964
