48
Energy = -104.62436577 eV
Ag 18.063731050069375 11.329993816510262 9.26938418508598
Ag 15.728844780169718 12.905180222825308 9.556555980721107
Ag 16.974453988383615 11.51409751826385 11.781080013955973
Ag 15.572914247866905 10.082642295080232 9.285089696502764
Ag 13.536481704213383 14.775356649599676 9.74950013451576
Ag 17.719164967092222 8.956712669091953 10.739100798459111
Ag 15.075066980428796 13.727563336476518 12.113096177020608
Ag 13.243474783519915 11.729000706651824 9.067838526864335
Ag 12.428011285949546 17.599177148667206 10.564965872070738
Ag 14.161802536101689 10.846234422954051 11.677879894335279
Ag 16.05260896509998 9.111825077336233 12.984753870998412
Ag 15.290822453675096 7.593012700056316 10.60563236023124
Ag 11.013184866877038 13.350147943928853 8.82666702077556
Ag 13.2029360539228 15.775216163473893 12.5669693980475
Ag 11.23760753871138 16.140238869088304 8.388917179342771
Ag 12.969812683291051 8.99302246526708 9.674258024450067
Ag 12.376107745913247 12.99869298061502 11.556792254565154
Ag 13.315753377647356 8.229883429347511 12.535533656831344
Ag 15.44033573243457 11.724936054327635 14.12483282526986
Ag 9.57746427344155 17.625001776397017 10.247317116348743
Ag 10.65829898236316 17.32840254778499 12.892845314981768
Ag 10.658143249360151 10.524276053179083 9.030738154577893
Ag 12.03046822309582 16.22863887220415 15.09558434891899
Ag 10.924657873353487 15.29864273051825 11.001025193465214
Ag 13.889395315672683 14.070983954590455 14.645277561366285
Ag 9.53876935741499 12.797342254714861 11.37345836670997
Ag 8.362323722149979 12.22251203315869 8.847878763831785
Ag 10.827580943810023 14.07442391048677 13.651614794685266
Ag 11.292605256112585 10.33343438958516 11.771244159044011
Ag 8.704231521746069 15.01218243405232 9.308952635368428
Ag 10.418789927950897 8.015982097860258 10.507398632841168
Ag 9.071450473355881 15.918799706101083 14.785676914225354
Ag 8.26290374645799 15.87398308536199 12.034076867038596
Ag 13.779492677120864 11.848968000548968 16.43040170698444
Ag 12.761335281380259 6.330131684343162 10.622020921486422
Ag 12.528845923632888 11.53731050815356 13.963677358054877
Ag 11.821322870948588 13.83750414635232 16.51413416072292
Ag 11.043066462365388 6.541794506804238 12.909585852385211
Ag 9.522611774110713 11.218904366100222 13.815226190848481
Ag 14.083397993377535 9.382253251587175 15.020851525585453
Ag 13.065750082434691 6.772630355795314 14.843323298742943
Ag 8.524762876071623 10.240683247621293 10.86451110805385
Ag 6.895889823023922 13.574175741248332 10.912547097307584
Ag 9.05372141453506 8.508898845536734 12.926719993427703
Ag 7.842788732688891 13.576312371383732 13.530069703733934
Ag 10.9786374317112 11.138433151560571 16.27462772081968
Ag 9.197143022378096 13.275908631993625 15.890082430743494
Ag 11.28749877486708 8.959388539136658 14.503053827989277
