11
Energy = -29.96162599 eV
Al 7.447405224176716 11.750444709376428 9.594186773305875
Al 10.979765030197376 7.9817112937217 11.040488649011296
Al 8.420897803787575 7.8212786033288975 11.711055351173233
Al 6.917964964068806 9.167729287335874 9.909133111676365
Al 9.28824732712411 10.223453755571063 10.98007610904913
Al 10.030998954946606 12.31372632987849 9.267323403287579
Al 11.414018211314533 8.264375605014843 8.262609426952693
Al 11.809723291329393 10.319032675559141 10.109578770997981
Al 9.09075520957528 9.873444289685084 8.313319447845561
Al 9.045816955803627 7.363476539445224 9.17044388072485
Al 11.46238712497663 10.800209734846298 7.520696404597744
