17
Energy = -49.74411671 eV
Al 11.197613122489999 11.565572323493585 10.670607231011624
Al 6.545817472857827 11.141778721381607 11.284362329256908
Al 8.795271505026353 12.21236498403627 9.638606133750763
Al 9.017399720223088 10.81348982503055 12.085002951369521
Al 10.995132590810247 11.252473721122975 8.039376047471924
Al 11.20309613596426 9.15134128126597 11.917855914677704
Al 12.526426181593841 9.502475599839443 9.524527008239751
Al 6.241084533411518 12.533311745649502 9.047073965824687
Al 7.218634309829751 10.128311803798312 8.549208815100707
Al 7.394796428160922 8.688399089934794 10.975944216205994
Al 9.703806378496003 9.559408520835865 9.711452048672866
Al 12.409763793997335 7.0194828142069525 10.667284452131579
Al 9.512642193672251 9.27850811978163 7.023304674702968
Al 9.665664916193633 7.125523609360191 10.870581517653054
Al 12.39446275478396 8.992518359063844 6.876136113747455
Al 8.205389299502185 7.614040469659998 8.631805300361279
Al 10.898402672536664 7.346403021089168 8.4122752893716
