12
Energy = -32.10711691 eV
Al 8.086395519144734 7.88587356755516 7.982922370138076
Al 6.713959451710121 10.130222048284102 9.040078937701276
Al 10.72657431976605 8.606021271710132 7.322368419229286
Al 7.4486641032496985 10.908699938643213 11.507659856211253
Al 11.1977178972228 10.65083812486104 9.10994226832237
Al 11.370281661729658 7.844865729905903 9.803618976833905
Al 10.151943528350888 11.34521948435972 11.62633534939189
Al 8.876828263022782 10.391394287372817 7.4369881898740005
Al 8.894034136570124 6.510069424516943 10.206747993797318
Al 10.224137247775571 6.105984310883998 7.986130143235766
Al 8.801096141114993 11.971378912126022 9.391652072500944
Al 9.083813991812894 9.216832379868155 10.160206203862984
