10
Energy = -26.38976634 eV
Al 11.357056175625013 7.728658779513779 9.59797469635192
Al 9.61171010740257 6.098228367794618 8.561811452705626
Al 9.204070172278387 11.27252862662136 7.363564964832079
Al 9.896588413410193 8.46702321622943 7.16722869881954
Al 9.451143946764121 9.633059890809733 9.487006293677277
Al 8.884719841730881 7.161687678417731 10.873644527135099
Al 7.076227081017022 9.025368793465184 10.816361306966154
Al 7.472618195260246 9.587779986197896 6.385920985519318
Al 7.5784593463438386 7.800141294725549 8.353904453489866
Al 6.824690458141916 10.584061470775373 8.750736105601481
