13
Energy = -36.1211763 eV
Al 11.695410455479 9.336682700979857 8.67095209038502
Al 10.545693505604081 6.917365572950009 8.276636431182151
Al 10.90898613733373 7.763706909421902 10.850131212910997
Al 10.57728011178953 10.631462064454945 10.891321103754628
Al 9.308963906116837 9.075480004542909 7.346131906065974
Al 10.019178952889247 11.43600841605703 8.337587380129726
Al 7.963150343326378 11.15234695214052 10.219059751709665
Al 8.483790180208963 6.674298258608909 10.16221560435885
Al 7.480199486046169 10.989720237854952 7.649127262935625
Al 6.73180291866993 8.784805778147225 6.554079496797838
Al 8.526517027320358 8.931953749741131 11.513354133341615
Al 7.033544237601953 8.787011201863791 9.239113973304972
Al 7.968812674515344 6.785345672379546 7.595704352096839
