17
Energy = -49.61120377 eV
Al 12.34587838455545 9.306246188016543 9.855838377875925
Al 10.834758037107548 8.00386500632328 8.099811190568813
Al 11.089527519189227 10.593493924518043 7.63046939835144
Al 11.617985370038921 11.912479573403244 10.02089301294254
Al 11.236680893134073 10.023701440186441 12.183569114265056
Al 10.313043438586863 7.663279490837775 11.123839328195606
Al 8.934159475053264 6.82908266505738 6.580306804651067
Al 9.717180277101983 9.869743248127797 9.847280886018066
Al 8.961866150241853 6.3712929606881366 9.231763863265995
Al 8.998495984630956 12.011159518984375 8.386163389973955
Al 8.264053267602504 9.4295471590985 7.667574266788324
Al 9.397290891205238 12.141528933930324 11.434143047235967
Al 8.58414332691208 9.696504040497478 12.281181754756044
Al 6.8536485435949634 8.235617474167958 5.673232607117879
Al 7.4201317134943405 8.349873648213268 10.308132843038177
Al 6.641879593034779 7.0608760470173335 8.064086761500402
Al 7.262443174798602 10.98219069545802 10.084342286155373
