15
Energy = -41.95813522 eV
Al 8.856968861086724 9.717617706732232 11.346246036710495
Al 11.75669094787954 9.973189726399497 11.73118704943809
Al 7.755404310908584 6.992937115422322 11.443168862655469
Al 10.416721970923785 7.6058252254691645 11.500655869762534
Al 6.626263136082166 9.051835527698973 10.018629830125079
Al 8.976805911989333 7.608320940112805 9.090121888837768
Al 11.045103239512265 9.149484045293681 9.23884871043799
Al 8.474810016978852 10.48226896982452 8.760410794015776
Al 12.74014981873169 11.245615653622734 9.464692935455375
Al 10.244629871121028 11.74792374257881 10.28034699565709
Al 10.834982389653758 11.358791719321795 7.503562711010194
Al 8.413537671355819 10.817838602700858 6.180682048937345
Al 7.089129514590433 8.569390398648565 7.234295412818925
Al 9.920878680851883 8.727361514499094 6.824614668429847
Al 6.47642854124782 6.580104111674552 9.011041068621832
