15
Energy = -42.74927332 eV
Al 12.056656430824113 11.919688330592415 11.164006901794554
Al 9.85519519434018 10.43518978157273 12.22851439990407
Al 9.518675317550672 12.518578108235488 10.426061018699361
Al 7.409495412593983 11.182315781498186 11.633202024114206
Al 12.144505894351761 9.296588538134158 11.845195046681672
Al 10.656790749989128 10.22415159411991 9.538561282188992
Al 13.280204684959923 10.10108279802793 9.459655635886078
Al 8.616430629616852 8.733442677331128 10.629439777511198
Al 11.260814341827786 7.574932858792805 10.137701134158885
Al 6.004960640872335 9.578899825792831 10.224575551164774
Al 12.022026344918606 8.691672376753331 7.650552032315893
Al 8.117468841606666 10.78606369766384 8.851129337572981
Al 9.886796958506077 10.2142839059212 6.942382906010631
Al 9.49671747004001 7.820799995724307 8.201577917383341
Al 6.900068955342399 8.139341957131148 8.294122764997166
