17
Energy = -49.67035983 eV
Al 9.703294364004986 9.944248109012538 7.1595617664946625
Al 12.094872822657353 9.964500848276398 8.642232416458139
Al 8.035682877636846 12.124608658525752 7.915946617712926
Al 10.91437427952192 12.417056697372441 7.639814872403396
Al 9.858849508936599 8.160752106440308 9.203992477201142
Al 7.544822877916457 9.542381108966607 8.998692519927008
Al 12.409211678021057 7.69322139972199 10.292380351839325
Al 9.815761167317289 10.796678871152602 9.661422712501533
Al 11.967880612744448 12.33325229900767 10.183820069240552
Al 9.428424064667107 13.436393937375247 9.88817744916392
Al 8.737566304211954 9.429414723292782 11.70062516652589
Al 10.719882809541382 5.7217087692586714 10.203503587616433
Al 7.521474037928166 11.620300899422835 10.767079868864736
Al 8.472762509406412 6.702316390145995 11.199725006813447
Al 11.597666962966334 10.010560864341683 11.491537152446393
Al 10.726078994629958 7.568961700227327 12.358031721474713
Al 9.88689693191776 11.96914542148575 12.12895904734238
