11
Energy = -29.80419758 eV
Al 8.570299230523888 8.275337239900269 5.255969314234304
Al 6.499047412826951 9.454452107391164 6.302543002522426
Al 10.56177433503981 7.972020234477428 7.027266600274977
Al 7.96751422880066 7.543031697600624 7.827630570689046
Al 9.008798466480776 10.361798545412489 6.928518923286576
Al 9.693701757079811 9.47183794546672 9.18103037727438
Al 10.144670682874883 6.750823202215925 9.3047110901911
Al 6.887986533170882 9.755549807411567 8.83215343116287
Al 5.851214032604391 7.575844170738865 9.744081677934572
Al 7.721966851978475 5.773485199639128 9.910718633839606
Al 8.26898353990931 8.24177692103622 10.861333449879973
