17
Energy = -49.36657216 eV
Al 14.48569384803766 11.853321921910267 10.607217592222788
Al 13.061968060256133 9.686917101196995 11.546254391045904
Al 14.212057195218609 9.7562279449417 9.034915529773867
Al 12.008923790715356 11.718970008016576 9.158759429968363
Al 12.688545568763498 12.207902840878031 12.509142158052963
Al 10.902503648335289 13.480425863872732 11.03485947843916
Al 11.6050789648089 8.87906665261537 9.391638456280791
Al 10.845588098718636 8.268492128101482 12.018996816872997
Al 9.154560309199134 12.266756629174452 9.488426941079657
Al 10.566846373995489 10.767738814094024 11.154773752391716
Al 11.026385278499006 10.620000311954765 13.745881590454298
Al 9.946349629164962 10.293178692758053 7.904480088094272
Al 8.955187249648294 8.880343026332783 10.112547222545942
Al 7.274378633950088 10.236108163300134 8.26461487685458
Al 8.612765303869931 9.610608112052853 12.799773380527416
Al 8.860877326016531 12.35810141435353 12.438488878592478
Al 7.230699123553535 10.813149693326647 10.874505584283481
