19
Energy = -54.7333672 eV
Al 10.80805214307935 9.838199226935151 7.072296579584732
Al 8.380648441572786 9.728882377526208 8.154568949571797
Al 10.018692831415017 12.257544231732302 7.872383224851527
Al 12.548301752242223 12.192947776313536 8.599554638634503
Al 8.02851203860894 6.997296032247865 7.681422108068417
Al 6.049757187414213 8.476848770875398 8.596122788981045
Al 12.953747562384558 9.566687513646174 8.567999638931573
Al 10.435850298102428 7.774225300790825 8.809000508875712
Al 7.954362504812434 12.177926201895902 9.409197579700907
Al 10.398033276744782 10.223445117932322 9.87780373785667
Al 7.909785540038078 7.5859344033508656 10.310753349045278
Al 6.762581990672048 10.079378795977183 10.569170747780891
Al 12.513110231834304 8.189657479319063 10.731802351250797
Al 10.8673365560088 12.798327895660233 10.755887277951526
Al 12.845383685059366 10.907491702998707 11.048872102977379
Al 10.18256979928596 7.456782926891357 11.630679795464744
Al 8.844314598901827 11.468939541212805 11.813307683674402
Al 8.20263278827672 8.97068393849098 12.58929966544285
Al 10.918047044582421 9.930521037239103 12.531597542390942
