17
Energy = -49.28232407 eV
Al 8.99176410948644 9.661939602637736 6.773736635054458
Al 9.170607398666279 6.96029438431762 7.66192998831219
Al 11.605725611028433 7.922454900491543 6.9129027504101375
Al 11.556122045281082 10.48841664297424 7.816425191621129
Al 6.911904173420912 10.99576195998547 8.393415588123748
Al 7.128869124166713 8.33356389279992 8.39491324319148
Al 9.465483896272344 11.807812683132694 8.496811194706961
Al 11.02265627796734 10.874788062267509 10.623997544768967
Al 9.68239977747329 9.121351074910395 9.234306645626159
Al 5.662123627328439 11.81234676304786 10.51681602697703
Al 12.8917388512839 8.690631723445978 9.35900775163687
Al 11.294707947356159 6.332888550117058 9.255738274511339
Al 6.570829271151859 9.380098198534862 10.794876535152651
Al 8.232700390545045 11.773673901999045 10.877786335599618
Al 8.538225205668878 7.120448148178657 10.462331408958034
Al 11.102087388085824 8.107951872213318 11.320134285080835
Al 8.99548919970104 9.439011933830335 11.928304895153309
