10
Energy = -26.25649339 eV
Al 10.66681755730846 8.424672592175854 8.141558631954215
Al 8.41486483329772 9.478249472834147 6.435902822402823
Al 7.88263287725014 8.227669275695158 8.590459933514715
Al 11.811454528956077 8.269415454328081 10.627289266853493
Al 10.256228117357589 11.02026789497954 7.294797723829374
Al 7.552008147365688 10.914298149673254 8.56956712951622
Al 9.234265557785381 7.436977024288752 10.545262949358772
Al 9.965605909980205 10.356419514161702 9.800240995369192
Al 9.905870748047406 9.258659811682463 12.26258750069407
Al 7.592339831557093 9.914127980821336 11.03619938713436
