17
Energy = -49.71047839 eV
Al 8.604558421867209 14.26030963454718 9.415598385982856
Al 9.633680328654423 12.787732086875511 11.61290474309884
Al 12.669223612887325 10.733510349375644 10.267455262409298
Al 11.103709120771516 12.963665523949608 9.323637048727845
Al 7.533559238355645 11.784172288623195 10.159553556588287
Al 11.507004691467166 10.682419303196113 7.835604789668327
Al 10.002157966859489 10.531562929452374 10.052239470772506
Al 8.530300751282411 10.333202458727326 12.290626886598918
Al 11.208583638081 10.538436168166344 12.455991438725809
Al 11.590790163965627 8.398177268631771 9.26007544356754
Al 10.00877468078827 8.205380615885835 11.574502413497598
Al 9.310535446390343 9.132006423587868 7.869274082041048
Al 9.014033053704068 11.93994661456132 7.875410778235519
Al 12.77001531683357 8.174708582451146 11.753464779278596
Al 7.817141705547334 8.971470273115608 10.070902791512964
Al 11.570502698811604 5.971411595530786 10.742075746601
Al 9.398674858547924 6.706077761001919 9.33020779392567
