17
Energy = -48.70196745 eV
Al 11.399909612687404 12.858477764501107 7.561528319387125
Al 13.13421938016438 9.987545745596039 11.930053807138075
Al 10.441284046701654 10.692174955126822 11.95283302006154
Al 9.435978760463437 11.232705633123302 8.060858582124984
Al 7.644793494701126 8.729032997584211 10.76371393766536
Al 7.652388359560455 10.453137800674202 12.875816648364935
Al 9.911354404642662 9.046642651459617 9.488101116611768
Al 11.951425054566624 10.679181550517937 9.465482680459857
Al 12.428092478975435 12.487277006319893 12.01419234619502
Al 9.38448973504635 8.491896446401741 12.861201102755992
Al 10.316869866625762 12.82377997085562 10.294848992599409
Al 12.900246714813662 13.277921714577378 9.581037944673987
Al 9.427379111326854 6.633889581475885 10.889157603647075
Al 11.65150629064206 8.025888285495073 11.245723776234682
Al 8.18066016795454 11.392283870980428 10.47900618536608
Al 14.554217625906132 11.348728517975287 10.171027173171403
Al 7.422375391680622 9.626618047640152 8.285772150613669
