13
Energy = -37.61339139 eV
Al 8.948080064161154 10.470790388491684 9.944965300194218
Al 8.096125326440557 10.851742700349078 7.367564054173016
Al 8.022588387700846 8.146686174644142 11.066412351643713
Al 8.4078619674469 8.379068792507022 8.403189877882857
Al 10.573685343177246 9.669637554405885 7.59225962487825
Al 6.339171197306446 9.793787306182999 9.398151102407725
Al 6.268452411171284 7.052906757105686 9.252300792570903
Al 10.450473685696478 6.925045438069446 7.382820662820745
Al 10.524620166440782 7.951278717962915 9.94078935240248
Al 8.758904508636105 5.90207604531988 9.43183625290978
Al 6.316545165172168 8.822630925291755 6.829958906352389
Al 8.835236048662658 8.602304344056881 5.742043141924964
Al 7.814096689962502 6.302208494109435 6.870768192815944
