11
Energy = -29.28413109 eV
Al 8.995923987167034 9.081276491300311 7.532053713096482
Al 10.402849077549408 8.18814339966741 9.710669712457438
Al 8.786694776261907 9.372600035218044 11.84315818228713
Al 6.413425160437683 9.833306009984394 8.369685863875837
Al 11.73672466664163 8.45911625622939 7.343231173439926
Al 6.272895241728808 9.90686293773495 11.024367925414465
Al 11.123044993637297 10.362365204264002 11.073398857125214
Al 7.849150411184953 8.039498518553968 9.728226058829058
Al 10.901989139992956 10.744720721192385 8.439785327294663
Al 13.047803014497822 9.345539971307481 9.480616306102759
Al 8.630259647986467 10.827330571633766 9.615566762990804
