18
Energy = -52.94822258 eV
Al 14.4344197897295 8.367559849182733 11.902343189663576
Al 13.60698378843079 8.60331305025323 9.399624504133941
Al 10.651922838227392 14.362384629481076 12.311529291388704
Al 9.514095376359068 9.872173072286545 7.494239634706094
Al 9.709877302973641 14.521096507735052 9.842695094806515
Al 9.566872361740693 12.233053430111223 8.599365850839956
Al 9.91537306871241 9.995119706380631 10.20896741698815
Al 12.251658538811606 12.339506851313839 13.089498956706057
Al 13.045338063006309 10.59305005075362 11.093861416155026
Al 10.421999930859753 10.350404029201652 12.699646088503526
Al 11.273295977696073 10.774609925521302 15.277082594757251
Al 12.031537854894482 10.639857936620105 8.611443742070156
Al 12.89968529832858 9.53412369821629 13.65761692361307
Al 11.00411738471157 8.06078230707427 8.720237240622618
Al 11.636253874381907 8.269915525123523 11.329174049784637
Al 11.54772071006779 12.596088215532022 10.514783390490836
Al 9.667655380707757 12.509857997218678 14.085396671514612
Al 9.015666034110371 12.281238528587918 11.482190123477839
