15
Energy = -42.49150241 eV
Al 9.571582197892194 8.584292337608375 10.907848814885018
Al 12.309149134373742 8.463893453471517 10.746478877083675
Al 6.834032208597696 8.463961964295613 10.74634612559051
Al 11.005442355162364 10.76251631014101 10.51679344503347
Al 8.137810592940326 10.762578249242528 10.516806955790441
Al 9.571660858550482 13.031444188772085 10.620686572927243
Al 10.9058523990115 6.254484035727119 10.838398348395682
Al 8.23727072408032 6.254524866732676 10.838318928967237
Al 9.571693204017576 10.14904266457543 7.855952177205962
Al 12.280757021692098 10.10440316250109 8.240238640015372
Al 6.862632666276701 10.104425626652294 8.240194544224735
Al 10.953806920763931 12.394515127425848 8.312236614985933
Al 8.189598151324342 12.394529068138176 8.312173487476088
Al 10.916937550768381 7.925008004800089 8.441129672505609
Al 8.226396366093848 7.925003588370513 8.441019443367656
