18
Energy = -53.06555368 eV
Al 9.78998844323443 6.981869224597144 10.097981620783997
Al 6.933041531570622 7.227027395777121 9.393207866172487
Al 12.146006343799904 7.705666405639231 10.891033062939123
Al 8.875269366237278 7.538020848679138 7.603873519858791
Al 7.872332590413871 8.153049598295208 11.64588460624281
Al 12.888023985842413 9.315371267363567 12.78465563224161
Al 11.038026610243268 8.852356323782505 8.659006751173342
Al 10.230955564628035 9.47315098768359 11.661838564073122
Al 8.496439076536957 9.703902821393612 9.455035671735802
Al 11.821967627033635 11.704483002580073 12.55856655910219
Al 7.6752059578474165 10.671978947233802 11.94179584504233
Al 9.245420874398091 9.954145181493237 6.827165138082564
Al 9.556196237642794 11.954054831785202 10.751342936272739
Al 8.342116047528586 12.100863084067072 8.066645055684518
Al 12.436271222895511 10.357387004191676 10.287906919958724
Al 10.951604403733956 11.421048626966755 8.358065673971007
Al 11.961053937177216 13.095150916641833 10.302317753155412
Al 9.952220039706992 14.00261339230035 8.925816683979697
