10
Energy = -24.49087998 eV
Al 9.455505011621158 13.05081723150135 10.01358622496563
Al 8.892360135129739 10.713596382058574 11.269534648953826
Al 8.939280360531987 10.824009080627965 8.54049867759004
Al 8.339865397037551 8.359344393940058 12.516220958119277
Al 8.376019879357507 8.469851621612083 9.801842422909
Al 8.426402325489395 8.59364627290338 7.084059040359641
Al 11.266969341232965 11.022311598886088 9.942523027237526
Al 10.704949143497675 8.671525550050003 11.212850950830042
Al 10.746326902506024 8.774162352356178 8.483046762673272
Al 13.059260773798389 8.974996945364943 9.890975067491361
