15
Energy = -42.26396661 eV
Al 10.362815255316118 8.399374703454571 12.390503677778945
Al 7.928517299217538 7.348009631042476 12.27916820841624
Al 9.56524734271188 7.423644682752336 10.048593947104367
Al 6.5287218077326346 8.327714804549275 10.268428263995347
Al 12.3329867424757 8.124089192028471 10.640985569301504
Al 11.19832323740285 8.187801985775726 8.110764892145605
Al 8.381439540452378 9.96457335271742 11.242657954005683
Al 10.761457157008707 10.196868939262277 10.25450785470697
Al 8.645011409952208 9.187845026938628 8.412541656860558
Al 13.07487072489629 10.250600798485442 8.998386924953437
Al 6.534661454051261 10.716349899463932 9.182952638815953
Al 10.66651665635734 10.686448133222477 7.334004178546105
Al 9.024453329743704 12.042410428022839 9.54130594270501
Al 11.640095813344944 12.493525026453714 8.928882972385885
Al 8.111269067706859 11.430439346889816 7.088670379192634
