12
Energy = -30.06197407 eV
Al 7.589610335592823 7.593061762104582 6.356878001577634
Al 7.518537689194212 7.5160697758957 8.89121061540479
Al 7.602673794738832 7.59425634241178 11.425784606538402
Al 10.175477928611722 7.595701550434034 6.349845086900906
Al 10.260353722823186 7.5186872226740284 8.885211221729895
Al 10.188292416608409 7.597760937005303 11.419610684436677
Al 7.588220356780277 10.176277792807836 6.357311812384632
Al 7.515203096482675 10.25747682770371 8.89170266857306
Al 7.598828139371139 10.180535468238071 11.426863916980077
Al 10.173809310597045 10.181982598612981 6.348434801422391
Al 10.25723329169823 10.26012980250046 8.883029120925512
Al 10.184663917501569 10.18096391961151 11.41702135350411
