12
Energy = -31.98899133 eV
Al 10.294654 13.852098307716359 8.42177622314163
Al 11.703293869621445 8.970449528358401 8.911921199656879
Al 11.703293869621445 11.618858471641598 8.911921199656879
Al 11.674892856817413 10.294654 11.237708273111432
Al 10.294654 12.663534135458528 10.975555951222043
Al 8.886014130378554 11.618858471641598 8.911921199656879
Al 8.886014130378554 8.970449528358401 8.911921199656879
Al 8.914415143182584 10.294654 11.237708273111432
Al 10.294654 6.737209692283639 8.42177622314163
Al 10.294654 9.000004779036098 13.309041127477698
Al 10.294654 7.925773864541469 10.975555951222043
Al 10.294654 11.5893032209639 13.309041127477698
