12
Energy = -31.15187106 eV
Al 8.938089 10.890719710577304 8.938089
Al 7.6299680950078494 7.6299680950078494 11.25192168838637
Al 7.6299680950078494 10.24620990499215 11.25192168838637
Al 8.938089 6.985458289422694 8.938089
Al 6.985458289422694 8.938089 8.938089
Al 7.6299680950078494 7.6299680950078494 6.62425631161363
Al 7.6299680950078494 10.24620990499215 6.62425631161363
Al 10.24620990499215 7.6299680950078494 11.25192168838637
Al 10.24620990499215 10.24620990499215 11.25192168838637
Al 10.890719710577304 8.938089 8.938089
Al 10.24620990499215 10.24620990499215 6.62425631161363
Al 10.24620990499215 7.6299680950078494 6.62425631161363
