19
Energy = -55.26812154 eV
Al 13.407145017561003 12.539053203608542 10.570250831355256
Al 12.029308631697518 13.694600890686488 8.592278482268517
Al 12.16709795725245 10.439900167468005 11.473190584012713
Al 12.042260487207596 10.954676618154204 8.800965046015595
Al 11.904796179000593 8.362932987642607 9.420905084895292
Al 10.678953902777694 12.595598687309698 10.729106606067102
Al 11.050510539557306 8.224964816211061 12.2344500107443
Al 9.522850822567168 10.70963061892529 12.336810082207505
Al 9.808483296122033 12.400585780894861 8.122655228283618
Al 10.079232159277728 6.193344184560027 10.862184470999997
Al 9.509336733828505 9.457355278473495 9.983491372655077
Al 8.365792733093018 8.302904559972202 12.360474559115657
Al 8.181465610137206 11.936435067942321 10.28253397088232
Al 7.704195988004225 10.880684680601252 7.8226917470098485
Al 10.23482274390872 9.59517150689306 7.422199661339871
Al 9.777195539712542 7.128220196121324 8.377046692901223
Al 7.476592381002069 6.8785811105737675 10.252868563708816
Al 6.86218152300189 9.646934972980985 10.545286343708291
Al 7.474411793464676 8.323058237245933 8.046198121016038
