15
Energy = -43.25387293 eV
Al 8.383514677516912 11.99400709932505 9.718260436805847
Al 7.580428510152172 10.27807628187517 11.60423992758407
Al 6.456588331432427 8.18392598546904 8.317614282856423
Al 7.274028819546014 7.745516649332521 10.783041613733259
Al 9.529472702527151 11.014256208603813 7.187583786338633
Al 13.256106942350046 10.361864944795439 10.01911484416906
Al 10.973362303838197 11.353958995846085 9.268314818122684
Al 11.148763441341583 8.687516717705359 8.426757107793874
Al 9.90189662196258 7.324930256985911 10.737730899846376
Al 8.754483524076425 9.394311943841885 9.274697676550938
Al 8.813481897980381 8.61120824070097 6.636387191025428
Al 8.839611994965702 6.781267707428864 8.464651924373213
Al 10.307167820119226 9.921628684382316 11.45533405341994
Al 6.906971870938083 10.68885475489031 7.799234401215375
Al 12.389278539890423 8.07852791819982 10.780286754554579
