19
Energy = -56.32887619 eV
Al 12.569188931690483 8.748363061740436 9.29596054505182
Al 9.971767078684358 9.174636831583774 9.836546681073344
Al 11.906571850213048 11.49691853735489 9.673322494740331
Al 11.10662428298023 10.05826423139034 7.553015234742455
Al 11.383552568636269 7.300022662118327 11.41418507136945
Al 8.735198954478982 7.04832260768627 11.23245002304279
Al 11.076720435007939 13.07446684549737 7.671284239875623
Al 8.314134180919577 9.61131525659759 7.529222906431868
Al 9.38001360833255 11.618254593101224 6.2702349088245315
Al 7.528656301528471 7.890257754135552 9.176529645993835
Al 12.221609891047988 9.937663261572181 11.653453595394309
Al 9.012120609275934 11.758319023538274 9.026572064189136
Al 11.798845476741448 8.500903366855757 13.805863558266187
Al 7.628237696461176 10.088752119714169 10.74108887855265
Al 9.424060915870793 9.222257551394117 12.612012252080433
Al 10.452944253241979 13.935656345671632 10.135051230899883
Al 9.61265533211796 11.631198538274475 11.554197853593072
Al 11.845025315574146 12.954588527592575 12.133933251831458
Al 11.156287529841624 11.074054096826016 13.809290776691356
