16
Energy = -45.59947048 eV
Al 8.977981838747953 12.808101708809593 13.917730406100901
Al 8.28082921480566 7.948965146991777 9.055647400965823
Al 9.912811783521805 9.161197192889443 10.886759802445415
Al 10.685698545358722 13.200894033697603 11.854982366237756
Al 8.573686994013194 11.64719642557149 11.44293044432458
Al 11.541914506743334 12.069460890208516 14.223100271018781
Al 10.834458526595498 11.63736559712034 9.642086629722035
Al 13.666381037479509 11.380230883155168 10.164635330250258
Al 12.419404224082594 9.269043810521243 9.419124859009251
Al 13.353619609689042 12.694164266253614 12.476021704422113
Al 9.781485944350793 10.203713964832584 13.361102986237759
Al 12.026592578818448 10.436326528781784 11.995956695138666
Al 12.541949060393089 13.80230774174653 10.057640287951
Al 10.22930148671229 9.735377892151568 7.887435934570828
Al 8.109479467156055 10.541352834541234 9.194678811368124
Al 10.78020888211698 7.316235259983299 8.968560172373767
