10
Energy = -22.58087652 eV
Al 16.511544138815996 13.305340840705531 14.590128842549573
Al 13.921012044406133 12.724973219297521 14.888109641895065
Al 15.403684931437713 11.830746153608198 12.772199706115178
Al 17.362608388656483 15.341722831094625 12.953905862041525
Al 5.175370278471184 13.488772821690059 13.934817367612881
Al 17.834418745149787 12.879630207810381 12.20477891745808
Al 14.795831045436344 15.048028736192267 13.736910782722665
Al 15.370339041996308 14.026543266732705 11.455358931130084
Al 12.961332588289904 13.272327683166584 12.524284435646273
Al 4.009355156956102 11.295928572921133 14.075020210614968
