11
Energy = -30.06944868 eV
Al 10.682689990018575 10.303642930557439 9.718299584951545
Al 10.033187186187327 10.380928722479192 6.86743096657457
Al 11.579116546169141 8.51660319604348 7.836340079690777
Al 9.536514992159853 9.42948601187266 12.047355758869235
Al 10.031085674806466 7.729463859021668 9.949624843663091
Al 9.294382358636776 7.454339425885047 7.145095499101031
Al 9.034335018380082 12.163885531299096 8.499628541786947
Al 7.638933575948303 6.683510360262236 9.014799765365472
Al 8.278773610335525 9.437187515544347 8.732550983906735
Al 7.3966362903619345 8.306667280002298 11.053794049083479
Al 8.139612636106948 11.239553046143731 10.78034780611844
