14
Energy = -39.93299404 eV
Al 10.45888412472449 12.690099158010705 9.971876493248653
Al 11.950403005194238 10.787494055970543 8.58412352357202
Al 10.583453376284979 10.263190559651918 10.967645125918715
Al 9.168398798774575 10.938412397631675 8.492721835191913
Al 8.108170433226348 11.551531095722154 10.986453470911679
Al 12.609471967214715 8.716032681460987 10.337728934544971
Al 8.78334999840647 9.475130819105157 12.712067573794213
Al 10.389567313369191 9.758852721403064 6.495078865313393
Al 10.569964245646869 8.37458686259183 8.71989140069203
Al 10.299323329312507 7.53041404133275 11.37562152875746
Al 8.12029857502812 8.852879179230293 10.25091671614858
Al 6.6089417662183765 10.504750537370485 8.87873086215971
Al 8.07442442303772 8.567295759206496 7.4892564497560965
Al 8.801102275498408 6.51508376324922 9.263640851927427
