15
Energy = -42.02256278 eV
Al 13.518946094460969 10.254952524906427 11.945937129558448
Al 11.433469238046579 11.867523737255583 11.786309984949089
Al 10.900051477787523 9.231977358241645 12.101268314311485
Al 12.956364230895614 7.968578668668525 10.911976495793374
Al 12.109810871276531 10.416311157226964 9.567947981179909
Al 10.767841221809013 6.627276984726406 11.164027541448636
Al 11.060379865279431 14.392695720807183 11.093579658829091
Al 10.451677912792707 8.40600716645906 9.271154031999199
Al 8.676521316907717 13.379271220204716 10.852667923943434
Al 9.197323100132134 10.647499887486378 10.73947240989428
Al 10.586903245448285 12.577987728211832 9.132172805469853
Al 8.52096502432566 7.948233444931326 11.09956715600061
Al 9.862613063120104 10.471411286545305 7.823936116032321
Al 7.643181562307579 11.932762758764271 8.954064321433593
Al 7.698165165250341 9.221203052817417 8.924739332836051
