18
Energy = -52.60709896 eV
Al 10.840616857040347 12.15348908420475 6.597321589452113
Al 11.820988086511218 10.411281670781188 8.302625938350271
Al 8.329837918572851 12.59331936267623 6.958946281941389
Al 9.93412979913896 12.25317845388016 9.184140048061295
Al 9.200108067170778 10.008579429169057 7.284593469787093
Al 10.46006998609909 7.990776153300828 8.342239929228771
Al 11.478274385632718 10.797360233250515 10.95784763440912
Al 12.858101075833684 8.380319486077179 9.660761672213734
Al 9.292193581917894 9.65976088332599 10.11626871418355
Al 9.57726267471677 10.08527444414222 12.794873359164237
Al 7.196450959533968 11.116613432821916 8.887787143618986
Al 11.822257578902228 5.955190477324979 9.824682412418133
Al 8.393569942760651 11.99927763159631 11.276060340433688
Al 9.189602813579649 6.540754496388545 10.19799234652801
Al 10.98107017798465 8.124539393615278 11.565993585220424
Al 6.761382348956864 9.794660282769394 11.133579865306755
Al 7.611442884237892 8.243151583446508 8.695832388808592
Al 8.262310826827028 7.905319562275209 12.180591363347098
