14
Energy = -37.60790645 eV
Al 8.638482 8.638482 10.774525955417056
Al 8.638482 10.774525955417056 8.638482
Al 6.502438044582943 8.638482 8.638482
Al 8.638482 8.638482 6.502438044582943
Al 10.774525955417056 8.638482 8.638482
Al 8.638482 6.502438044582943 8.638482
Al 6.792927086943521 6.792927086943521 10.484036913056478
Al 10.484036913056478 10.484036913056478 6.792927086943521
Al 10.484036913056478 6.792927086943521 6.792927086943521
Al 10.484036913056478 10.484036913056478 10.484036913056478
Al 6.792927086943521 10.484036913056478 10.484036913056478
Al 6.792927086943521 10.484036913056478 6.792927086943521
Al 6.792927086943521 6.792927086943521 6.792927086943521
Al 10.484036913056478 6.792927086943521 10.484036913056478
