19
Energy = -56.33610623 eV
Al 13.246674139456479 13.057300744416963 10.517413175175765
Al 11.310031287038727 12.420452636413904 8.936577310100843
Al 10.966874844758127 14.365630819197973 11.263670142484662
Al 12.963396548510168 10.330670968625679 10.260864039857099
Al 11.38700066964091 11.87439001739181 12.30999945840559
Al 11.40911690833535 9.932601422809606 7.937719404771159
Al 7.552619370850362 10.301824545590412 10.349731471278899
Al 11.494142542590533 7.978404935295513 9.890655544932669
Al 8.95247142068282 11.397519875357352 8.248693458078622
Al 14.216578753958482 11.522241387004135 12.519165260491246
Al 7.013030116437045 7.590028955122463 9.890716282489652
Al 9.324067937603504 6.222409529387306 9.559992283813544
Al 10.302387993676065 10.40941729521725 10.338269350847623
Al 9.097113577355108 8.757631972729758 8.538215764660393
Al 12.952267844408835 13.936143861535928 13.041586548044876
Al 11.51357701057696 9.190506294526383 12.384159272499835
Al 9.156418775324495 8.248184386056574 11.43563297430018
Al 8.96824348523049 12.69443943377489 10.751609166492123
Al 9.042708844137131 10.638922990118285 12.694051161846803
