13
Energy = -37.57260301 eV
Al 7.0640164765309335 10.7435732000773 9.380991562163244
Al 9.351835 7.206733742383507 7.808174449368813
Al 7.837907697101473 9.351835 7.091955180646346
Al 11.639653523469065 7.960096799922699 9.380991562163244
Al 9.351835 11.496936257616492 7.808174449368813
Al 10.865762302898526 9.351835 7.091955180646346
Al 9.351835 9.351835 9.341404864962362
Al 11.639653523469065 10.7435732000773 9.380991562163244
Al 9.351835 11.545546287029145 10.804897596190251
Al 9.351835 7.158123712970854 10.804897596190251
Al 7.0640164765309335 7.960096799922699 9.380991562163244
Al 7.925765535735352 9.351835 11.649214716986583
Al 10.777904464264648 9.351835 11.649214716986583
