10
Energy = -26.33089543 eV
Al 11.77093253085189 12.84311712572894 8.678411029447597
Al 8.33479678132326 9.28141012357478 8.783915654025815
Al 8.676723198380799 10.964141686538309 10.918662569620185
Al 10.10337588403855 7.165126422236057 8.488718841210567
Al 7.436562555580111 8.706691249776663 11.371524393458913
Al 10.176836841792767 8.673008032501688 10.815248901175206
Al 9.409626179890864 11.640536061256347 8.41460370765523
Al 11.347143703891376 11.00384561717557 10.555147688963537
Al 8.144350621135546 6.629836859790572 10.081074888368523
Al 11.05234072182592 9.544975840131883 8.345381344785379
