16
Energy = -45.17168163 eV
Al 9.448016581022854 9.338250345014593 12.744761412220818
Al 10.239317597280015 9.314203330029697 8.004629789643742
Al 9.718744275526813 11.125236710004012 10.468534691157004
Al 8.180136586847588 11.238393998451162 8.006214094323475
Al 10.450701860751037 8.389099474599623 10.467095750861548
Al 11.993239741495724 9.914090910920393 12.105782080163486
Al 7.994997667826315 9.160600784166663 9.528617792270678
Al 11.703559600884345 13.56816756110812 14.346319755009507
Al 10.678480926453874 11.183960244118936 14.114009852180285
Al 13.888649011855959 11.628989229160046 11.05930477594823
Al 10.67788257801408 11.938319482625879 7.938055507295369
Al 12.470675612478196 13.06700992107669 9.396657324316504
Al 11.374354265938162 12.756631514548753 11.793792347160286
Al 7.882606051558101 7.615645247452981 11.601099876004298
Al 12.23203941069699 10.265643354424816 9.466622937466552
Al 13.397799269842807 11.741152046070239 13.561215406613687
