15
Energy = -43.16710953 eV
Al 9.54019494734747 9.062750010513714 11.663898313878354
Al 10.018943429465999 11.414310549441124 10.665418833249548
Al 7.567919951988434 10.436788900961824 9.894866889184147
Al 7.480498052541067 7.812301608390645 10.358918637290229
Al 10.114565080198078 6.83845880298895 10.378385847167705
Al 9.883635225808005 9.149924898831346 9.02061157471964
Al 9.652179789621286 11.654319225112625 8.096407498172718
Al 8.099466355617404 5.483992054628757 6.35050706876064
Al 8.38064993579396 8.007778448019542 5.66010975153389
Al 7.585967990777475 10.051294852485809 7.2542770420928075
Al 6.7750571627978395 7.553125442398099 7.797183744016243
Al 8.242684903045044 5.58605510029409 8.978877566390311
Al 10.147894935493266 7.0751133806607776 7.579894435461116
Al 10.269222736273415 9.683461729446886 6.433289184672355
Al 5.381352482467028 9.330557975061582 9.007586592645634
