11
Energy = -27.23517516 eV
Al 11.772864362794573 8.394509467418757 9.703957129676985
Al 9.46205949691915 9.461821640021999 9.4600297727153
Al 9.27339310547559 7.050737399887821 8.64135394094901
Al 9.200632870707484 11.871620617069079 8.65048998424965
Al 7.4464576579904795 9.520581633994503 7.894416517354769
Al 7.150733974854375 7.947775076560292 10.108010249173024
Al 11.775833503133601 10.975218863608518 8.810319523813135
Al 10.369319155499062 9.408849467673509 7.073247351879514
Al 7.617156374154731 10.529416119984083 10.870528407145049
Al 10.604933421478624 10.85619829324323 11.275627283956192
Al 9.4273274592337 8.083983185020395 11.61273064796643
