16
Energy = -44.55275174 eV
Al 9.595661222527703 9.595617868628707 9.82546314598441
Al 8.215628147739372 10.410638172937245 12.093068431599198
Al 9.580207231364001 7.993185449243906 12.093037120072552
Al 10.991399498741089 10.383663792780869 12.092883354555939
Al 9.64747169609992 12.210811018250565 10.44964868766128
Al 7.38976791529131 11.073866045723456 9.350707513267743
Al 7.305087725836511 8.33305691925886 10.450219711927893
Al 9.417491800126914 6.946229934474154 9.350311216538037
Al 11.834371456268666 8.242962035081257 10.449865701287692
Al 11.979076057606344 10.76609852236943 9.350340565021376
Al 9.552037626779835 11.19146951598617 7.585005874208358
Al 8.23476696307886 8.760275812299604 7.585144754482778
Al 10.999477966246337 8.835025500809547 7.585009495825775
Al 11.131661724994013 13.112257395238014 8.422284422176425
Al 11.872953363041685 6.506766297933283 8.422639902162269
Al 5.781587204257439 9.166723319227925 8.423017703471539
