11
Energy = -29.63052335 eV
Al 9.948495563707507 11.53666246551331 9.23421256964955
Al 7.46241473046361 10.21294933145303 9.198159883192396
Al 11.729838892913241 10.002856962176502 8.219143473529856
Al 8.61018462377282 11.405271050931484 11.322206923922307
Al 9.26482376180649 9.8700016169735 7.22979430191808
Al 7.622432390140007 9.1130599697321 11.849205453618204
Al 8.149955560638512 7.555875854390864 8.031737416013735
Al 12.017663945192947 7.708253631793639 9.414972021782921
Al 9.676877006163037 8.824121624593863 9.985985766762443
Al 10.616845652254735 7.57922354782245 7.226799776167281
Al 6.538229063445787 7.829485135118079 9.925543603942451
