15
Energy = -42.68035359 eV
Al 12.812367814080993 8.408752127945151 9.92772104026791
Al 11.097950221808725 6.6249769795881015 10.36796613602577
Al 10.904001526832204 8.336210232768686 7.981891141283099
Al 10.072255629624864 9.268022058327112 10.488122909858033
Al 12.061916957988805 10.69598321712289 9.07388035020454
Al 8.761668186114475 7.03894952850584 8.915376682501522
Al 10.588518411889924 10.896594480640609 6.763747862954276
Al 8.944326616500293 6.9634255939770275 11.68735139778512
Al 7.314326395563173 8.895470984171565 10.182983772064608
Al 8.404420034453716 12.3043847593899 7.000396433453357
Al 8.578012844164926 9.601555234391268 7.966087685469921
Al 8.216198460500065 9.124141039092542 12.745374555450741
Al 9.73328167293385 11.846089106206255 9.282450957821322
Al 8.297298078351508 11.283511354083478 11.385506619244662
Al 6.952047320228077 11.46165272881236 8.996552056298125
