15
Energy = -43.58129905 eV
Al 11.776107951312436 8.659928355369976 11.126928242925864
Al 11.894977954627427 10.339238110269493 8.957917615495084
Al 9.193981362578352 8.05138273422148 6.242860115008713
Al 9.236383193342492 7.420995520390495 11.213140672508825
Al 9.869569582938855 9.701256936124212 12.827041650314928
Al 11.426437032971732 11.414859119733222 11.42230732107122
Al 11.758312739355743 8.903126670087842 6.543690751676734
Al 9.519517211528493 10.471456767030766 7.629538868459313
Al 10.55972206295882 7.848617839934354 8.842381271458953
Al 9.845874365473264 12.459501744946797 9.504480249257536
Al 8.290382109505327 11.605048452640968 11.754188789801415
Al 9.573598712453803 9.885777323442552 10.207035446684635
Al 7.192266915813507 9.17940973903384 11.241026414169736
Al 7.899827977314377 8.422830790301944 8.713177631401456
Al 7.391770725582476 11.076546087271224 9.201405155309642
