12
Energy = -32.47845523 eV
Al 9.981663811959963 9.284330040110856 6.168149838906136
Al 12.390039520749532 8.926964233768901 7.269926565621254
Al 10.288720034658946 7.516767260483986 8.238100865166903
Al 8.517320103985817 11.655628706916943 9.640701364795152
Al 10.581578555171786 10.409836031206474 8.526725086556926
Al 8.142387766672798 9.206141793803065 8.114274772792182
Al 9.084494071342522 8.095784319287537 10.424333680626365
Al 7.025857462692116 9.759575475588312 10.53367421851519
Al 12.021520819197391 8.582077017401215 9.950067497089622
Al 8.218628416107217 11.920794105486104 12.208935315056303
Al 10.372715906166544 10.369471899149557 11.207660551198897
Al 8.493482325637503 9.373480247467274 12.77634668701599
