19
Energy = -55.7593514 eV
Al 9.98586445340534 8.415156431372072 12.939579858266374
Al 8.169130919144497 7.853959889242909 11.25024201215423
Al 10.110723719231274 10.645462962892807 7.975932369140754
Al 14.520681029235016 9.922624969637845 10.816548443359286
Al 7.471271897323107 10.59726909570956 7.469978502005164
Al 11.557858931291593 13.35662400829957 13.740067117481432
Al 8.87518481215439 8.392778604298755 8.660769239520954
Al 12.204621760807797 9.941728165690966 9.48764261166765
Al 10.780166623281255 7.6205195103982355 10.369128891100717
Al 8.426036592688456 12.25589270450414 9.540201606032742
Al 9.818593038756497 10.222852204438324 10.888236011426418
Al 12.59799384409298 11.57355102388317 11.944619933763493
Al 13.890345095512691 12.249238037448183 9.764757566890356
Al 7.142785651628668 9.921816195686045 10.07504687792597
Al 9.857705171090448 12.81941163811468 11.757802160722411
Al 12.476072805982701 8.975684131717179 12.18425423522866
Al 11.186315374386092 12.52594415827717 9.428932572912942
Al 10.738072474151405 10.822150435091633 13.618784076468028
Al 12.380594628745511 14.116490482125089 11.272210536095503
