18
Energy = -51.70292234 eV
Al 11.595781846937157 15.00124017370852 9.46574032083024
Al 12.522926474992959 8.225648823425558 12.893374437166695
Al 10.776268316009695 8.729409586907176 11.016630947536562
Al 12.222332448370894 12.498384776624675 10.614013690853085
Al 9.679740367455668 11.249277157950019 11.099811574805685
Al 12.55713237448203 14.933937698543776 11.851565687833459
Al 9.287543462846852 14.882687614515872 8.210468864087016
Al 13.39002648815232 10.015801363891667 10.788389250541718
Al 10.695234748651332 13.24627763639485 13.026045689179657
Al 11.603167941869117 10.738199062012251 12.79671546362301
Al 14.317867701075714 11.699767779777368 15.445533488126731
Al 9.561470019702051 13.941507778434364 10.820381623852576
Al 13.608046562293191 12.903524859837189 13.058859749269027
Al 10.14749383447615 12.446631828715649 8.608367027629082
Al 11.498195345934494 10.3272934500917 9.0439704806218
Al 11.735464755924802 12.121575792006933 15.128070604869762
Al 14.365956075984235 10.348606470722707 13.179450065094507
Al 12.605498479438126 9.583987296017868 15.094123963660234
