12
Energy = -32.87010424 eV
Al 12.435206207375714 11.663431255261207 11.666385539151586
Al 10.983030632807369 10.69214281765423 13.577037322644872
Al 11.43479826193048 9.110133395403519 11.33594997238073
Al 9.652671120083628 11.09191387638706 11.377309023797853
Al 9.287866371452303 8.802284675600092 13.057659737618533
Al 8.794420314617307 8.459872569961915 10.56124522107257
Al 10.886339010194735 8.538585997219414 8.903725425278742
Al 11.661396350996172 11.058941301897004 9.296014856712125
Al 8.722238489379446 11.015557505623057 9.103394574610228
Al 10.330191040799841 10.408904526652915 7.019240324042936
Al 8.372163045484301 8.631300172016706 7.883953606698693
Al 7.74800303906801 10.835255790512473 6.52640828018044
