18
Energy = -53.13914933 eV
Al 9.259850920879593 9.621390588259988 14.137200974473487
Al 8.297571880347624 7.5560541754760715 13.15997205320062
Al 10.515109964152819 11.373933018334332 12.8082998618343
Al 8.79806564822832 12.452565924012285 10.960155056843359
Al 8.198283333243745 9.746619891162192 11.492042677641791
Al 8.079517173451105 6.452797798953669 10.821999064721158
Al 10.593226648121275 8.412077493862157 11.89689432422861
Al 11.658010274566175 12.856551366209176 10.89354690969046
Al 12.706230029343397 10.248316101706463 11.587839213105452
Al 10.433389048067788 10.494823366121999 10.250243531626818
Al 9.310132958382662 8.242254247574097 9.355343320830936
Al 12.69466242273537 11.043538670753525 8.992092514811738
Al 8.12409549868676 10.684611813169507 8.926002530195223
Al 12.615529878771621 13.787649879378124 8.242540432908333
Al 12.037956833593515 8.475474583412666 9.562451488068517
Al 10.089379449545882 12.513550589349597 8.570432718911045
Al 10.502430725894445 9.867859513042749 7.6050209510996405
Al 11.84676752821113 11.930141195444344 6.498132592031898
