13
Energy = -34.84013311 eV
Al 7.510739572974533 8.114206973040481 6.409454098116373
Al 7.929803691505656 8.062600005316177 8.983885395250594
Al 8.314981350407276 8.109697968871616 11.650866054082103
Al 10.05115237250721 8.159395726574662 7.317512764155192
Al 10.522796274839598 8.109435382111549 10.050118731786409
Al 10.76057049587571 8.126252398458385 12.673651333834982
Al 7.493647979109192 10.724316705086734 6.415231329135223
Al 7.912368147146928 10.77423262472955 8.989633068570999
Al 8.298876974850508 10.718761372140905 11.656083778820827
Al 10.034632631709515 10.70833821895821 7.32281866763345
Al 10.506276167927718 10.751987856349725 10.055535438252337
Al 10.744779551598757 10.729486735749678 12.679129732258826
Al 12.454475861114933 9.446389175748191 8.331180464967758
