16
Energy = -46.54565755 eV
Al 11.806338412934215 12.167621779711004 9.065257687548225
Al 10.340125353522097 7.112585777172323 8.589047675912049
Al 8.535810284968814 7.734733155561002 10.408427195635678
Al 9.626457224213071 11.488366180432147 7.34043841454882
Al 11.064718615907626 9.615147987447621 9.11392096860616
Al 10.474457276351776 8.852709327116735 6.6482704994008985
Al 7.217027874310917 8.65754720761831 12.5800037237203
Al 9.480924582812573 7.3898095564798485 13.090073121613855
Al 11.248829464395028 8.056148314464957 11.130709067400343
Al 11.867421802707938 10.847384265870458 11.320753768117784
Al 12.215828363962997 10.788044805477462 6.879210257715113
Al 9.385562833955372 11.722994998102074 10.116511118736485
Al 8.352757268846737 9.172209672145604 8.267169089873168
Al 7.1240813601161745 10.223536875918278 10.490591351000967
Al 9.477526687943149 10.060815648973463 12.094562715379043
Al 7.318276251252051 11.646488105708293 8.401197002990822
