16
Energy = -44.92485461 eV
Al 13.238117432890526 9.342952079152727 10.357577715893012
Al 13.652364842403355 10.662597431806814 12.554157778082434
Al 11.71196151702774 11.673556317359886 10.538178668676075
Al 11.564119151549177 9.803478362868141 8.347213283714128
Al 9.509916462818085 10.123303599944299 6.350937362263121
Al 10.891267198986254 8.062080231189732 10.42204123045604
Al 11.129455871428457 9.933526779524948 12.538334560723207
Al 10.189912065296793 12.133713477764921 8.140089023209466
Al 8.40925051444521 6.800343874335023 10.238309630847057
Al 9.381165177816463 13.09876442501005 10.408895579720786
Al 9.435258803487134 10.361432358848464 10.011688166936127
Al 9.164545804123629 8.352489985971058 8.236724091845822
Al 7.635577405876144 10.903788079674687 8.077433844725832
Al 7.021950778794771 9.226808190162767 10.018539780055848
Al 8.759332302240653 8.795559065006637 12.019317936299341
Al 8.855894315320535 11.461076698150318 12.396509140867852
