15
Energy = -43.50998076 eV
Al 9.89362934886871 11.516227598738702 8.219858529927418
Al 11.500857598003323 12.349358023837247 10.189337420071835
Al 8.596508099668572 12.765694276376562 10.2062218574847
Al 7.348398936598132 10.592698515368761 9.333007019969438
Al 11.203594604347584 9.968016128394119 6.487866841355667
Al 9.570354041782867 10.401747482739616 10.89015498486332
Al 10.146496957835028 12.602731274249326 12.374880193645833
Al 11.765158456816128 7.779065110468893 7.77028854085469
Al 10.101824784793843 10.498417376485733 13.786597447328093
Al 12.017280571291309 10.13846780643553 11.846526829507077
Al 12.139074108851418 10.089814619402919 9.105103615563076
Al 9.358396725903104 8.8656800149428 8.444524255228789
Al 7.8583209964523935 8.38008735886995 10.631726926527028
Al 11.055528778032345 8.007319324138017 10.393312308313178
Al 9.692733951546444 8.29283305034288 12.568751190150765
