16
Energy = -44.67021767 eV
Al 11.04381200181664 8.547519530275064 9.735950546521247
Al 11.469928944520538 7.330991386471902 12.207447834994232
Al 13.076769704587672 10.106392235593287 9.148672203337613
Al 9.86518639885099 9.60910124485023 12.161821633844154
Al 8.316652848088737 11.68419403863862 11.22910815047666
Al 12.164072232853048 13.255046468363183 8.641167505111069
Al 10.646319163232809 11.274601412035596 9.865472246275909
Al 10.985834310851814 11.907784953263786 12.698141660022099
Al 10.636790490229682 13.884335675126444 10.66485969249056
Al 8.586511611831982 9.581504639442063 9.554654936749062
Al 9.03107430250666 7.288238081509026 11.180101276551618
Al 9.103674483984095 13.726490159547183 12.795327087681157
Al 7.138841431081044 9.273591346322624 11.853207405628696
Al 14.554408215140542 12.228878575874521 8.713538456002894
Al 13.033736017069335 12.191011560471777 11.006635641136448
Al 12.4994611253891 9.744434125339694 11.842633643694304
