19
Energy = -56.04452588 eV
Al 10.218611711427501 7.101924756453198 7.934687930927905
Al 9.923549010629028 9.503916331642833 6.820002041151072
Al 6.919023868022476 9.142558857874269 7.722938551489863
Al 7.693486967255233 6.778228042817964 8.522715047992465
Al 11.875590449103619 9.225931281725497 8.683292837736717
Al 8.19078129351907 11.439426376221423 7.165534848064124
Al 9.20889248478372 6.911548213622036 10.681201179113993
Al 9.032570202527024 9.257046293149667 12.144914009556498
Al 11.262633191499317 7.934138004355557 12.203835320125812
Al 13.43005074598703 8.83301566180472 10.927557543059546
Al 11.307788802523918 10.583864531173896 11.052292364962709
Al 8.722073681007634 11.590966051676117 11.155772040491238
Al 11.953962199236788 6.788025283365027 9.875494447423756
Al 6.694772018557785 11.156950953978024 9.485104565568088
Al 6.96766767974752 8.740547177508494 10.578852337704273
Al 8.538259620057492 13.302547346506737 9.082057963817437
Al 9.186424606950983 9.36885451232465 9.375306970831204
Al 10.731977030354365 13.288731956077994 10.589650096540137
Al 10.645325227311359 11.571328754306473 8.495648588815172
