10
Energy = -25.68103836 eV
Al 9.9611193179041 12.013069430057952 8.241428376859746
Al 7.451801761954021 11.855971446818618 8.289475786025982
Al 8.988376303801413 9.548322887618538 7.876216088499476
Al 10.751769184836409 7.587965004517869 7.994230321359278
Al 11.625875895724281 10.009743474575815 8.048332236069328
Al 9.06132177006504 7.913045111805388 9.991870946789115
Al 11.70624413284914 8.282406380091963 10.286321501978362
Al 8.293314638327043 10.55457523331902 10.368495726271846
Al 7.584431386728005 8.841868259563686 12.184134331033153
Al 10.099808706440102 8.917095870260567 12.243557783743272
