13
Energy = -35.74497882 eV
Al 13.434781900747245 10.678686289865134 10.92458320649788
Al 13.468311994950874 8.981548811547729 8.770692094429169
Al 11.671319243274809 11.061633378783105 8.857426579795993
Al 10.733350124333693 11.468444629796714 11.335661902887137
Al 11.379842365183773 8.812099077039154 10.639881516878404
Al 10.725022879325953 8.748698788926685 7.912129656903581
Al 9.182057353425758 10.489671676728783 9.339878352620413
Al 9.16884955221212 7.694382385161432 9.760400497638756
Al 9.177218635180441 9.415374885049554 11.939849863710407
Al 7.753441777250689 11.613119806273312 11.31021515248955
Al 7.750359358146649 8.859145386470322 7.790542986059931
Al 6.507238368751831 11.082350385687707 8.895258945674726
Al 7.027482012186772 9.040457378076981 10.48137162592334
