18
Energy = -53.06100313 eV
Al 11.774313401941036 10.210398752872148 5.995209994109598
Al 10.37351422287601 11.708045355053823 7.756322742601924
Al 8.693634118701468 10.157261812419392 9.374410096247008
Al 10.952214778801379 8.934589137601732 8.256115423276928
Al 9.34371313891652 12.793824206146493 10.132639530873112
Al 13.047858409248297 10.949064435854797 8.275381415593323
Al 11.992001549631134 13.237306836387082 9.546501063384417
Al 11.114418811211685 10.82186881103096 10.258472456042982
Al 9.023754250897822 10.794628838986323 11.956361264178216
Al 13.002682762194217 8.906440835879218 10.148374702693944
Al 8.840768916555714 12.895097475121986 13.733874008987067
Al 10.33323170991087 8.416100787509393 10.916825741609948
Al 9.88816495218821 8.82801087039464 13.669678148752705
Al 13.63496135558933 11.529822127885595 10.877956743894089
Al 8.064229376029774 10.497124138403395 14.607331347776807
Al 10.811972628276004 11.228462047121942 14.354769861562072
Al 12.230867213040847 9.93222052596442 12.51374568884778
Al 11.386790586995403 12.668825188372685 12.135121952573497
