18
Energy = -52.5380301 eV
Al 10.866254842325336 11.302432386354148 7.5742612293482505
Al 12.739488863752326 11.782247570220045 9.941560814103985
Al 12.6249910913907 9.148950406530588 9.795210445816346
Al 10.702884416226066 13.38464352492579 9.31022974295004
Al 11.374703420125016 6.424553196269322 9.124606108825283
Al 8.427917377065793 12.294351597585598 8.58860850674878
Al 10.788766485852351 8.758362612157688 7.812124331639403
Al 8.298872929560345 9.731243166056894 8.289786269404974
Al 10.145201561222674 10.717877319338191 10.053296041335313
Al 11.227482503203749 12.823290066917574 12.02917445879845
Al 8.81384504209938 7.113181660028482 8.360614119981223
Al 10.371902930538749 8.169588404530597 10.914054414372568
Al 7.01795973873407 10.812372512685604 10.573647819955147
Al 8.71329005006207 12.804687308932671 11.258675426416598
Al 11.697137113562775 10.155289318280175 12.213084192209287
Al 9.0806294736132 5.899202749374217 10.747327210931276
Al 7.693035416477183 8.199328343794816 10.62736785730006
Al 9.015544898362961 10.09903214389695 12.38393812473814
