13
Energy = -35.27909775 eV
Al 9.8430695 12.529049749658046 12.67716829020102
Al 8.491559597626456 8.49634459262837 10.71982021077471
Al 8.491559597626456 11.18979440737163 10.71982021077471
Al 8.518732659913281 9.8430695 8.429302003265864
Al 9.8430695 12.228443377848809 8.667406412614575
Al 11.194579402373547 11.18979440737163 10.71982021077471
Al 11.194579402373547 8.49634459262837 10.71982021077471
Al 11.167406340086718 9.8430695 8.429302003265864
Al 9.8430695 9.8430695 12.877783740839808
Al 9.8430695 7.157089250341953 12.67716829020102
Al 9.8430695 8.555571181276509 6.327542739082504
Al 9.8430695 7.457695622151193 8.667406412614575
Al 9.8430695 11.130567818723492 6.327542739082504
