16
Energy = -46.65387672 eV
Al 8.731537873878526 11.802737772326008 8.118668313939535
Al 7.264430232743504 9.715328010583919 9.438482698663734
Al 11.127417358664031 10.874638267259753 7.199402701576873
Al 12.613444603513393 9.737622841458565 9.207265162065923
Al 9.946775980637574 9.799783453174564 9.429828905648673
Al 8.665644174015343 11.613817201875332 10.855226673204863
Al 11.884550933280053 11.335628190802224 14.254205699942323
Al 10.97143652002949 8.087393849580536 7.721744628444182
Al 11.476538879579598 10.044096296072558 11.636322874494537
Al 8.814029609350374 8.85331007189202 11.620087755369978
Al 11.13625183295925 7.632157565210736 10.453694636748377
Al 9.51278605293483 10.682808349727328 13.470538070641883
Al 11.152539060358063 12.146143873186379 9.605518956636386
Al 11.014429890890051 12.703168291782445 12.239189503322008
Al 8.66439802205739 7.370928335599857 9.321656273791799
Al 8.647913841760502 9.224562496120754 7.052292012161768
