19
Energy = -55.56321694 eV
Al 8.79136212353299 8.176213206741393 9.237126448469128
Al 12.874247542773515 9.85927232982925 8.45184903395908
Al 10.14521490061333 13.144847225407235 11.663527862942008
Al 11.606868184791217 11.895436115643351 9.611958241309575
Al 12.302645821602438 9.299725691095592 10.960466480130862
Al 11.76100831853887 13.555281771433618 13.696438313814248
Al 11.066282064850549 9.007933906681519 13.39473284006224
Al 14.201210408382545 11.408835067984121 10.304354762669622
Al 10.7775647693923 14.563994659930298 9.478574005295606
Al 10.120937880489965 11.453354473075706 13.713288457114723
Al 10.132260449615728 10.17755227545741 8.348217269821722
Al 7.3888532636908115 10.409150984406224 9.628957012453208
Al 11.456727781703842 7.668538720355844 8.861860582839942
Al 10.273510998264634 7.500670763383879 11.357690626258806
Al 12.526990085932844 11.339186210175551 12.466304591956547
Al 12.801180666167308 13.716620132787476 11.118987247466608
Al 8.997038340972626 12.515618757365523 9.333900049162288
Al 9.686018970667678 10.428415546922851 11.213178097718327
Al 7.701655531574695 8.573606426543996 11.684816162076684
