17
Energy = -49.31460084 eV
Al 13.436485811365896 8.894693400987983 10.956007717033415
Al 9.74441750626669 11.937221882076821 12.992681487212957
Al 12.487796687332434 11.183217484596659 10.07092978807854
Al 11.78660815838474 13.038701823950664 8.307459395865102
Al 9.942479599335625 11.782648517367896 10.27695798683099
Al 11.180641827852568 9.991275875121683 12.251882406613232
Al 7.5068622307337085 12.35849830695158 11.92027580729489
Al 13.043837516797817 8.881613080506146 8.332513128991735
Al 7.273293365677375 12.003236885087512 9.400453027813697
Al 8.398444103780479 9.84842443530832 11.374797966176265
Al 11.816005683617128 7.175780861205264 11.925630824017613
Al 10.932396820669101 10.378393295859484 7.820485125927146
Al 10.672997668948716 8.768268422723729 9.9188850279815
Al 9.269433944238006 7.416221097871721 12.001619403453391
Al 8.43371077921061 9.79109956675291 8.593554700048038
Al 9.255407932887703 12.421162010762268 7.733042295521354
Al 8.241522979224815 7.443027863126545 9.6636390138372
