15
Energy = -43.7952815 eV
Al 7.269419127363517 8.534201014041713 6.227532609572597
Al 10.970503100494884 6.67442408230033 6.068214108769461
Al 8.350198576012383 10.903722704289057 7.28104595824508
Al 10.037071363225575 9.074115922287 6.307255800681064
Al 6.421379743191667 6.964238765150963 8.406922487329831
Al 8.647504015570266 6.23510555028364 7.117528950474576
Al 6.14018799603913 9.713644821095762 8.436232100922286
Al 8.560021846049024 8.567261609238184 8.566299728705406
Al 10.703233718412179 10.16942095919339 8.719106954655322
Al 10.984219777244821 7.4194393136843715 8.694277561807677
Al 8.485420766103418 10.901040568914587 10.010079114165885
Al 8.77517552697148 6.2204979837070375 9.842954033872113
Al 6.17098085002585 10.445953669217651 11.067830683614849
Al 7.096950046061974 8.045738473941295 10.826687147676337
Al 9.85924859377927 8.602709609200032 10.89954780605281
