10
Energy = -26.3434505 eV
Al 11.483026943626198 8.871202647621663 9.329214161171551
Al 9.724606728364876 8.05828017239925 7.504608817150711
Al 9.563442868341712 7.262539502719104 10.18727333004061
Al 9.627120422892562 10.650890357807512 8.741469498766204
Al 9.552834771879665 9.711721330873354 11.206846119655115
Al 7.538669398030308 6.554120545229734 8.385625862057525
Al 7.44702593059307 9.026139535526081 9.737813799314234
Al 7.627696750678541 9.998000414468356 7.056802365586173
Al 7.613959261259711 7.605951199135613 5.9483060609682825
Al 5.6962928552179894 8.379362897045233 7.850255455377579
