18
Energy = -52.52616867 eV
Al 12.913028031715655 9.242238843517475 10.69643860113842
Al 12.845039729484636 10.810932778785022 8.199131152481995
Al 10.83915156504938 10.016189137755735 6.396091708554072
Al 11.698418235294687 8.434875112961262 8.396850154381408
Al 9.310914029971684 7.858939898875232 7.3787587569248165
Al 10.44201968357464 12.333671968623769 7.751775334982463
Al 11.147141110235117 11.272676702655732 10.156914026379374
Al 10.2653999447887 9.599228521503756 11.966305360207576
Al 10.676630473295662 7.298573440425043 10.509885553909525
Al 8.957705650782561 9.207178892955964 9.621455744472291
Al 8.227065084295328 6.575854292234637 9.558295355142022
Al 8.438600186381903 7.462890231740575 12.217488001200369
Al 6.68983206342355 8.281863639084897 7.861374163000885
Al 8.58235075523716 11.833062533709876 9.85607872917364
Al 8.331419709550387 10.526986503921353 7.37349944936149
Al 7.595892500083893 10.12799550534631 11.785981350114161
Al 6.32267129855794 8.15925811340712 10.535687523620608
Al 6.2423568412102 10.583264952970787 9.31206201070754
