18
Energy = -53.14692659 eV
Al 10.737055168009915 7.219676006451436 10.396963295084207
Al 12.118201594861606 10.592903479985372 13.558526416496253
Al 12.127880216597266 9.422654465121198 10.972842168453381
Al 10.023744200648489 9.206199281740988 12.749097597210275
Al 7.23207900607355 7.988319116006308 9.67864524896382
Al 13.240456408719881 11.804701730591857 11.644342194465175
Al 11.487079851267687 9.217647562388377 8.45233335436097
Al 9.392777034731852 7.567099020320429 8.139264994767714
Al 6.920606102951264 8.452589894660356 6.9525864785576905
Al 12.280564536287258 11.698285950023203 9.213236481302546
Al 9.414141012711921 9.507710778233928 10.120483791831223
Al 7.243860879433824 10.570912291243909 8.853994738871634
Al 10.546180491741318 11.637040946018413 11.484610269070044
Al 7.619887297375759 8.564082954461927 12.120015337140332
Al 9.256289309731322 10.104216277704845 7.097974253766508
Al 11.373140404221 11.63066328243566 6.72551499417142
Al 9.580259646625308 11.963698932301089 9.044577036842455
Al 7.915337353594297 11.361138545894221 11.304531864227302
