13
Energy = -34.35804993 eV
Al 9.973716 11.767673514142603 11.97186038980374
Al 11.288576522928684 11.31174156257037 9.568929653832557
Al 11.896774631463874 9.973716 11.993333898123327
Al 7.623597700319111 9.973716 7.451422925961471
Al 8.050657368536127 9.973716 11.993333898123327
Al 8.658855477071318 8.63569043742963 9.568929653832557
Al 9.973716 8.601267610075672 7.208653925481938
Al 12.323834299680888 9.973716 7.451422925961471
Al 9.973716 8.179758485857398 11.97186038980374
Al 11.288576522928684 8.63569043742963 9.568929653832557
Al 8.658855477071318 11.31174156257037 9.568929653832557
Al 9.973716 11.346164389924327 7.208653925481938
Al 9.973716 9.973716 14.13204708019455
