13
Energy = -37.02373701 eV
Al 11.83067361487316 10.227636552473722 9.230118822804702
Al 10.10206152463312 10.637585617150547 7.163130025859337
Al 11.739738834621267 7.8433308334698255 10.27497018087872
Al 10.275750050742602 8.204217531084188 8.127121286664314
Al 9.56611851684836 11.71669761014855 9.567155182983752
Al 9.69780134927663 9.405756546561154 10.804809682179833
Al 8.330943829182193 6.517098725102799 7.598672561018933
Al 7.279404741686896 10.743516992985802 10.669995412605594
Al 7.5496174304639485 10.928037201387845 7.969890537276888
Al 9.199857737285686 6.774196761757741 10.20143831236179
Al 7.455476425934768 8.33421467775667 11.648269534914405
Al 8.215594194651269 8.822757879997617 6.390327861568709
Al 7.435635957825659 8.523627278148448 9.032774806908195
