16
Energy = -46.08344271 eV
Al 11.011958019479499 8.9174950350678 9.707862091203122
Al 13.410653295630022 13.292397643389737 11.057861360273169
Al 9.013257062318875 10.766692349762115 11.02909902155024
Al 10.061772755305313 11.379413486436063 8.654020419205116
Al 12.394386659553827 10.191561662810152 7.749533843503894
Al 8.383976245643145 9.0325760295398 9.02863037058557
Al 10.125557846720014 9.08825000726052 7.015876310594375
Al 11.304518871132325 9.517288577855611 12.326089219646063
Al 9.887085607689437 11.612522800744754 13.484253255066415
Al 12.77329632384554 10.682397208153677 10.448959877735104
Al 8.141499000582092 9.650594764348233 13.379158376847206
Al 12.45884630287753 12.708448775951457 8.65340281689668
Al 6.771245135865053 9.252237350933932 11.140669039125212
Al 9.25594076964387 8.05871711557704 11.524097200075312
Al 10.823404125186634 12.567967001551073 10.939684521924125
Al 12.45415631841623 11.917373214907334 13.050705924313712
