11
Energy = -29.35833509 eV
Al 7.598091997047073 7.517045437452861 11.436201116794477
Al 7.178418799738283 10.758955721344801 9.028264398902655
Al 9.297274920254576 11.191722217479315 7.433739168069598
Al 9.227037301375928 9.252547988367956 10.187623318542288
Al 8.614395047911467 8.531010160729375 7.703712055375232
Al 11.203998181029748 9.455075834235217 7.481366135522808
Al 11.808190901302687 10.094405395782266 9.960966398129662
Al 9.831732738301335 11.889058936567855 9.910634273161266
Al 8.574321960446179 6.399873049646628 9.276542026776172
Al 10.946362226049754 7.332475147872849 9.105131303805098
Al 6.458945926542974 8.316600182088502 9.214589661785253
