12
Energy = -31.44156787 eV
Al 8.596430525425754 11.253137967778855 9.208553659368253
Al 8.596430525425754 8.519787032221144 9.208553659368253
Al 8.44996790452599 9.8864625 11.466205409628097
Al 9.8864625 7.707524752464681 11.72954176013334
Al 11.176494474574241 8.519787032221144 9.208553659368253
Al 11.176494474574241 11.253137967778855 9.208553659368253
Al 11.322957095474004 9.8864625 11.466205409628097
Al 9.8864625 12.065400247535319 11.72954176013334
Al 9.8864625 12.559701380248251 7.210699928965822
Al 9.8864625 9.8864625 13.863697515175309
Al 9.8864625 9.8864625 7.126743624163081
Al 9.8864625 7.21322361975175 7.210699928965822
