23
Energy = -69.07550398 eV
Al 8.629530435567306 10.494623306634152 5.703651090043846
Al 11.081159470885428 9.82738684010658 6.61724179570012
Al 8.595577283714343 8.605387412292956 7.519137569732033
Al 9.064427376877878 8.527709898191693 12.839964793885049
Al 7.593553268724456 10.81922925386635 8.700417989896826
Al 12.89863078478176 9.447309978278415 8.750896433397225
Al 9.503614332569708 12.298718882256695 7.432318182860841
Al 12.0784788056821 12.062733461350742 7.936792872727606
Al 8.6177992219102 8.486240660100549 10.140825508578445
Al 7.896696563280492 10.938537713039768 11.295609926111698
Al 8.826998859033251 13.076159450985823 12.569384304235314
Al 9.928878760514714 12.738602729366184 10.063421184959372
Al 8.590133033807948 10.845980109939832 14.063583504090488
Al 10.853402826700236 7.625258791475525 8.523802344272209
Al 10.314897091636507 10.271148133191415 9.19880652292418
Al 11.231926590405953 8.357793456196491 11.00537961735655
Al 10.480889829118997 10.728345675094745 12.06925867311862
Al 11.162813193039593 11.065625492598457 14.753616199694688
Al 11.447581170751763 13.1887559922865 12.484310528746867
Al 12.474346781340794 11.639008015041904 10.47768921477238
Al 13.891582152404528 9.145573269598453 11.277199695735012
Al 11.699376144061782 8.710317370006933 13.579258033092813
Al 13.148458083857845 11.129832553097884 13.035580051624208
