25
Energy = -76.3997832 eV
Al 12.481464806708878 8.217283170121592 13.880300354094274
Al 11.146712247650196 6.23593311262768 12.662351148607932
Al 12.178320625915834 8.054136199660432 11.028597776491159
Al 13.524093729501649 10.161516585306353 12.010553065252836
Al 13.065959078222035 9.810548067647806 9.274268550679304
Al 13.286172005349144 12.403861270044276 10.164474907179025
Al 13.579834625130594 11.907873762410704 7.598475008225065
Al 9.978061635608091 8.70388429189006 12.801291042942847
Al 10.627859110827593 8.770960256676725 9.002424019910721
Al 9.556969294228484 6.972407482771384 10.653893453923562
Al 13.011345992925087 12.669419451750832 12.822486459130172
Al 11.449130650080887 10.431949392888164 7.102629809081561
Al 11.01704411790015 10.795076000093125 11.12722733396668
Al 11.38808223451417 10.662526049085267 13.942866497943951
Al 8.056522442313094 7.881686558917366 8.624867205408865
Al 11.117367192772358 13.625269516781392 11.143210871474936
Al 10.948120604272672 12.415945158873688 8.758515931481186
Al 8.683899090812583 10.430502584375851 8.056347901149538
Al 8.445893018525151 9.493887598334902 10.757605697146289
Al 8.331090023401801 13.017906510681446 7.673560839202321
Al 8.783069062358665 11.139055280827458 12.844017392203433
Al 10.494139323739812 13.102794863860217 13.683946603569789
Al 8.711507292608198 12.083712794309795 10.289888439016385
Al 8.547197968764063 14.033458036735102 12.197306771283518
Al 9.259672646370348 14.647934823829614 9.568421741136504
