28
Energy = -86.08351252 eV
Al 11.182515295255383 13.328930117749612 7.188348383994015
Al 10.847914978275995 10.605373753269957 6.8729567847367345
Al 9.02019658298613 12.21192258120538 8.565003496490464
Al 12.953411743312591 9.144218568634166 8.216325253859814
Al 9.788651898230233 14.677466340549525 9.079842840095965
Al 12.853719479747072 11.721128663587752 8.739107453421237
Al 12.673898373722121 14.307618474515992 9.223565922855295
Al 10.911643726809222 12.46490772366395 10.642712588725647
Al 8.320904779839474 9.744074410709056 7.997790675131289
Al 10.640701259868464 10.008498507437512 9.495504213794833
Al 8.537934511324753 13.63965600560212 11.35438989648085
Al 12.041810593797837 11.202906620670044 13.315976667475441
Al 11.215834894767369 15.257024511302376 11.19388950757492
Al 11.01524764852555 13.684908352792146 13.22081667480135
Al 13.005638393532395 10.383745881726249 10.953681064311043
Al 13.458430052429561 12.96854711543556 11.52096393821707
Al 13.00395038762311 8.761834736134142 13.143113855784724
Al 9.355362426965117 11.57524386219 13.208906011988713
Al 12.39341191690162 7.857816872024789 10.466547963080103
Al 8.34640917681446 11.027895534203516 10.776844809415515
Al 10.428696035365034 9.22173547719389 11.964666467195578
Al 10.341607002103988 9.175613060198353 14.630912845505373
Al 10.41596071845511 7.744358268735815 7.934532005328715
Al 11.371828155948718 6.786272250514194 12.894623152282174
Al 7.758331639093193 9.495543993940707 12.95293572510881
Al 10.127682703701241 6.5445515110505825 10.459111969446983
Al 8.3041936953813 8.429122076353735 10.288935492575106
Al 8.744427333808051 7.115422373005969 12.74493988745597
