29
Energy = -88.63339216 eV
Al 12.42598552343462 6.7372527405969205 11.301699287711378
Al 10.347208456848369 8.046356136885283 12.63301272890776
Al 12.658388618798462 9.306548320071851 11.83373944290189
Al 9.865433499018764 6.062392633700075 10.760520284676087
Al 11.386816898104332 11.094786519644657 10.045442233646096
Al 11.01757448466688 10.454591235330675 13.695855718194643
Al 13.027219578419174 11.872665860370098 12.227648779943534
Al 8.407895706195498 10.030183194611478 12.816594156844813
Al 11.707394448640564 6.204439424735689 8.599551658958235
Al 8.013153579091492 7.942891642164682 11.009134221893502
Al 13.254008566977348 8.421473926737608 9.24161022566126
Al 10.626106394494403 8.569207323080015 9.979298072829868
Al 11.79448223906736 12.889148041232714 14.480473227661024
Al 14.290230672543824 10.801447675828172 10.074839817244882
Al 12.360760984224587 14.486219328869504 12.28773613161804
Al 8.916478776903187 12.258312748503414 14.237987172825154
Al 8.646701221671469 7.938405837888358 8.230765946150788
Al 11.273743902070082 8.566538058148813 7.237405381704657
Al 13.106497787225985 13.172300816921679 9.763911035636832
Al 12.738903489179254 10.890574100354188 7.712104284568132
Al 9.997546250738992 14.770715416125238 13.783844325746827
Al 10.344751137399715 12.585578889238745 11.980687117132343
Al 8.434731452010812 10.355397165741481 10.086056648010924
Al 7.5772128632931475 12.41385103239489 11.713194302268116
Al 10.9681670520915 14.862446072721452 9.878606037748517
Al 11.188545564156012 13.04535832940921 7.793501738447994
Al 8.755078607779268 14.771356656816625 11.404433605331338
Al 9.823131647033735 10.714171926348945 7.827317982444702
Al 9.151185157158885 12.825549937833905 9.47854239014804
