21
Energy = -62.15386122 eV
Al 12.140868738824748 9.892996069267362 7.091566770429906
Al 13.147250962850164 8.00981134364741 8.694492471703485
Al 11.131219101832645 12.118867593515159 8.186423335129401
Al 13.277905212477572 10.696401914132434 9.70803959178437
Al 9.803567119432815 7.553353250931578 7.688264871237771
Al 12.656312925956701 8.519002380973623 11.34119390409075
Al 12.096719893879962 12.96344756378886 10.55243505097079
Al 9.35571233473983 10.255603258175269 7.420786003716235
Al 11.153962081229023 6.7196179312326745 10.04999847763995
Al 10.838188906645197 9.417192379901973 9.479617228733407
Al 8.49254618806633 6.706485610753033 10.224390023532344
Al 9.93791502659755 8.42399766400808 11.857335570285533
Al 9.66209866592287 14.010691819096326 9.645204326276568
Al 7.982335369276233 9.101793299238599 9.330932187712113
Al 11.3709616590934 10.69314104420832 11.900508901513092
Al 10.086838227052883 12.98188230686048 12.261565369793056
Al 9.18722573730277 11.415585340960432 9.993448512669096
Al 7.179864813874156 8.322025088462578 11.94828383507864
Al 7.587365393404544 13.160549304590761 11.354640050286905
Al 8.685301204295865 10.657548214567717 12.688708226394562
Al 6.572806872183728 10.732440533137638 10.923283611461674
