28
Energy = -85.60740582 eV
Al 11.37988968485121 13.580655938775783 13.456663716418579
Al 9.814559623476217 11.321345717630095 13.844608242843206
Al 14.019515038951347 13.318289006390982 13.16030669362879
Al 10.722915550661073 8.80846159718027 13.345131702991898
Al 15.171978028826453 10.920109199818889 12.89890729457939
Al 13.474923379205535 8.831797951585017 13.102558446696587
Al 12.481496035453556 13.552452853731024 10.871389732415784
Al 9.983542095599478 12.444552403043762 11.4213009017726
Al 15.049203378751638 12.625517040758488 10.680874586902913
Al 9.420743558820803 9.947632515855503 11.159785436938272
Al 14.13413431695624 10.076613164295258 10.527587751267209
Al 11.942766516346321 8.414698904627567 10.915619807386156
Al 10.7660882861882 13.36803537650225 8.84433295828448
Al 13.475400796278846 12.215357513493279 8.529559020634295
Al 9.118882127465428 11.181427338801278 8.631679843104212
Al 10.385045522455647 8.651060573162589 8.715364872036096
Al 12.99441645825214 9.182659991775427 8.321095409254388
Al 12.245918559187531 10.602791661635571 14.958676837216347
Al 12.35659943641472 11.195101496511807 12.366298039986775
Al 11.572711539180771 10.9445537521134 9.85336208436237
Al 11.380888442509175 11.165080512044977 7.146705789854045
Al 10.069305829035963 15.027008802428657 11.028038570129645
Al 7.970730349113029 13.486854292616053 10.011468152488243
Al 7.58226089774425 11.513482280918383 12.447495845039017
Al 6.798081700648993 11.023593417505051 9.934367244443623
Al 6.962402235990348 8.871522323492592 11.759217364503094
Al 7.8176406294279435 8.626497916357998 9.17569434837793
Al 9.40301290274987 7.364749363517657 11.43423390560254
