28
Energy = -86.33440221 eV
Al 12.282503393953332 9.798234753952443 6.344737861770731
Al 9.894619711544296 13.685020420115277 8.308342982584733
Al 11.804205929787997 15.269112902504533 9.194564968905674
Al 10.4982932324453 11.081303993865474 8.070371321023362
Al 13.287045248498684 11.480066519350602 8.254271809933078
Al 10.313440291038944 8.370305736500537 7.56925623694021
Al 12.43561521244067 8.977280203743772 9.008259968683264
Al 8.886221307595708 12.097895483887518 10.166862653880033
Al 12.779933355437292 14.720021262404323 11.510811185837097
Al 9.930377328416302 14.48118086275589 11.102427202411993
Al 8.533406489991124 9.580518282286205 9.350676926646576
Al 8.19335080142062 6.958017069613944 8.621478765160612
Al 14.431364214690843 12.921646944855995 10.286619778397247
Al 11.67179512807866 12.561661345981273 10.16513298371572
Al 13.462911826881768 10.517071935793263 10.955705101449496
Al 10.748183621391833 10.06285812468164 10.882009008980981
Al 10.436903298154856 7.458904839476142 10.122184559316983
Al 12.614148577483316 8.008493985325899 11.599277779987888
Al 13.005527127312536 12.383620911355164 12.777112517619493
Al 10.083701079429687 12.151191302289677 12.595441646527906
Al 7.971904611933754 7.645320346593751 11.251724118625981
Al 8.1863545166439 10.25091316720221 12.013272777227238
Al 11.270284301061784 14.381844537754304 13.709474448050175
Al 11.94749462897533 9.979471533839718 13.31714317295701
Al 10.164676328581427 8.05920115815582 12.809846835743917
Al 11.420999888838525 11.986202754032279 15.009441772752796
Al 9.446935991694875 10.22987006109582 14.432648489542396
Al 7.628468959083339 8.233435963392335 13.901569528133969
