25
Energy = -76.36501992 eV
Al 6.762560643673216 9.72476655027479 10.352706805498093
Al 8.691705730003818 8.266580837142069 11.136948971188701
Al 7.462430435375539 13.52438247130259 8.295472154177686
Al 7.2302798408082705 12.513708685493066 10.753724746687464
Al 10.74532058291148 6.981845948899325 12.008976173906168
Al 10.477381808951694 7.355618375507479 9.12080145763026
Al 8.575116418352387 8.925011795364886 8.101733625822225
Al 6.847781679849457 10.973073825062265 8.018472874732112
Al 8.204053696353823 10.664295279958907 12.481017902815076
Al 10.207601960816543 9.193544018404802 13.457019913640373
Al 9.22984727943207 10.928972848909936 9.877959925767255
Al 9.73696825280109 11.736208570857384 14.486907306181832
Al 12.535709403169822 5.993553577881001 10.2518992452158
Al 11.233675816382108 9.428346432226357 10.927616455283264
Al 9.825706496728841 12.820411807265412 11.92338642540566
Al 9.3805832479672 11.598294680622244 7.25185896511612
Al 11.859788822685376 11.357507536169425 12.906594341727429
Al 11.150246403117352 9.855780364216535 8.127294677062233
Al 11.793534015597356 12.006748119019969 10.237367014424771
Al 13.075649444682472 8.380389546266036 9.195460474506309
Al 13.403788403911266 7.886591567353333 12.012794687811635
Al 9.907223012752477 13.599218929551082 9.27620788456061
Al 13.742507065524638 10.428792823895659 11.25186635031943
Al 11.874101653644317 12.541023833161121 7.586144409777806
Al 13.647118017834917 10.916011708522733 8.560447344069061
