24
Energy = -72.52831344 eV
Al 11.60720405420895 8.469106054261221 8.007051547331784
Al 11.081394770245913 10.702395046063145 6.175091281349055
Al 13.44701464369269 8.770948978379659 9.917533949106152
Al 9.325453919456345 8.708685606579355 6.516240313413141
Al 12.35370483389369 11.173918803934988 8.602708524509783
Al 11.282182202744083 7.29741696406699 10.617071746393188
Al 9.062447536636984 7.3019647163931065 8.750092306467202
Al 12.930011286707881 8.788521183574508 12.6626224873554
Al 13.370079116976198 11.507011572925395 11.169707640147479
Al 10.166324683054324 13.012541442540972 7.881765169199581
Al 9.795458318707022 10.467570411520772 8.500851943573458
Al 8.121330803486636 11.68150732559188 6.5233427178859325
Al 11.230319978323308 9.987003335431561 10.696345141208319
Al 8.809336285233918 6.762217121695561 11.406726555029522
Al 10.770227323936314 12.68050531530926 10.460852059295144
Al 7.295920820821643 9.652008886783658 8.336008567502105
Al 10.094363397420329 8.935146154627828 12.828826265659975
Al 11.315771196799297 11.547905467486993 12.889632945204609
Al 6.5983436622904375 7.724824770864276 10.228646052592113
Al 7.308105581828101 9.064416132808974 12.818477668027514
Al 8.090786946269997 12.30736805770837 9.477509116589742
Al 8.739328996733969 9.315125022209019 10.557993250039654
Al 8.758637435033537 11.503230259714272 12.183294857337795
Al 6.484816924644007 10.744888987199163 10.894445360608364
