21
Energy = -61.55494507 eV
Al 10.13766620187854 14.383888695616545 11.632325281495467
Al 11.174725452299215 10.591098223723316 7.792051549338164
Al 9.535151105660104 11.77422113118972 12.249101793296859
Al 10.68156788695196 13.513850486981479 14.126231358732927
Al 8.935705335277676 9.776721793858936 6.34600455646323
Al 12.238866762875059 12.718802290126504 11.92611740001372
Al 10.026778114437123 7.9890907410514425 7.892726579025542
Al 14.058255399679052 8.78067710991075 11.072260792496728
Al 13.079148559291234 11.181630782959308 9.660613685293077
Al 10.74117940194231 12.43894746926281 9.715330916263921
Al 14.351151319977534 11.208309219341386 12.017433980523931
Al 8.609441135459491 11.448532102406098 8.389839974578372
Al 12.139441019972535 8.489670373057965 9.357271117811358
Al 11.175531031360096 10.89139540902204 14.168455890041619
Al 13.360872852487182 9.24756460116587 13.733780767218956
Al 9.265324277423835 9.167954427585244 12.879141764590981
Al 7.515956838342824 8.962403775885063 8.807180450632327
Al 11.726541796095562 9.9463619912319 11.714967015781948
Al 8.207918545795478 13.177650404879206 10.347187637981367
Al 9.776080232425706 9.599432981822043 10.103126869374348
Al 7.469254911570265 10.593335750791656 10.980505237697397
