26
Energy = -79.6793705 eV
Al 12.109391679528853 7.969318729159072 13.967172717018826
Al 12.372306081287563 10.525951844552493 13.621823823052756
Al 10.2495060820022 12.08566585318838 12.759847168057643
Al 12.774607671549099 13.085332698252634 13.245422545506342
Al 9.97006019805803 9.428888477058257 12.946784683415999
Al 12.315717250601718 8.763094106059986 11.273044873072628
Al 10.415227140850215 6.785786991049182 12.428509446174049
Al 7.888365731894928 10.892365641239323 12.093129792257102
Al 12.574930051526342 11.48959086498138 11.085853545106925
Al 9.142501540756054 12.919151292850078 10.516533404559576
Al 8.390184712786871 8.069253072195547 11.318158055844972
Al 11.513758048525771 13.970150882121297 11.05940521273396
Al 10.601891706413054 7.2401329333744116 9.787915518892587
Al 6.15967466524317 9.002983972273114 10.404361887781718
Al 12.939483379588397 10.047066685499434 9.006538117898604
Al 10.143504389041814 10.234376584671033 10.3010255597154
Al 7.659618047251509 11.02035532562722 9.444283791257416
Al 13.212231215161536 7.365526336356949 8.923585131656031
Al 11.182784801194737 8.499207317967862 7.497817637673645
Al 8.822370917051074 13.261154063169919 7.914951726820571
Al 8.563362842767289 8.438233617385803 8.64814489085712
Al 11.444336147408597 12.392794568582037 8.748733876625106
Al 6.240708128244123 9.280456932177085 7.766986206765923
Al 12.268282083374919 10.806946866793526 6.526883722129487
Al 9.655722422304901 10.624556533464828 7.55880021098297
Al 7.152039850762594 11.564224595124204 6.916853239317989
