20
Energy = -59.80850558 eV
Al 10.714321983764671 11.264539949357511 11.698341742505361
Al 9.413089913400603 12.96684709123366 10.136356334898306
Al 8.712322374264245 12.699954442470414 12.886399304363232
Al 12.204558477326326 9.603438024715453 10.497892467648269
Al 11.368034871869659 8.86027475776641 13.166449356286604
Al 11.85230147954653 12.06727525930138 9.352549819548543
Al 9.149177176997979 10.18808197287898 13.628799870060044
Al 9.731822710055111 10.498651233112971 8.98357377596606
Al 6.811441917919183 13.35198749167672 11.07610945554836
Al 11.857701077134813 7.0434721363267805 11.334405611680307
Al 7.235969043980339 11.859645513239554 8.870414083701311
Al 12.132091019212497 9.827135590160374 7.848397100432545
Al 7.88937440169102 10.645282034218518 11.158984658154454
Al 10.423724984350804 7.735948542918017 9.023643699110062
Al 9.51519283440886 8.61437366399707 11.299187630710662
Al 13.219242475371304 7.492171731834587 9.094611900112666
Al 7.822530654999123 8.6355269440879 9.26815961474349
Al 12.061383529374465 7.311447173804589 6.658492503547585
Al 7.736605226855861 10.182348648000975 7.048107106922767
Al 9.847706769086507 8.85019072050847 6.667716885669408
