20
Energy = -59.62724562 eV
Al 13.458091364231903 8.6363939298634 9.239101219431124
Al 11.497604684421965 7.027070182818128 9.607733543443205
Al 13.161873180752398 11.119759935462671 8.18009124501424
Al 9.136271040617617 7.60087827417927 8.453550668274511
Al 10.784597305728413 11.868906306739646 7.365993303381057
Al 10.850964642445113 9.756608188511915 9.188186486169933
Al 8.842068057302228 10.165280214431803 7.272199602600331
Al 13.378842709996231 10.952841362851448 10.741760414118064
Al 6.895422465892246 8.492142801316705 7.537866462902985
Al 12.089471288857101 8.794445335785621 11.714027122084861
Al 11.282540274944623 12.372354948473133 10.014934908859434
Al 11.762211095692326 11.486043939323618 12.742210125514987
Al 9.562493828584838 10.868410013722217 11.41396747167385
Al 9.573434733551029 8.061201027894128 11.21759085407747
Al 10.344661852830114 9.407728638190664 13.693521825144659
Al 6.457077981758368 10.983642381304893 8.469727270811198
Al 8.749246940539635 12.178530415061996 9.230175756670345
Al 7.555858444546155 9.194597932439187 10.0461037885524
Al 6.947680765917466 11.573523954350794 11.19180960970579
Al 7.734630344635977 9.524683220524372 12.744491324814746
