23
Energy = -69.1082613 eV
Al 13.312097403840108 8.346611966893548 11.271191517776044
Al 10.248592153926662 10.721872848212575 14.044924946684011
Al 11.903988268460125 10.67593291315937 11.918331030228439
Al 11.013375036375532 8.3496336247046 12.682149080488202
Al 11.69126432502175 6.344536751811208 10.787645628919993
Al 13.74204677680741 10.589226567238207 9.96530614646332
Al 9.008207346133013 10.079177047209551 11.688733261784169
Al 9.20544006670108 7.210680576766017 10.837833975558997
Al 14.091694309677944 12.609234317636206 8.246237332847135
Al 8.601687392786557 8.646797594187033 13.92445784532617
Al 11.12668172244492 8.762404601228647 9.65700502951449
Al 12.419492803306424 12.934250893342593 10.456686574864685
Al 11.487825043907314 12.988514667910291 7.813735075297971
Al 10.398277314163112 11.266007145349477 9.603469374746263
Al 10.071699329628139 12.62021438849434 12.078026895011597
Al 6.973058158788607 7.993803276552981 11.909620193366402
Al 12.354192241917778 10.432735367800449 7.685513709319994
Al 8.444897254641216 9.339601909438633 9.100287042661
Al 6.46750126096533 10.15848083700914 10.65754173102358
Al 9.93687058273564 14.13645183131138 9.815772330845888
Al 8.82779016793253 12.527178519595859 7.699250245291948
Al 7.900514706692049 12.236592494987534 10.269664853877345
Al 9.885079942947415 10.142333468960707 6.998889787902563
