20
Energy = -58.38628819 eV
Al 9.611914463848032 10.837865540753874 6.837513665664569
Al 10.263969658268723 12.635066608695412 8.77718714891559
Al 10.887391604428386 8.657097761350078 7.483763055834333
Al 12.31228628314875 10.724737047961236 8.377765281200979
Al 11.051990937778674 14.072089046471065 11.082868127496546
Al 10.889700339758706 7.111659190477334 9.585073577945122
Al 7.794430047419173 11.109418458430898 8.851631295556237
Al 10.024238708484651 9.933438152035624 9.717754015448316
Al 12.964778189704267 13.032923955036212 9.680256850449776
Al 12.542376329851626 8.970478434273112 10.492691118122043
Al 8.947497852365741 12.341187798410129 10.964458763551496
Al 11.885547792477471 6.614103491906094 11.975255818153599
Al 9.60709961370826 8.22409968105546 11.7087042884998
Al 7.633028921098317 10.015810163604558 11.439774597732958
Al 14.387796233050384 10.889326824096427 10.148753930547656
Al 11.67363880919129 11.37483719392232 11.417755815426261
Al 11.83154844684227 9.008812031557953 13.155150716822908
Al 9.860161932453629 13.234915458324485 13.27073112311824
Al 9.749404620605775 10.53987299681133 13.203899740479317
Al 7.465472335463795 12.056533284774186 13.213284188982456
