28
Energy = -85.89461022 eV
Al 16.174335991865995 11.306186049229257 11.05070776321337
Al 12.656678798313683 11.026411776953902 8.30066579061484
Al 7.121066693837453 11.723495960543326 11.12977323977586
Al 10.373674655498313 11.563531452007943 14.718091078319832
Al 15.027429274029956 9.79205154629466 12.92933580361872
Al 9.541834606069616 10.663191266871333 10.16430955021299
Al 10.270271466129824 12.28513037632108 8.02214093114673
Al 7.565020750147423 9.516266663648755 8.420310053973882
Al 12.93578618608624 10.713124879774998 14.39018700238891
Al 12.824119517098316 8.327509448501262 12.347184416265705
Al 11.973537454895853 13.227841814316536 13.247613542249159
Al 10.877328922417135 8.845526941644165 14.386778490458413
Al 9.29838187129928 7.7925294998604135 9.48968204559104
Al 11.380560832534082 10.671227358346071 12.202672260209523
Al 9.529566696303396 12.675881100504236 12.323987509809943
Al 10.102259833989246 8.16609901532101 11.964338216302428
Al 13.653862855934031 10.414669274450448 10.693775791403896
Al 14.288525260745583 12.486444956982007 12.496676231054712
Al 11.874058092252831 12.74692913642709 10.377770426913047
Al 9.197232848203937 13.763251148587814 9.975270608929074
Al 7.542254070212466 12.246141957119375 8.55066641452475
Al 10.889621445573198 14.977440726927615 11.510102121240688
Al 11.768225133043451 8.80771873129182 9.896217726274692
Al 7.350743093766977 9.006655408067743 11.035241609428711
Al 8.743685190084307 10.273090916222587 13.062519548627689
Al 14.422881661656096 12.687772482772546 9.485825753378613
Al 8.460566340443767 10.960062732995565 6.320366698819616
Al 10.325295335652136 9.502622256101798 7.676594253338221
