21
Energy = -62.72078498 eV
Al 12.462014673191755 9.476847572284806 7.419107915646748
Al 11.947125965704311 9.58327398050731 10.152824753697649
Al 12.746316232118607 9.674128664817474 12.749411622885686
Al 12.304434330985515 7.1595544743203146 8.939204514315337
Al 11.055525459733348 11.427621743237665 8.636708558863482
Al 10.94407948196168 11.451678698804846 12.044229102804263
Al 12.460473655760158 7.362997257894443 11.577052641577568
Al 10.032897528385533 10.273449612469879 6.1928871667927305
Al 10.076313725194476 8.378824329888873 8.13982101593318
Al 10.182028144016968 8.803226579598617 12.669941245197533
Al 8.707780023967437 12.842208451772976 12.173262225384317
Al 9.25004499248687 10.08897204839854 10.376578130480102
Al 9.507215869000817 12.812199269568339 6.931119478937725
Al 7.9940961268404855 10.446693155171912 12.857707202096991
Al 8.954335935352931 12.770839111502818 9.55549125031392
Al 7.638945086321049 8.169212020789997 11.695943752050274
Al 8.0422991527469 8.437704907920564 6.421699240219883
Al 9.9259265997519 7.326776825742856 10.490647342642363
Al 8.006957935869442 10.711814669183731 8.012512469210158
Al 7.507978716400612 8.29843371824188 9.017879783882483
Al 6.737473309801928 10.987805853474187 10.430233532659342
