26
Energy = -78.88662187 eV
Al 10.509891824484606 7.274179060981561 12.858312525020153
Al 10.292001171498939 9.39354438909397 14.499107649616684
Al 12.459070998220199 9.121783045120562 12.561259108620133
Al 9.778601500787957 9.550108012454787 11.694564726449254
Al 12.318892428599755 6.490873549289992 11.152033655978128
Al 9.835849440057173 11.932570139636683 15.550464240032749
Al 11.361550930714778 11.512378070788225 13.228030651719966
Al 8.424924421402375 11.364576989849494 13.228789074906844
Al 10.171785314056297 7.533274870970836 9.841906657379978
Al 12.46808508096215 11.213630623885974 10.862327524006226
Al 9.838786741077849 13.777255453902855 13.253761074869557
Al 12.301368757150469 6.520392220700425 8.504652206433013
Al 12.665321304673013 8.837790222439283 9.82615551598418
Al 9.597735691049804 14.827824906775579 10.495672945486923
Al 13.827759675096072 13.243013326581503 9.495575108692849
Al 7.516168099466509 10.929349317395749 10.762388992961343
Al 10.262872554506147 10.368369863393024 9.196876008784267
Al 12.066235045408433 13.772129338340227 11.50743191380425
Al 7.9960170631385425 8.731801594376362 9.371090763338781
Al 12.864653893627214 11.081716126545615 8.15376132714677
Al 11.500726559150804 8.829379345785346 7.3576092611006745
Al 9.815133344998186 12.227749720940299 11.110873217545066
Al 8.130254663854426 10.374541825916038 7.328145753557562
Al 10.516535686107934 11.556472262021547 6.724932147350759
Al 11.140116020675666 13.147155463979255 8.863865764874914
Al 8.5629563268325 12.6114347964326 8.793706721936474
