28
Energy = -85.48389286 eV
Al 15.485145723421612 16.58203651429863 10.656918060049543
Al 13.771173468228348 12.654779882416445 10.059836899024106
Al 12.873898893973001 10.45823993021119 13.560389209737123
Al 11.754624567950534 11.097592081106916 10.779408743777632
Al 15.918872149145729 9.819549966495307 13.114858786282149
Al 10.414452317553012 11.727250028715627 14.570720556168597
Al 10.787235223625927 15.563599655317095 12.356244198925818
Al 12.250429465082991 8.500411274424616 11.715936782676872
Al 15.860850448121099 14.153125395888715 9.743342529017497
Al 14.257104087602192 10.118992713707973 11.043915207370535
Al 16.339957360152944 14.414152124813299 12.32907613666171
Al 14.453430967603884 12.461370361660657 12.72725073539433
Al 12.847705760894456 15.469922479293263 14.192186853020134
Al 9.410224220482357 12.222531994566848 11.279357291991744
Al 8.730928931520365 14.821867982068957 10.825568373846396
Al 11.789941630739557 13.085741332129743 12.715882470123026
Al 10.654048613140107 14.43275265544217 15.033952576030176
Al 10.178295163990244 9.875364819162995 12.564068653695054
Al 12.84760195776092 12.801744055664079 15.26828384178213
Al 11.262294343600894 13.83402166246338 10.14169234397605
Al 14.969248798213851 11.305075060677023 15.212651754357573
Al 14.962317399172377 16.537880876834542 13.201389032008144
Al 8.707043485531551 13.842040723282677 13.385966771408922
Al 17.049416186291833 12.278317807535085 13.733933297081144
Al 15.229002826466148 14.137466040306277 14.759996099082695
Al 16.493846970385142 11.805701584437427 11.038828882429259
Al 8.047580567709884 11.233058639817434 13.421775334138793
Al 13.455786494626329 14.996263404045617 11.492216959246832
