27
Energy = -82.26610804 eV
Al 13.981913430065708 10.30611514280307 10.93709905826282
Al 12.019842242470332 10.040931415454166 14.97626482208183
Al 11.737274993704647 7.553115961896962 13.689292995462932
Al 13.758248535820346 12.092720436892927 8.970269797009587
Al 12.55008945984532 7.802533194882737 11.049251382936209
Al 9.605961471692723 9.19025496731329 14.328738144820829
Al 12.442950291059843 12.584793844745446 11.49784279889002
Al 10.639054896497099 12.09796562717145 13.84462723225021
Al 9.834127925149208 7.780077948919956 11.8829669817718
Al 8.411163851716683 8.81629092923869 9.971809333199417
Al 8.69473313269051 10.377978214195235 12.2353694183255
Al 11.472611384621786 10.057772381640035 12.256709157720055
Al 13.920533167607623 8.964335579607319 13.153897965760263
Al 11.354169055734769 13.413461574252226 9.294764067039297
Al 10.535717762070593 6.934086187251612 9.35434345632647
Al 7.113613800792771 11.482550863106962 10.49283767176882
Al 11.77312340018639 9.782320706749204 9.518397868365406
Al 8.600543392358183 14.049437952998046 9.574004450106099
Al 9.473844722863916 11.29462277270942 9.160203873292053
Al 13.612160069250574 11.668688610589346 13.603678636271399
Al 9.678864908442469 12.783419014562615 11.528453453722875
Al 10.024363723877888 8.938777914842891 7.674113233636936
Al 7.154407671179583 9.806268637471456 7.955154769058921
Al 11.617542688962766 11.316729449693232 7.4020897989444085
Al 7.260196623814749 12.460075453004485 7.954751898552721
Al 9.794709377428141 13.391103390334438 7.175203556097558
Al 9.083777606460043 10.968087565779438 6.362510799368299
