26
Energy = -78.24274937 eV
Al 9.421855051096578 13.28283088550031 7.446953718988242
Al 9.970918522595289 15.478966839977748 9.06591417309529
Al 7.566896723602314 13.867733162903999 9.639870108116588
Al 12.255107183173505 13.867618934694931 8.387404101489123
Al 8.45799543431321 11.280325457342641 9.169598108329536
Al 11.123045958722848 11.319979837691958 8.227286125040184
Al 10.186911560940931 13.114709352626269 10.096419205722404
Al 9.04192970961508 14.907605425356952 11.845491605703016
Al 9.245677174181113 8.67893150750294 9.833323574988698
Al 11.774686172557015 15.029359471171793 11.116748361071497
Al 13.944655173403392 11.042859212847308 8.6368631935229
Al 8.262652283407165 12.207426421661422 11.864261405447712
Al 10.689237174941976 10.821827957688292 10.928181530736207
Al 12.845759379224143 12.582351923973741 10.792194806540344
Al 12.05268410223541 8.917628845998813 9.146442284868373
Al 8.84923951794537 9.697182799597224 12.698946462601942
Al 11.646521965416335 10.52559705486898 13.541604038974087
Al 11.195917743718766 8.508533307718674 11.689037640838004
Al 10.911805086328116 6.461934448228475 9.858238185162485
Al 13.471149974348165 9.99309152227826 11.335344210648131
Al 8.923791209390142 7.048621529822259 12.009065492235923
Al 10.849833072163264 12.991942323928896 12.771732337839426
Al 13.502359817335439 7.171160028058987 10.850432325097984
Al 10.465036758052896 8.162522559793143 14.281664675147892
Al 11.457092777556342 6.1252502732753795 12.642147858053082
Al 13.200768191669352 8.231954947176206 13.458356751788742
