29
Energy = -89.20625807 eV
Al 12.63467112928165 14.323858093864516 12.102231825855357
Al 11.220843677021493 15.17180589591744 8.055734707057557
Al 13.320688094618767 14.385271834201617 9.528420906118646
Al 10.757967557997208 13.566273791349602 10.17656480500085
Al 12.747262712316592 12.30752022704974 13.795945474823698
Al 11.77902203372151 12.685620642195463 7.549535778190241
Al 14.059540761366643 10.227253136354337 12.577531033057554
Al 10.294024839750673 12.930747150555094 12.656117506238704
Al 14.25458909777981 12.067901756608812 8.387196656059459
Al 12.827317421017387 11.85816547470705 10.816940991542834
Al 9.119077082754501 13.605024396289203 8.099704235237144
Al 14.566049376511224 9.800498897458858 9.820890093382195
Al 10.357419577275653 11.509762497941184 14.996013742649545
Al 11.332262008265955 10.109698561210575 13.050516248101923
Al 10.355439372001083 10.85115734159129 10.6258387832569
Al 12.336351095216811 8.846683499395732 11.078336013623083
Al 8.63212611768336 10.925474601430569 12.770199511493296
Al 8.190996090684546 12.517100674141513 10.474902226610466
Al 9.40684002557562 10.992653580714714 8.126638915406204
Al 12.095312161872531 10.277811321601574 8.537112395754978
Al 11.414153371272139 7.348011355038579 13.229266356501082
Al 6.060876360321997 11.186808072675639 11.656500818432491
Al 9.323204936400561 8.852027514323371 14.441942705180882
Al 9.424608101112682 8.208409686697468 11.709008683050511
Al 11.226085437608385 6.403334107612277 10.681767868013415
Al 12.862957827668298 7.694500512255574 8.782333858564547
Al 7.892481897922145 9.727049191288716 10.138830575553614
Al 10.162526279468556 8.515102136414225 9.104016625109672
Al 7.052157951403433 8.811326445006669 12.736813056024841
