20
Energy = -59.45227854 eV
Al 10.20616672437059 8.686103778570349 6.9006046413798146
Al 9.7642607803455 6.226759172118921 7.71003626620334
Al 12.143133333794992 10.089126823756233 7.978102766195103
Al 9.322320842463476 10.974588147226587 8.305651197540245
Al 11.803925883760746 7.744388409426683 9.040880308762057
Al 8.706737278611632 8.393818806254773 9.096995258968386
Al 13.303803634741536 9.487947025689351 10.54868267137805
Al 11.920138088746802 12.284846890070726 9.320325269550352
Al 9.765096767410753 13.593576736750382 8.330389744436983
Al 10.034867629768172 6.30511178303524 10.358305448380863
Al 11.791055533541645 7.776409633726408 11.856499143544786
Al 9.006376554509838 8.26155495905602 11.812823284162166
Al 7.885187265599891 10.411314102813261 10.618850678512095
Al 7.558135391546304 12.974290922412322 9.66947571692771
Al 10.67008990397556 9.925863355054757 10.40296926735393
Al 9.965954267255624 12.714267738695403 10.894243331073785
Al 9.609977876347275 10.628910168863161 12.822586713618835
Al 12.120864586975893 11.563434048314246 12.078015635393202
Al 7.8483856413974795 12.698958895473744 12.475941770111545
Al 10.368285991939032 13.053492579794874 13.573384863610505
