22
Energy = -66.43858163 eV
Al 11.391947951271877 7.807935506398234 7.977088525471704
Al 11.141158736202673 10.265554109973415 6.8563691831113065
Al 8.800136178394808 9.216642899149084 7.764097910574643
Al 12.832862991978654 11.642886535794467 8.493384225621515
Al 9.265336383310927 6.945763108930065 9.271118549722381
Al 8.736441958384704 11.55361844896653 6.529600870335981
Al 10.202020181315032 12.69816442432497 8.331869297672299
Al 6.860619132194982 8.216053612132056 9.24262977417394
Al 13.21827519681532 9.128929350914659 9.490614686774014
Al 10.7586299822885 10.255991497947239 9.52752020983358
Al 7.915363984987455 11.450243129268276 9.182543930223089
Al 11.874799312022889 13.625167600695697 10.141031626603409
Al 11.304198233747217 7.843373330710992 10.920357576500868
Al 8.714853897941845 9.373467083953926 10.776729065665354
Al 13.254841379540354 9.052318949794383 12.240448395761874
Al 6.20933183762937 10.223245292738767 10.839252939663561
Al 7.740833846485301 11.55171680398168 12.524305137728355
Al 12.581512571060061 11.373861816668215 11.303025621125357
Al 9.822826142130518 12.259786167881394 11.166851622235066
Al 9.037781296369474 7.003617514376809 11.96796887703588
Al 10.65265065225423 9.946730935881506 12.631555950600902
Al 8.21375375397534 9.095107479820031 13.351811623867166
