25
Energy = -76.05186067 eV
Al 10.801205633666552 9.879443323827827 5.910350498329755
Al 6.126654410391143 10.8974120501197 6.152357709608309
Al 8.204266740192645 8.98458464113864 6.2545596199502755
Al 11.247701168425323 12.063975861147286 7.714080330768611
Al 6.870736980597984 11.124613928075743 8.6975860760688
Al 9.51463760154294 10.279181620324424 8.34695798156263
Al 12.095997723764537 9.396551457169975 8.328550412128063
Al 5.564932702488887 8.641724387081968 7.568348835798945
Al 10.138870695202526 7.611717770388195 7.518312437920219
Al 8.65110459182074 11.904656297491051 6.400621207546644
Al 7.548703695872058 6.443660133084389 7.114303653562635
Al 11.873270691913454 6.566788371169055 9.2640332121566
Al 8.938940647426627 6.059549089825417 9.480992487288056
Al 7.828908748957436 8.503677634621294 8.974432886699208
Al 8.961862854418056 12.854142545702883 9.284728930153852
Al 6.13098108334665 6.686973776196722 9.608182245565528
Al 10.223387022562108 8.48235648382233 10.300736677743508
Al 10.909758558499279 11.262787467475102 10.479368549858071
Al 5.662601148269676 9.406982372522455 10.505536801460579
Al 12.818121291763411 9.419141272899624 10.906175521479017
Al 8.274104720809762 10.573171665751678 10.889407270114322
Al 12.175610089061673 7.147562239229251 11.908599284016415
Al 9.767643552296834 6.286105168378766 12.012911682253545
Al 7.738590233038855 7.980362963679423 11.65439545138596
Al 9.997042249149231 9.60851231435458 12.790105072058378
