27
Energy = -82.29878014 eV
Al 12.545583141547121 5.854616890297077 10.363228852330954
Al 13.03405324102034 8.439881809892867 11.01326643924281
Al 13.218332828023735 10.34677540524308 8.831432515044156
Al 12.838399769003528 7.749145776886104 8.422748191607221
Al 11.944087242294128 9.612428307546905 13.138578321849433
Al 10.490653471142808 7.503500018513569 9.830286204113214
Al 11.219256689419753 6.963633726936464 12.409388944087025
Al 11.38526528696856 12.1259119791901 7.756453729178182
Al 13.847360141782254 10.872253268727961 11.419784814139797
Al 12.654063285965796 12.768029517438151 10.043649538892309
Al 10.668239131186033 9.562723631844943 8.13701540835028
Al 14.084203364305115 11.366780793436234 14.020255238196828
Al 10.923210037891309 10.527705017753568 10.733153249783406
Al 12.099395975163844 14.641374179071768 8.183248704979144
Al 11.714734440020472 11.504352050694253 15.047220999102347
Al 9.261139772352985 8.76111712013664 12.249535662370112
Al 9.735868570755645 11.254702457417194 13.409271438628494
Al 8.432204546681593 9.071461792651128 9.65637841560643
Al 12.0461002448345 12.660909517728191 12.633685448784819
Al 9.010659161735635 11.555936880367971 8.936344499528149
Al 11.486576378390989 15.086277564667338 10.878915172338841
Al 6.555184135700538 8.98090134577929 11.531223822495473
Al 9.595196818599526 14.165241958379443 8.863878290946786
Al 9.756790978389793 13.04538781266155 11.353170048424206
Al 7.87284088897948 11.24512235106789 11.634835172327673
Al 6.284483009886614 10.874547128927281 9.567380725854797
Al 7.284116406158479 13.447280654943153 9.923669109996625
