22
Energy = -66.60135127 eV
Al 7.803747128100843 6.4288706878378425 9.387059698282759
Al 7.414785525793988 8.239470266347995 11.338030130188722
Al 6.547179929532255 8.798956484307206 8.886490743254125
Al 9.960562276988329 7.591186752238862 10.787588830273688
Al 9.16023477990423 8.346128422851162 8.139058605512732
Al 12.602180450896991 6.956649285470519 10.940275632341008
Al 9.139282358919022 9.537714413418659 12.777530550626631
Al 7.338982336348977 10.791430075071824 10.788793599311042
Al 7.971136044259399 10.823654496983023 8.013810456564352
Al 11.721859834838773 8.557531638143505 8.946101372722822
Al 11.69294307998104 8.915789211890548 12.50436801413918
Al 9.953472653180512 10.393122880212092 9.991796890405315
Al 13.718236128484532 9.331608659726923 10.731826173109965
Al 11.027980434802688 10.919901132482552 14.19114358385994
Al 10.594227834560707 10.230721499413033 7.097625547155485
Al 9.630978645542234 12.051985717691576 12.116946509621155
Al 8.339878519866462 12.99271694253954 9.971365431358779
Al 12.654745310852093 11.072046402812457 9.05880627497139
Al 11.947684604785904 12.562241505449098 7.054734133471475
Al 12.197878615359953 11.463826027639325 11.756433509495983
Al 11.00121013346852 13.024114575976217 9.854688074803116
Al 9.476353145867273 12.865872693831628 7.561066010865623
