29
Energy = -89.05307711 eV
Al 13.929205944367991 10.839648251561956 13.536977121649498
Al 12.766430913476256 12.904571284237212 12.13887400603044
Al 13.405762382132545 10.968176949912504 9.782671021405795
Al 13.250139903925938 13.004098896506276 7.612526400061627
Al 13.499823239060927 8.889778760524532 11.619134056722604
Al 11.391166271473287 11.794577626598224 14.205784419567845
Al 11.731268855813203 9.0777493354132 13.816427902706828
Al 9.963772973772683 12.808970076516097 12.10711708186898
Al 12.529571173010106 10.483906837704751 7.133466364441911
Al 11.352029408213172 10.597534446649748 11.485655054934043
Al 12.322469342838053 8.518302264870261 9.27279071929011
Al 10.544892435034603 12.75629182402188 7.289003656024391
Al 11.524740908932857 12.969980858655886 9.810956678980839
Al 10.907297338245522 7.903486436783269 11.574320965916995
Al 10.259659937873097 10.335066115719837 8.698457027053268
Al 8.98925222929169 10.806434586325272 13.705032638436093
Al 9.697405836990104 7.672305071727415 9.218784978131449
Al 8.208344405355602 7.1863957163486765 11.507062440052636
Al 11.023609626415247 8.274836700235188 6.98962937121053
Al 8.815851122545995 9.768183920767173 10.989391194160438
Al 9.211993835615509 8.061375124295733 13.82657537076663
Al 8.905753237737718 12.445392790583567 9.632497754473407
Al 7.320316134232602 11.8396526601602 11.80565119429701
Al 10.171470899663447 10.52551759802647 5.580324133135519
Al 7.025390754654097 8.079867961068995 9.257182795034685
Al 8.163249061360291 11.620598212687481 7.180454479871357
Al 6.898422027029796 9.296983853362773 12.88184336676094
Al 8.37483343865255 8.869660343107034 7.0771087473410015
Al 6.857019227497543 10.745096513180139 9.316157442185848
