22
Energy = -65.2136021 eV
Al 14.610010216745295 12.802597301896643 10.744356242238691
Al 8.86791770698946 9.622793706098426 12.932653391415105
Al 10.160824045049267 10.121261982175616 10.646638860159053
Al 8.068786569152453 11.803790085138552 11.41382873643057
Al 10.073239901170766 7.6995581275795395 14.413862183250023
Al 11.91997456935408 14.138626035296047 11.655786673259993
Al 10.503060180443459 14.436089016111257 14.132389984273964
Al 13.626484998067912 15.48241744143731 9.852140066814133
Al 10.125059145138929 12.769043740100486 9.994469365774801
Al 13.090198044876685 14.575515421550273 14.193466616636892
Al 12.68337338897762 8.895865491372719 10.60307488613107
Al 8.895775813517556 14.299932029676887 12.046269163391294
Al 15.231233278177605 12.74089444619516 13.480015891380486
Al 11.691450003397689 9.727711151952752 13.167546283563173
Al 14.4426337625407 10.428117573475104 12.278917272899477
Al 14.650999161506789 15.089483088550102 12.1490047651749
Al 14.475718851593257 10.535775893654447 9.45362868034735
Al 12.70887120824497 12.049672287875559 13.683966057090702
Al 12.539218678801847 13.288455146081773 9.001494250700958
Al 10.668394033469195 7.637244835503092 11.78124389847444
Al 10.251318749752919 12.038373085475508 12.87614075928503
Al 12.309333803248075 11.497463595037994 10.974377831347956
