24
Energy = -72.89564451 eV
Al 10.841313376298489 13.436019336478259 8.986903365365697
Al 12.810154833374844 11.81303338541309 8.581996803532876
Al 9.916323671241832 11.213507220462853 7.982291998482608
Al 7.58836515184312 10.12179265374584 7.384828411235955
Al 14.65943877011322 9.808637459033212 8.574611222235902
Al 12.021135286340268 9.243019285084861 8.026049158489776
Al 9.539315745249477 8.36987829336216 7.457888134995991
Al 12.932670499035867 13.3968342962018 10.897960247563065
Al 11.122792680433628 10.624952691347193 10.375482639805009
Al 8.87198098081408 12.197519258063664 10.451961855544505
Al 6.681663133882696 10.781590379715444 9.786066255548901
Al 10.571732268568447 14.081319042981987 11.61012215391617
Al 13.066682024073986 8.391037481783462 10.395291731584841
Al 10.695564005899774 7.481331879010214 9.705177927370013
Al 8.910336917855563 12.99385302859103 13.196885815973804
Al 11.605035050780536 11.902351320682493 12.86925797304338
Al 8.75283224346148 9.236042926415934 9.830296030844819
Al 13.702517621190946 10.905159123956393 11.095002417711068
Al 6.780485872492031 11.74029124220295 12.38686779995669
Al 11.977655742891704 6.689154215777769 12.129552597465514
Al 9.376931295213282 10.42976808231968 12.544879082292109
Al 11.910736550370732 9.301324780759426 12.750130531193907
Al 9.501576867112997 7.787785733138058 12.056700144086031
Al 7.1668052419446475 9.057842713955724 11.927841532244578
