21
Energy = -61.91350282 eV
Al 12.76952998773345 13.673906528367755 8.776742257848307
Al 13.371911398192974 8.673869093488673 11.207592160459917
Al 14.759094976671387 12.624187575465761 9.971137450647905
Al 12.544238902242661 10.286385136196616 13.22651093650402
Al 10.700920157850865 12.013490437178488 12.42568012870179
Al 6.32451063736654 12.402806642497902 12.459731411624327
Al 8.619433207668207 12.189618737896303 14.203900559590522
Al 8.297643054148903 10.444170022359694 12.254882139285408
Al 10.476951004394186 13.103935162505653 9.903574668775816
Al 8.059234987476751 9.220791790203338 9.968858205565684
Al 10.002976707422162 7.718473958023932 9.367657000287982
Al 10.114397455900534 10.588982476392088 9.005387470822066
Al 12.213548290080913 8.84536887924912 8.803250932024307
Al 7.901756096953932 11.908647377465918 9.903331054599146
Al 12.434819841490047 11.316702741196854 10.56735354379311
Al 12.446563733310649 11.28394813192151 7.744316969589293
Al 10.086875654616929 9.91640753988211 14.19746873018784
Al 14.799724120817645 10.897305855540166 12.004994544678537
Al 10.567772638172485 9.174765743206695 11.539125247286485
Al 8.652873863544698 13.57099007021523 11.811056709126383
Al 14.575415935823047 10.09923474336251 9.262172820987903
