26
Energy = -79.46002606 eV
Al 13.675417768548547 9.791468810523519 11.166462420655641
Al 11.310001895085723 6.270393646573754 13.405480436688684
Al 12.825877655259058 8.372758132480943 13.203333061655325
Al 12.13166657532415 7.325000072890242 10.800284391863881
Al 12.702718428595285 8.7958226471239 8.613364434926476
Al 12.606751816753425 12.23057698470509 11.347593326511092
Al 13.916127666452269 11.27761775462521 9.001007847673687
Al 9.570216675673572 7.305027261218827 11.722633368443171
Al 10.220163095875256 8.956607929571216 13.951522432005312
Al 12.381000519262368 13.48857798477878 9.101341319078488
Al 10.666576250668488 9.354402499848131 6.909726220738356
Al 12.235507632274198 10.96842127586299 13.569277691889603
Al 10.140025660851679 8.330476068032429 9.334560356795645
Al 11.150097764363517 11.065326660041645 8.944621460199736
Al 10.882736214713598 9.909560129206948 11.41196188094076
Al 10.06361090750154 13.997909019942403 8.078441917061568
Al 8.063182554576624 9.034330045546556 7.873253688550034
Al 9.739950110589092 11.684774064401774 13.253552741374296
Al 7.534740499139396 8.127968647587869 10.237548510113081
Al 10.077061069076699 12.757451933506518 10.750037699417614
Al 8.907908034225946 11.614244236260086 7.396812769308554
Al 8.573285346905859 10.634496061021258 9.964745989045012
Al 7.761111859477487 14.041292812296957 6.824854351646139
Al 8.122915966413476 9.652738570654646 12.435268719934896
Al 7.586470158161751 12.337850481879642 11.868222423244038
Al 7.687269045221785 13.2072974404093 9.366481711229103
