27
Energy = -81.71461058 eV
Al 6.40605570460574 10.917291208465766 12.274372671722285
Al 6.8812313487963666 12.693321683498288 10.330166181499186
Al 6.474405395027106 10.14738885244359 9.519030546229672
Al 8.543070615104488 12.697877046648717 12.665096486511171
Al 8.178242788943763 9.58712535355774 13.705716054923235
Al 7.1588299882621165 8.270385726039379 11.427219010824432
Al 8.76631751380843 10.512545699752001 11.100379117794942
Al 8.820763815549928 11.285100132108942 8.583555878242917
Al 9.279611753270256 13.747466832632767 9.989100742991672
Al 10.520009172776042 10.732636307767583 13.546692613155539
Al 10.972686429566318 13.656827515405984 13.28223860332413
Al 8.897603735205156 8.444383410013609 9.307259215071626
Al 9.905918458216549 8.289942150449688 12.015349938248649
Al 10.930928093311842 11.944850005125597 11.173131731521316
Al 11.678124236414618 14.506374138361883 10.746079715594227
Al 12.92719680271819 11.919042427367701 13.027391513642964
Al 11.279050046402253 12.54066137256657 8.571789404620844
Al 12.510222803836879 9.099874885954696 12.53765114356246
Al 10.976421799103507 9.625076548599505 8.150815676117158
Al 11.673848699142718 7.657034654766087 10.135281761370548
Al 12.613159878751802 10.234348779992818 10.159955647094172
Al 13.637488747441594 12.717963371518975 10.300619503238135
Al 14.972343629075075 10.707239979816949 11.906162462670618
Al 13.19150592572514 11.10575009888662 7.520968857184592
Al 14.498035390151024 8.276650714153183 10.81293337721541
Al 13.503458099661973 8.406220877018454 8.236049147252109
Al 15.102882566625565 10.57016293966057 9.240750495126072
