26
Energy = -79.71740462 eV
Al 12.105928971477601 12.238134048020436 11.489041000837211
Al 13.968149058800156 10.309138837182344 11.56265751791125
Al 13.039522404472189 11.298686605191383 9.038337587487185
Al 9.703707868973737 13.738469952015071 11.24439625729702
Al 10.059608951823911 11.786657493853204 13.172697960866747
Al 13.411990336387914 11.37044447156521 6.404849426813206
Al 11.704900062635057 9.809113518702583 13.020252214847071
Al 12.59131238978209 8.74843772313329 10.011299267101185
Al 13.453144928404155 7.901475037800093 12.499610237257848
Al 11.236838764189525 13.392867604295471 9.195860352896057
Al 7.327303954776094 10.994213365248132 13.633362125502568
Al 8.03746960511149 13.49936480608781 13.289570997385141
Al 10.454907734177645 10.702541897833973 10.032136132565377
Al 10.929972085142918 7.407693021412494 11.764124393427648
Al 7.845494286168034 11.778884459436533 11.16582224677804
Al 10.908849930965557 11.899720415119832 7.04005946602379
Al 8.699586406393832 12.226505894854743 8.713397960112259
Al 9.202416371798547 9.443995510122846 12.088033925366593
Al 10.252023128476562 8.042571383637316 9.264108049420816
Al 11.909039587543171 9.30915560007672 7.345727810692738
Al 6.464282080458747 9.11196050417185 11.952244909181669
Al 7.7748963900755585 9.70413105994697 9.608204213071055
Al 9.205485844305844 9.852017302148225 7.398442565573267
Al 7.954363256699856 7.425887281033569 8.140861630784956
Al 8.131052039090141 7.225855559271765 10.838332723698665
Al 10.20471863393176 7.359041719900523 6.66353409916288
