21
Energy = -62.8991468 eV
Al 7.007121100077503 8.79943207490076 9.943685959480701
Al 7.290973897921548 11.139064254355986 11.145826598597111
Al 7.560885917048231 8.822387837118017 12.59234853435932
Al 8.92110715049433 12.927032967231854 12.433307423279265
Al 9.338958448998842 10.383969578306708 9.488068516232497
Al 8.642715942414302 7.996135153431426 8.11882323367265
Al 8.443847854231688 13.091364531096923 9.773397267451177
Al 7.719111286246443 11.099263426721672 13.891369447245635
Al 9.88619595235306 10.069864780135351 6.809562249271908
Al 10.149182753605363 12.582462167272077 7.901064083337045
Al 10.13715578935335 6.05506342814702 9.204163721149037
Al 9.58487552365086 8.02941801911677 10.9991061253803
Al 9.81256259377817 10.355749291159713 12.484664599436664
Al 12.087323664019907 10.742953883040544 8.349566091459213
Al 12.531383953722441 13.342656313612247 8.863872628897957
Al 10.974992893020781 12.242271533073072 10.817339218300573
Al 11.30694033070608 8.356339307623887 8.458279055863425
Al 11.830006206209944 9.63839607447602 11.12501489682188
Al 12.217734045010307 6.96803368427174 10.601496610394456
Al 13.708315924851208 11.498669444931965 10.387831441236232
Al 13.879412456443868 8.890275934133891 9.642015982290895
