27
Energy = -82.98617668 eV
Al 13.831148528179696 7.900551352620783 11.256735785407198
Al 12.022693194215847 8.714429158393402 12.962690413207737
Al 12.257379744880652 11.477476679627861 12.383270515520586
Al 14.454384537817244 10.482143139466965 11.342874216924299
Al 14.2323983864785 9.583646473560245 8.868285498521526
Al 10.348104629586729 10.250184407274375 14.115040839437999
Al 11.785845470005347 9.635051453224357 10.324986573820285
Al 10.87971470647542 7.0021096104033855 10.619308442562428
Al 10.463935906270184 13.11664879701881 13.325096978327583
Al 9.417826641356166 8.154798681464248 12.480396785219767
Al 13.030256302268755 12.042027680921313 9.658427160619475
Al 8.236107596644493 11.813850251234967 13.973224537048548
Al 12.894449686006917 7.157548922001904 8.924568541903593
Al 10.914697963789003 13.228936510144633 10.640766115718158
Al 7.190942501702071 9.35182099753611 11.908368975181878
Al 9.52275485818386 10.974167298171423 11.578803638610225
Al 13.134768271774982 8.378020943506517 6.559203843758092
Al 8.448622211729047 13.711414396696508 11.73168360596741
Al 10.719494655616069 8.485962845338085 7.997788258332717
Al 8.864033654981432 8.78492562323054 9.825124786776552
Al 11.288964883582716 13.291218446944505 7.909813678590908
Al 6.434291029118191 11.839521610619496 12.033029259919491
Al 12.180816381020593 10.743204156735137 7.391882949108649
Al 8.820490747757777 13.40033300916309 8.95317875524238
Al 9.988166674026063 11.044220699025024 8.778954380220684
Al 6.333410257638611 13.543214783797406 9.969687708776824
Al 7.444497037983578 11.032768530968244 9.62700421436434
