23
Energy = -68.48722674 eV
Al 13.0642438213965 7.565801458253186 12.424478130077567
Al 14.610824013464432 9.800660092275677 12.148628660426473
Al 13.488780428744759 12.592664577956631 12.3786945451644
Al 13.487326954236277 11.27793990909165 10.091179877645821
Al 10.458213424046589 7.916281725640611 12.752755706031712
Al 13.213081448217967 8.639443196347761 9.883083551801306
Al 11.005319873533388 12.469438010900452 11.297630024448736
Al 11.974748480382162 10.1269613335751 12.233451147062627
Al 11.878113104178182 12.78742129384578 8.738112872319478
Al 11.95883661422027 7.524312709920464 7.852458958871846
Al 11.973428068840498 10.19438588983287 8.053800869145672
Al 9.61146107941215 8.685989513838697 7.668925336515168
Al 9.396527703376227 10.338205402038701 11.894759143906416
Al 9.627782395693819 11.16359638028901 9.239833623228678
Al 10.587453848105847 8.56214610326662 10.159788414244277
Al 9.66129920983816 13.949524215166697 9.279610218861077
Al 8.26224883569806 12.77647371243068 11.294054863564984
Al 7.838981259986104 8.181265834245279 12.531457581998799
Al 6.577835460018429 11.136147000084275 9.953676589801175
Al 7.645497956608799 10.320036985161192 7.642135883205691
Al 6.845237363196384 10.613576557009376 12.523656193361527
Al 7.430724112241609 13.009449789073841 8.356622011696
Al 7.851041897677097 8.820427408352169 9.960793404432424
