22
Energy = -65.19514842 eV
Al 6.584011662680551 13.006230337022474 12.513269189922703
Al 8.54916283903948 12.879701517583658 14.159257345857183
Al 10.74539555706502 11.100488336143368 11.342009310456062
Al 9.07626535472999 13.468272482298593 11.491140782594565
Al 9.836875413037745 10.705280576863695 14.185187179816738
Al 8.133633572178903 10.853362059983175 11.930530165397798
Al 13.450103322442198 10.701796767473837 6.916000122261967
Al 13.210988961246375 12.313280106604472 14.469464543420155
Al 13.242033817237619 12.11184264378769 11.73850131231042
Al 9.700633369676037 8.747514664280668 12.22058988032396
Al 15.387839030539698 11.391060241922379 13.370351286815573
Al 6.787372267330459 12.595197321597356 9.958571062282598
Al 11.40899317902164 10.682837293074575 8.627957428130378
Al 12.172433181734963 9.931008530052425 13.385488545471272
Al 15.618283755232133 11.388263217444472 10.630328029372132
Al 14.012261970626296 9.613359851166596 9.270404040125927
Al 11.135704550575207 13.127068909758131 13.182083335994264
Al 13.564455862725255 12.343276803238027 8.996572842639427
Al 14.275114716708933 9.46706171470533 11.927847878269711
Al 11.89599637305779 8.81782195978686 10.804191032726976
Al 9.163647438053584 11.79494792928725 9.245504845644748
Al 11.362543857453828 13.356876098904882 10.168026751108021
