23
Energy = -69.66078373 eV
Al 10.596688496867886 7.111277113806611 8.751091416432088
Al 7.9804394621224715 6.446800329096922 9.278518800951899
Al 9.603195347790003 6.358268733498563 11.356601065745929
Al 8.616383991796576 8.674697946125823 7.744681583831964
Al 11.08030365200591 8.560422161754705 6.464601980278151
Al 12.98657161991049 8.665430043863555 8.284388825999505
Al 9.012167593373814 8.8309393046982 10.501919342598677
Al 11.825941380863066 8.13969783185853 10.876419881949783
Al 6.467164021621436 8.581145536637237 9.36762848051526
Al 7.155543642791644 7.607064445367256 12.168175349821617
Al 9.686933146208325 10.776398271609727 6.443273127288805
Al 10.76035824623744 10.023954628599393 8.914510638865156
Al 12.576456696426431 11.302734801393607 7.245363253656546
Al 7.14706000922052 10.982071166358416 7.859952767102669
Al 10.17321940654062 8.281022318064144 13.070356649101125
Al 13.272294315049933 10.394518773439684 10.255697367497053
Al 7.144475418897684 10.780143835668774 10.639781650142165
Al 9.470866430234043 12.367364220443138 8.526027580311185
Al 10.874171581802036 10.563459439508307 11.649528606552627
Al 8.47884554668872 10.263173350071815 12.8457062140381
Al 11.697751269056651 12.459249646925981 9.921450009059354
Al 7.127728912470342 13.178696645097183 9.488725918556467
Al 9.12370900127686 12.635408842304894 11.277738683461084
