24
Energy = -71.99488439 eV
Al 12.858058107536126 10.576123279927579 8.157999220528982
Al 11.300600421587193 10.406334209301074 13.54580876372865
Al 8.633184339852876 10.888214215926231 7.027496275813863
Al 8.951540249324236 12.00058083588473 13.84647335850999
Al 10.663510736173304 11.962155261277227 8.867684236881143
Al 11.267317227103455 13.226814398822526 14.175375995754939
Al 8.692491676419039 10.064667226564438 9.670690938939131
Al 11.432798217296254 9.795290022636822 10.65028993596108
Al 14.09624012319912 8.992824764477199 9.770280285306292
Al 10.708882570552182 12.416033640694115 11.629258353039571
Al 12.048689442425697 14.104470015038507 9.75080476977444
Al 9.602243266403049 7.683363900014621 10.494998442360261
Al 12.844478026280655 14.132926503051197 12.204782074462358
Al 9.1581512415613 9.655591016440706 12.25952326683211
Al 9.476459701142325 14.314979162882144 9.931657937089478
Al 13.598036075271263 9.559523495936048 14.774402443916772
Al 11.979698638189076 7.579133401383408 9.27494466802109
Al 7.888288783755109 12.491668112580745 8.85781746139214
Al 13.667548805279788 11.880917050012052 13.327235985785704
Al 10.529548621729859 9.263715379243592 7.800406170414829
Al 13.753593101415651 9.407153834731183 12.234533774536674
Al 13.305607903555433 11.778832101712416 10.624893815286914
Al 12.472168610964442 11.63713324540575 15.799240081423589
Al 8.000707543114553 12.179375055426894 11.422901695545443
