22
Energy = -65.43456195 eV
Al 8.83309701423262 9.585792674582303 10.493585238143536
Al 8.37141252974428 7.023731297437974 11.50680808734329
Al 13.154011272936469 11.256030675314435 9.472666339650043
Al 9.680591248225074 8.945888952100688 13.143218189703902
Al 7.054902561813938 9.065382033699196 12.634256472358613
Al 11.025908513474475 10.697774674732223 11.501898959680059
Al 6.6962203751800145 11.270702940833544 11.269154385412984
Al 9.333104481094571 12.204514083615903 9.974917009249653
Al 13.359868628142145 14.094904094788033 8.868928819146099
Al 13.450159662279862 11.077396887645108 12.302828526497287
Al 10.966996162669597 9.929518337992926 8.837050813891944
Al 14.29304707143365 13.167249959354143 11.083949400576014
Al 13.371684854102925 8.792385446455615 10.318557550179552
Al 11.561281886876573 13.237333321554534 10.848614179101874
Al 7.118475074155255 10.999191601259678 8.748870760837733
Al 8.56435991243445 8.966875235361936 7.6392167615860584
Al 11.325694468122204 12.691894545906036 8.041529672952729
Al 9.21487322066623 6.970792893772404 9.03220999368496
Al 12.279405137132596 8.938750751284427 13.124628617044792
Al 9.297025255976376 11.477325355096372 7.246214752511354
Al 6.688293395637729 8.34516359190034 9.642194127236039
Al 11.014836226981705 7.916649598625071 10.923950296524085
