28
Energy = -85.49513926 eV
Al 8.85868653326507 14.272631958573486 10.215531340339687
Al 11.498305012628094 15.05416595213868 9.508616064676032
Al 7.772960250731538 11.923902931994741 9.571623311868166
Al 10.351308179886765 12.517680801906 8.928288189681172
Al 10.713863982862796 14.666253658234389 12.185784498234058
Al 9.45881931046127 12.101696968385001 11.670519224323101
Al 9.407825502396427 10.09917714309902 8.317088729678206
Al 12.156491279108433 12.784946422255619 10.89144384167713
Al 11.185925646257258 10.322320437462363 10.669630789364469
Al 12.07794299338435 14.663669959794156 14.47392309700661
Al 8.451389081162045 9.67028281166451 10.98845217558612
Al 11.354483966918236 12.200211179143677 13.467313407702944
Al 12.98612024479508 13.097001250186697 8.301124425730384
Al 13.843883231138195 14.036282222944514 12.65005932716524
Al 9.441692422836825 7.680618237324266 9.429257367965514
Al 11.950747808435503 10.774612077635688 7.503886446489122
Al 11.888367039308953 12.886818697745108 16.380591389104328
Al 14.840405673525552 13.254107414943588 10.272524244457719
Al 13.798289097404826 10.79239334296116 9.601407615358287
Al 12.010431729543711 8.458892934564929 8.857641911963768
Al 8.444304924357962 7.130864812658586 11.960294166349362
Al 11.124691954744053 10.474596258741562 15.556867113985803
Al 11.017814378323054 7.836928312885909 11.716294393019796
Al 13.974765275725883 11.285326620394251 12.18984360419983
Al 13.683462045300008 12.010851470427093 14.741012676714043
Al 9.82555347211407 9.819208370203931 13.249727848927465
Al 12.543934815589848 9.54007819658919 13.59822024999507
Al 13.441159321760015 8.748104729107698 11.206657722403348
