23
Energy = -68.94066672 eV
Al 9.771778814225634 11.498617414268304 6.692240593560184
Al 12.515678715033518 13.337530848451058 10.024143486737147
Al 8.054999470905218 13.48697524404922 7.298136810871823
Al 8.117766420316105 11.260750586652666 8.826972453730152
Al 10.451468858748434 13.36738072337146 8.502516072536652
Al 10.407478274634522 14.467239899368284 11.335550435210171
Al 8.226236435883928 13.714557562245188 10.072840447395617
Al 9.533318392414381 9.060831502854368 7.605501731512928
Al 11.474861342788353 10.699893047682234 8.757177808418383
Al 9.375591598141249 7.2394199396401895 11.77434624478177
Al 12.824648959260237 11.020573265378543 11.112464118995861
Al 13.182236434298076 7.684052089870089 13.955583368952654
Al 9.095067165363794 9.438330334925913 10.333518329096835
Al 10.867768571080257 7.567096712437887 9.361003529891647
Al 14.338975712036476 9.07540881512635 12.063288705119092
Al 10.18520708859586 11.852222788593382 10.765452075757782
Al 11.359881377353974 12.575007217437461 12.982273292090248
Al 13.351583710605519 8.776282368204262 9.552077294471777
Al 7.578950752092032 11.530387688046902 11.565872769723432
Al 9.650085701033607 10.193165912483126 12.83585630571352
Al 12.320578756228503 10.288699898153833 13.731943609959599
Al 11.698607372193356 8.527882182760933 11.641733490554222
Al 10.589677547582736 8.029002671684099 14.04478115719207
