26
Energy = -79.70655591 eV
Al 9.714454577610518 11.953865402004922 15.589424466918592
Al 11.50863795066313 9.989240608260552 14.795369354933841
Al 11.516603943551697 12.8505122124728 13.87421976244941
Al 8.617015276819824 10.123020353659847 14.12703543553251
Al 8.7001152963061 12.669424409548489 13.060504046629626
Al 13.300982505913455 10.93915260071525 13.020794340118492
Al 14.682704326208375 8.860177594985213 11.963694477669236
Al 11.963041737007153 8.53539708079706 12.39165011934794
Al 9.19841970038341 8.31813482089287 12.334227325839255
Al 12.321851036777767 12.931632926526444 11.36246146202173
Al 10.580627694857775 10.815709523372629 12.171139035800557
Al 10.337594085899703 14.665063798096668 12.157246826658852
Al 7.905097069742538 10.611707741469832 11.394742195422914
Al 9.30382145349241 12.667855929572598 10.489894775231859
Al 11.407756865605567 11.044562347865956 9.598992803770521
Al 10.352713969325992 8.582128857475267 10.074467395473954
Al 13.011489639827582 8.756679314289299 9.846950801555662
Al 8.73631426440545 10.495406130479926 8.77791445602318
Al 14.130439502956468 11.15560355620112 10.503379949870867
Al 11.00638319819115 14.587351902725809 9.610011802357338
Al 13.006078978848302 12.992506696163579 8.733957251111297
Al 13.964003722823367 10.480621816393402 7.854251156675623
Al 7.625931313645391 8.297676283938934 9.958738160356871
Al 9.934370710334061 12.741288650575589 7.901289165791981
Al 11.139608341140473 9.17983508788465 7.639396431374225
Al 11.867779237392076 11.58928075336118 6.602083400792626
