25
Energy = -76.45470406 eV
Al 6.190303396126911 10.96382984458113 9.751877087063793
Al 7.37583707080724 11.866041391467636 7.647851824104659
Al 6.47035646282648 8.776712133292774 11.135148269500432
Al 7.949548746763306 9.18524998474988 8.71280056442773
Al 9.855404817703764 12.981540817592837 7.817824145636845
Al 7.321355780938968 11.821504983290142 11.954537190428692
Al 9.403510928461477 10.37883555910825 6.807893111269545
Al 9.039328677930529 11.381865320799633 9.877127948714218
Al 7.623735037972608 7.1316543646421655 12.819804545227836
Al 8.560816304741861 7.059170946215338 10.148865105631625
Al 10.088053005936244 7.803588886793137 7.81434092703418
Al 8.732103138412189 9.617889847935118 12.229477996408153
Al 9.850505145828135 12.178190517569176 12.455146119054085
Al 10.475103036949527 9.156471464307499 10.138016733050938
Al 11.90805686423705 9.38776329135112 6.388303434873942
Al 10.207366083615439 7.335559567401849 12.275170060608328
Al 11.448693245866789 11.936058989983458 5.910258945450174
Al 11.317579346026767 12.944242092750079 10.278544587682493
Al 12.518419905627061 12.456937945570067 12.74613173818033
Al 12.860444373869155 10.669582283272153 10.723488900409574
Al 11.675494666825696 11.047529503160359 8.429003674791016
Al 12.730742155340158 8.544113713230619 8.756272205852914
Al 11.21230348167776 6.324325567011545 9.801552987317523
Al 11.353482064010079 9.943981846024414 12.816634562183598
Al 12.714339837259205 7.99024271365401 11.446810910851628
