20
Energy = -59.44963523 eV
Al 10.339108847483294 12.492456127557713 7.192597017969377
Al 10.090743244859151 9.866198791707143 7.257169947786906
Al 12.126836283484973 11.16326564765256 8.77015108005083
Al 10.105096384005682 8.812902837669688 9.772199037253728
Al 8.99587295946627 11.475923349260652 9.32404481125161
Al 10.915158797930912 13.337083923016229 9.712497311240734
Al 7.771742111636759 9.168837864731175 8.440495877361032
Al 12.33256334604325 8.534602511568101 8.109156417546863
Al 14.37589520029143 9.706881930556296 9.26930627757059
Al 10.875744622182527 11.145642895048129 11.290466762454153
Al 12.428336948335167 8.836208851342573 10.921185080396066
Al 13.58440988511988 11.349745767562613 11.139349285888544
Al 7.85644720860121 9.520160634746665 11.04410308414834
Al 10.217970098482557 13.701753358352601 12.27636712304419
Al 8.240783201565083 12.025436890885274 11.968471346553695
Al 10.149122484262382 8.810843240485042 12.492725105876525
Al 12.38309797419982 12.549723755623297 13.212377602470832
Al 12.456364630997486 9.832135298457887 13.473076610367551
Al 7.970670010271179 9.720557907480853 13.773045568236569
Al 10.115983610682655 11.281586266197184 13.89316250243379
