24
Energy = -71.76179191 eV
Al 10.842621799258385 12.44244607792607 6.153352889448951
Al 10.53978346352694 10.252085244162867 7.557398177583936
Al 12.216235640103406 12.302243957152728 8.450876969283437
Al 13.442745101506416 10.914389114909163 10.42927964201716
Al 9.359282208185295 8.229276193549794 8.663455273012753
Al 9.50809211649132 12.854325689518497 8.402987398218233
Al 12.137882079315188 8.63231774891534 9.464497704999912
Al 14.419745192422502 8.306244957167646 10.712244677500301
Al 10.824132779725332 10.77801033095406 10.443505086096561
Al 7.661135518591784 13.199949938796102 10.26913427652775
Al 10.388933862345572 13.417241545140529 10.960286464291944
Al 8.349018707688966 10.582116776125662 9.538507667644705
Al 14.516006963431682 9.97313156738605 12.747222774084772
Al 12.973318083819649 13.59045745379707 10.84077951662168
Al 6.1938874799676595 11.009077843736824 11.020973652068173
Al 9.651331731031975 8.473297287121735 11.258257869647261
Al 11.832206137942139 11.890346999072712 12.713338746435204
Al 8.818171560982252 11.675332303949494 12.110786335917762
Al 7.003491984755643 8.266983169750562 10.197137749793962
Al 12.1620435985744 8.972796983637478 12.150551197372353
Al 14.498260567986723 12.560924576681117 12.670279224296719
Al 7.606770356534227 9.352011481937511 12.683223366053424
Al 10.160124616721275 9.83791021585571 13.583569889513614
Al 12.581482538130725 10.17378663179444 14.665057540608446
