23
Energy = -69.72402125 eV
Al 14.543116597298164 9.829896463136174 12.660994432176489
Al 13.537558385172943 9.214605596895177 10.235615345895305
Al 13.20787761267696 11.732337647363824 11.24325362162332
Al 12.989830754286764 11.499852420677344 13.942371138621874
Al 12.98015261459636 11.12615604581825 8.526763384126836
Al 11.77685412832818 9.52540822582815 12.50074049830975
Al 11.441583285596321 13.160274980440361 9.95189295693375
Al 11.292039983198618 7.877533882354984 10.135355545228789
Al 10.893175210271874 12.352778208635298 12.555469800389435
Al 10.908785139605563 12.091264561863419 7.278249153979413
Al 10.76037324979765 10.616317920817849 10.163445761271028
Al 9.986071179050027 6.8754287763660775 8.003663010083676
Al 9.21800706563347 13.74605401015208 8.49157731577302
Al 9.820701670962343 7.818805875073503 12.477291724166461
Al 8.875251438697028 12.81590840840874 10.993620204350115
Al 10.57275251211297 9.418981806283549 7.692661865106973
Al 8.830367854489477 6.52080573853363 10.351565695975427
Al 9.088074676080135 10.356807237470587 12.33395410069185
Al 8.54896864164311 11.18795916306922 8.337455977681675
Al 7.249568384946583 8.37198214960919 11.739881532448594
Al 6.766383622375079 13.145895396360233 9.290207713995882
Al 8.613786848479112 8.890803077907627 9.449395394388338
Al 7.046401135958151 10.771824398191466 10.592255818038726
