23
Energy = -69.16859452 eV
Al 9.15324986300305 14.104968072262732 10.195298968463375
Al 8.39487362036505 12.285388822989868 12.085278697193498
Al 8.376321470230467 10.36453262145663 13.830648076064094
Al 7.833977936612686 9.19997467873738 8.612759791251813
Al 10.44875208973029 13.051832618992414 8.180859417501518
Al 8.081662453206748 9.435259024929039 11.286301116881695
Al 13.055847475331046 12.663860805092638 8.759532863960589
Al 10.34366135809697 12.241011974494132 14.010576881008461
Al 13.529803811529442 7.795502183842173 10.342345370434167
Al 14.239727787786109 12.257370351431172 11.000858051388686
Al 11.899569665244819 10.63924202247669 7.544955913415991
Al 14.819233526029658 9.747863918304576 11.6424895729473
Al 10.15631684648647 14.44926937713176 12.669402516145023
Al 9.281770851386247 10.827113512285695 7.101987205214981
Al 9.820872556209387 8.217597787955318 13.330472625162804
Al 11.391577834543483 12.727096991621652 10.911456136730585
Al 10.392833234550448 9.041428589653503 9.058638391049524
Al 12.52718141645807 10.299527003887464 10.19641855153425
Al 8.985389767694206 11.417585212346268 9.685679788624272
Al 10.466044477344044 10.389856382098902 11.9151698570286
Al 12.692433578809114 11.569108535215182 13.050815339760733
Al 12.56220219554056 8.917826648628186 12.817101315828612
Al 10.96852461507099 7.550789671470565 11.09996337017441
