25
Energy = -76.5795014 eV
Al 7.16051095282933 11.645477755500837 13.744152961622742
Al 6.65330961254577 12.02803452984849 11.166134217201385
Al 9.652005780800303 10.79455694388744 14.081060305453022
Al 10.578872543962712 8.674462607834398 12.644291795126993
Al 8.136800410767272 9.812967311747409 12.037019332642071
Al 9.149088473461394 12.542863851741643 12.014453185679539
Al 8.426346274446306 12.781993374371462 9.401016682326352
Al 12.13220072408372 10.03181503451858 14.505822441537882
Al 13.072337432522673 9.486803185008627 12.11262862240281
Al 11.677659735555707 11.871545278304813 12.504907114775003
Al 7.836471028571597 10.03756501608918 9.302081134637174
Al 9.007137056301241 7.730575370289356 10.838773169411123
Al 11.042656587422469 13.199061642114495 10.296208821052963
Al 10.410673779579373 10.426944105328214 10.410780476708306
Al 7.6070572767131175 7.397038392337878 8.610931603681701
Al 13.13128771602868 11.54290515953027 10.327143248924875
Al 11.722080523144813 7.9188058286346354 10.20850887508792
Al 10.129430419119002 14.009771904600996 7.816437385932673
Al 9.848044179105159 11.237389843767552 7.746171946467202
Al 10.041084684242172 6.200694664004028 8.901577949921696
Al 9.86432148074342 8.672226235709333 7.955131137531297
Al 14.370814343802314 9.208551089302494 9.862250012629325
Al 12.267042856114196 12.484988185194611 7.897299492788724
Al 12.149615124161768 9.78262143863286 8.231719436491352
Al 14.49749621292092 11.044686460645988 7.947843858911011
