26
Energy = -78.62203369 eV
Al 14.01972096616149 12.46098408406315 10.431090025652983
Al 13.36069644662647 10.72116533696259 8.646562642121543
Al 13.29958510683491 9.760887981306169 11.245294656095371
Al 11.483641143797827 12.993879652642168 8.362730761913863
Al 12.935727391744388 12.085388245424687 12.838277218676728
Al 11.821786559319444 13.965506016707412 10.943003914519034
Al 11.179663186041974 11.42330238058108 10.551067644536444
Al 11.201007184473163 9.973402124736989 13.008927212545562
Al 10.840977980505006 10.408775509746404 7.9347225399656605
Al 12.595296613345253 8.18832408470199 8.824007044462745
Al 10.369527533090052 12.748205382480968 13.000295192131516
Al 8.781552635947875 12.241000637294468 8.343807850244035
Al 12.078913075662344 7.432528960628669 11.871819651392789
Al 10.401626205588451 8.898755299143183 10.449874273971007
Al 10.10416554984928 7.955368942539557 7.596148217977599
Al 8.973929583161564 13.151213998820849 10.812733620425556
Al 9.536819055450376 7.9500149617177005 12.882274726525429
Al 8.455806635397291 9.670419721768678 9.035022097047944
Al 8.799853873816527 10.70820085579787 12.047249405536967
Al 10.835862542981037 6.389377129011263 9.78341050474301
Al 6.562860539184993 10.703762177257886 7.601383935759797
Al 8.1733427828434 6.916120476245202 9.282059727426871
Al 7.416219248434903 8.13666511799784 6.902786000346874
Al 6.815385229483855 11.38261252473204 10.340521617619546
Al 7.442603145249077 8.586291463731463 11.395690746547915
Al 5.8993786019517165 8.531799967001898 9.243344918877678
