23
Energy = -69.97337133 eV
Al 8.34758797627289 10.217383103795012 7.408324705436719
Al 8.972246275975841 12.687625360933808 7.951785717728762
Al 11.175895874039428 10.651316846772886 6.814221283833228
Al 7.0939570113847585 8.500411418778116 9.209934434411371
Al 11.678254117504983 13.057395742603426 8.332677790675763
Al 7.390914678141911 7.852350440530324 6.642309903666348
Al 9.20999257403895 6.925468244242897 8.639855265063046
Al 7.675357838856113 11.997970255988042 12.46454960540089
Al 10.485362295026732 10.799093830329314 9.305579075067222
Al 13.212218095334507 10.576917084131509 8.743790152496686
Al 9.970331332999558 8.294171550036944 6.484594991124947
Al 12.274282078505921 12.162322987864622 10.798629364332305
Al 9.563684599636447 13.150221628523802 10.59574276356311
Al 11.677580545250297 8.329582562132936 8.577652126241485
Al 9.545298142736252 8.83438593871665 10.591151852312235
Al 11.190185909562054 6.530719780458126 10.441323771399125
Al 7.885743333016302 11.08229745020131 9.900209603923575
Al 6.867940487091888 9.366533471144834 11.653529941248875
Al 12.309036516704017 9.411858927356173 11.035812931890304
Al 8.396242282403986 6.683756371678558 11.361667226933514
Al 10.278004722400478 10.995901398073865 12.10340515596949
Al 11.069868706455962 7.8949505599001455 12.79311588502282
Al 8.864968430032206 9.136186808634976 13.285056182230454
