22
Energy = -66.34829593 eV
Al 13.668552580176625 12.564872201263878 9.607616980634054
Al 11.969111677858711 12.304160343564638 7.599647223010779
Al 12.454861282660028 14.696425986169674 10.453370372321697
Al 12.148157317144605 12.647529818626825 12.356960392900348
Al 13.362052732162256 10.307604881648652 10.93706805209495
Al 10.411077551230452 14.745720546362222 8.664794572932138
Al 12.64466563675798 10.4977425120701 13.80221095354337
Al 10.177178554773052 14.615428566662828 11.754228845422178
Al 9.367131491812811 12.005098491589209 7.765045177908549
Al 10.928844756420917 12.413752780652187 10.06751408648494
Al 8.468495537166932 13.52987026927495 9.981058321242594
Al 11.096141350840838 9.977648653025163 8.885783666237344
Al 10.888058955465985 10.048786658932563 11.680088029969406
Al 13.025949462137676 8.158290807163654 12.687438765177198
Al 9.299794944849173 12.150501610592901 12.295148944495109
Al 10.312759288451192 7.7748329238853575 13.080316896823533
Al 8.65842155988408 10.737794712780287 10.00873980379912
Al 10.016787381477972 10.275478059833677 14.22952229460334
Al 9.597820055778223 8.001919032675767 10.44036647995581
Al 12.249146876242273 7.92453033812204 10.136584576453366
Al 8.229661476354453 9.47409516789684 12.359280783516398
Al 11.740659949055114 5.86324605590809 11.922545199175438
