20
Energy = -59.77263799 eV
Al 12.740920306875342 8.551917162370296 8.209368053824832
Al 10.757480348282352 10.409528824810224 7.986113957041535
Al 11.3015753109305 8.36898893525594 10.52210851234254
Al 11.608700124462235 11.238571671678267 10.634393195787919
Al 8.845862619041572 12.238251720829158 7.491727845959954
Al 13.677318181920963 9.567570948349244 10.606694563398284
Al 8.116610486584255 9.465845245250565 7.312768316648799
Al 10.02970867715848 7.864687819614469 12.848743013553861
Al 13.218540599607667 11.272405628512193 8.512877016338853
Al 9.78638733080876 10.661510842541881 12.40121733160917
Al 9.051069320416696 9.750510733423734 9.972307502781954
Al 7.613798888147107 8.823213033028656 12.200156015483339
Al 12.23075789613467 9.500456601085778 12.898370295378305
Al 11.24510777420772 13.125730354248304 8.457349671297273
Al 7.210264177042354 11.374559210695807 11.727884422746843
Al 10.126265402974646 7.857616836012449 8.212156738946296
Al 8.802112124892142 6.956582267204546 10.415266950297921
Al 9.310811398380237 12.41620143488682 10.297848559392744
Al 6.744005150589174 8.553671940658825 9.52041667864062
Al 6.921599993349842 11.341074901349126 9.111127470335667
