21
Energy = -62.14946715 eV
Al 11.621357593917532 11.439221253185954 6.9159945511692555
Al 13.05324211934507 9.913481669636806 8.626117639306417
Al 12.643786755196414 12.463171937939626 9.650373041177842
Al 8.965811661597092 11.788157144600948 7.209537551209287
Al 10.30048123773081 13.613051540279258 8.885476515047968
Al 10.638707319631783 8.904974952133959 7.251695378084255
Al 10.550114371653285 10.844712867672943 9.204273611715253
Al 10.629850647978511 6.129636560629034 8.262506164085336
Al 8.412863565964816 7.280617743054217 7.558952331975396
Al 11.461244406530943 8.091828044998035 9.82785611455344
Al 12.136144355226545 10.233164824499415 11.399414461719209
Al 8.055078216041018 9.685704780978286 8.65791985635624
Al 9.409081047868666 9.785694661810497 11.12287770690794
Al 8.81182384542083 7.226971382223574 10.307956139312603
Al 8.241132566944744 12.076072621519971 10.105450432729198
Al 10.521808643760547 12.37110041006359 11.61894856977018
Al 10.79249527538048 7.828974565203771 12.431360964688812
Al 6.702715509675697 9.671613990276398 11.0058228327723
Al 10.288447850907371 10.295608739304708 13.608023642905712
Al 8.140366438381893 8.228922081672993 12.766274490194366
Al 7.93130343871784 11.426235056886538 12.851161736630566
