25
Energy = -75.58434815 eV
Al 7.396813343810264 9.546351121677077 6.438573793730726
Al 10.207574807769092 10.738342776542444 5.664465574521277
Al 9.558801255158022 7.9501747838650365 6.048909305937552
Al 11.9865566481288 8.629095097586031 7.102306388998048
Al 5.339779288104677 8.151820269741162 7.865920084111267
Al 8.189624940634527 11.946346366513112 7.435744262870574
Al 10.314486666906413 6.906294987026378 8.468909526000495
Al 7.826075023156281 7.324196339640191 8.072419155131765
Al 11.929876973466289 11.215022905304453 7.983394136084896
Al 10.207353492481547 13.130312228076278 8.76451886810375
Al 12.921804433400117 6.678983126713251 8.97985755868965
Al 9.624691393643856 9.774760021184925 8.192172453151
Al 6.839253199048625 10.016890185419829 9.071914400900349
Al 11.909853596468706 9.015834748464327 9.808528351577488
Al 8.322497812485189 11.739029668989174 10.210918479957243
Al 11.133770360429988 11.277017956672525 10.66275307231934
Al 8.546902499740451 5.986700937731847 10.347706741145414
Al 9.09285379692499 8.746798556391358 10.451404568066353
Al 6.444865143441536 7.702764049517152 10.468431868704346
Al 11.037619901105206 6.785830837129022 11.131753705181994
Al 9.937755707009744 13.479045907410542 11.393041440340594
Al 7.123440062342809 9.893010217145788 11.921715234055117
Al 10.878926021130873 9.16133089976865 12.470885028149207
Al 9.261652313008732 11.292193042192135 12.760495843290938
Al 8.515716746214546 7.4603983953092 12.83180558499235
