29
Energy = -86.6886463 eV
Al 10.908809911339567 13.614198619058454 13.668311255842195
Al 9.440584365937418 11.287754758024429 13.663172443863006
Al 13.579354987956238 13.3581918850547 13.574585002201017
Al 10.74420846166805 8.85720272547733 13.57851185646821
Al 14.940706204389965 11.096580901316644 13.436711610622902
Al 13.43833664932246 8.917614515611666 13.509308842715143
Al 12.364233805211166 14.080977518995264 11.232674151005716
Al 10.16947521493656 12.591182954625783 11.315029678590106
Al 14.529221547595276 12.50482928803832 11.07981622016555
Al 10.067772621998675 10.010715309677579 11.261310188289228
Al 14.446499347731832 9.792946455372395 11.038519141762487
Al 12.171836966511945 8.391426293653954 11.122127289904563
Al 10.661750085553047 13.708730780929974 8.935034236447684
Al 13.326619703797698 13.45159247117103 8.73164650362036
Al 9.192441028405957 11.377789525145456 8.994388905019468
Al 14.68473983524349 11.18206194588398 8.65024142266638
Al 10.49873190041687 8.954321330101674 8.838287988178976
Al 13.176439564321777 9.016101822671528 8.65443613402901
Al 11.887457386966132 11.163053658070124 15.00156165446446
Al 12.32894799903689 11.189039632022551 12.481032604984874
Al 12.185940585967426 11.252824068141312 9.861122724848247
Al 11.479623473158437 11.328110871502114 7.400921172895429
Al 9.964761014277848 15.279543253337867 11.363840795812978
Al 8.091079516442594 13.727947695063891 10.045966034547977
Al 8.243048356048233 13.676145778131842 12.825969947441617
Al 7.665052343722235 11.382616458721511 11.412840111835138
Al 8.06433252111186 9.005474090834362 12.76024853805086
Al 7.927672009514608 9.053376323242265 9.961432439492267
Al 9.70048033708287 7.349202229265242 11.24215041213575
