20
Energy = -59.64661519 eV
Al 12.68455773788835 12.365281022004476 10.174689275297109
Al 10.370001677831551 13.480871158620426 10.603739466524287
Al 8.628875278243905 12.662585349235918 8.710250608028783
Al 12.45290072283318 10.790372627728695 7.979707815880672
Al 12.829816989313143 8.343419028112079 8.826627470343052
Al 6.80291416996692 11.325548729127412 10.015617883590597
Al 10.951424629960856 10.97967563187364 12.328244465200873
Al 10.369538686291977 10.815000883067638 9.75143521020853
Al 10.077297342794973 11.278684442341238 7.064523590363511
Al 13.134457473268384 9.91592675770925 11.01455164942938
Al 8.504340892121398 12.197828399517865 11.94187441196269
Al 10.447257658137735 8.70772251273242 7.891031699066264
Al 8.677689812700967 9.536286589478213 11.637223634604945
Al 8.133869750260148 9.856136350034125 8.350499615171342
Al 13.135787654503066 7.0997954002817325 11.253254504960628
Al 10.905137419181871 8.431590914251654 11.198012906348653
Al 6.4158751461075925 10.408128596530398 12.574151378260405
Al 11.145023577933065 6.398793720297034 9.397773262051441
Al 8.738895733181346 7.499958908862083 9.79714655008629
Al 6.425974432257854 8.738029762971836 10.321281387398253
