28
Energy = -86.70389322 eV
Al 7.886145075335 11.936260301108259 13.957940108384596
Al 9.84225136156429 10.13590112456915 14.252410539000667
Al 11.524056808202173 8.049379397129412 14.45828282243102
Al 9.997560444179344 8.022554390182668 12.306069028239085
Al 8.2333672084458 10.0608049613692 12.030319922225704
Al 6.310033210227399 11.976911960171744 11.67363468528189
Al 8.589249427157087 8.204992301428154 10.108994400319737
Al 6.716270371502004 10.205824317816582 9.713770084316842
Al 7.164429810108365 8.465051584765677 7.803920580356998
Al 8.127120210424803 14.01504211938558 12.113775200786739
Al 12.869611145060535 7.9345490114381265 12.134740836778567
Al 10.149226686420386 12.260427097937963 12.482315094312776
Al 12.064042243368295 10.421877156572034 12.765175812729279
Al 11.25329527553682 7.854664961669208 9.915187890662718
Al 13.937174494812771 7.553315303949208 9.719770326139967
Al 10.290991539710516 14.295190503156435 10.577830361754343
Al 8.476283948029568 12.323624702045986 10.02477459473023
Al 8.844976691578676 10.60205592618964 7.984961625521497
Al 9.738596210043404 8.011378384314114 7.601133575773395
Al 10.405690489494534 10.419427448086088 10.401483559105603
Al 13.167620547814803 10.06979968792224 10.362980962014607
Al 12.371457611355362 7.568042213075737 7.43251779789113
Al 11.499150189305373 10.128195906293453 7.906825840472923
Al 12.288872274860095 12.528748613455186 10.905283637385972
Al 12.222131373107857 14.531790864105549 8.733099812375551
Al 14.162181775285413 9.634890189692939 7.886208216728751
Al 10.48417426499587 12.623687455729645 8.223252543839392
Al 13.318850962421186 12.100423766788643 8.458151790787603
