29
Energy = -88.896799 eV
Al 10.578549715515736 6.252806949445012 9.659827037008428
Al 9.99978462859869 7.004851478591498 12.152077037732571
Al 12.537430178913985 7.226076501583161 11.433445471522095
Al 8.128954179359033 7.55410749987156 10.280225379581656
Al 14.692633606187465 8.294408898779407 10.246522595851552
Al 9.23848014507983 7.900266405091824 7.832447049000281
Al 11.370828908720032 8.865713568463416 13.527453284469066
Al 8.674380551746737 9.322226670873434 12.499097342321239
Al 10.535558326058878 8.84039262752172 10.140515658421265
Al 12.603601954938888 7.830899977172592 8.601691187625288
Al 6.673260006949494 9.064368656943715 7.950847286987522
Al 13.59586261006574 9.760878976592746 12.188806481344907
Al 6.517749530014481 9.515927178115968 10.861919945695455
Al 12.818073161635207 10.348955665305024 9.697275521226821
Al 10.825351956197705 10.816795839730013 11.61140086600695
Al 11.149972726666025 9.944655867084176 7.631359364870913
Al 8.79665228144337 9.755244860037383 6.037637238257311
Al 8.658904966455347 10.506565964461592 8.949175148492396
Al 12.265814680881608 12.49018211485597 8.047593049726405
Al 5.984928536791198 11.455237010615997 9.313937558291729
Al 8.09614047032178 11.835333025796672 11.235514587605854
Al 10.104996633100699 12.767333244552574 9.646320796392853
Al 12.476531459451008 12.782268052024774 10.857976158662144
Al 9.812248860829563 11.03870019618216 14.248206783651614
Al 12.392012704423733 11.507859610494643 13.792995605492525
Al 7.002645415666476 11.585282277351114 6.717903855834312
Al 9.756483905234965 12.215654500294669 6.993182731777996
Al 10.127803862474078 13.211633553652412 12.401531263114721
Al 7.704375014781246 13.413458872899383 8.565086051431662
