29
Energy = -88.57614331 eV
Al 11.230652959869635 9.15046566494559 7.083892932197174
Al 11.322564191118317 11.366494142017833 9.80309280624124
Al 13.547709988491265 10.523862088821058 7.982450531271828
Al 9.15074451447531 10.539856947108733 8.190474129919911
Al 11.117233502130583 6.507865273139775 7.816650473429358
Al 8.881976485512519 9.725101726026653 13.57280398510995
Al 8.823488482294337 7.880981064043181 7.700226370956954
Al 10.46022753695683 8.587867344643108 9.759412173487869
Al 12.396988953910421 7.523483632299072 11.352533447002468
Al 13.549531555361161 9.899736517412979 10.7484737832176
Al 10.648777194515123 5.749384082717128 10.372293265238113
Al 12.094858204223446 13.919392208267498 8.620209903261971
Al 14.025293535517795 12.438153032351783 9.805165234348339
Al 8.782165642536821 10.617143640410315 11.001003539261456
Al 7.113488319988564 11.956010897607447 9.312139717463584
Al 10.894672559007574 14.061762935798443 11.018198640873269
Al 8.153987821508357 6.7070340202912195 10.104288470500842
Al 10.072700375921794 12.184603809598107 12.983767637865869
Al 12.617421073080067 12.170400119363121 12.062740625659014
Al 9.778156702004459 7.513667322871569 12.293870992246982
Al 8.238166815785299 13.531069416500051 11.27999713974987
Al 7.085323282197935 8.34431295830783 11.997084623279747
Al 7.04752658369404 9.17789497874724 9.28547665364207
Al 11.223492053280511 9.833448477000134 12.185136304053202
Al 7.358681447437987 11.892721629957228 13.218674046947928
Al 13.193045948463201 7.935295405485026 8.745182348465095
Al 11.284822541865354 11.857584802414344 7.123524975688113
Al 9.447423632054939 13.204178577068351 8.735441521909067
Al 5.897653993620583 10.652094117921958 11.30811075369732
