28
Energy = -86.13529267 eV
Al 9.883089469183709 10.590373221519691 6.966550920862347
Al 7.782563829472649 12.591586703210224 10.651147305691222
Al 9.041607290995607 12.774774340401333 8.362033506572963
Al 9.071125203592969 8.133157649923307 7.136938012449699
Al 8.786134173698132 14.056100993452823 12.742426166621488
Al 10.729559176432655 13.046521772340581 6.24789444546037
Al 12.543471993134306 11.086989950201989 6.582716380338543
Al 10.374210393997089 13.946844903802546 10.605810669738517
Al 11.864184051874153 12.820738994552222 8.674994059868007
Al 6.7876758564205115 10.189782382562239 11.36954560135017
Al 11.0221205368249 12.541000230363862 12.950178129519887
Al 8.19559054649398 10.12215376793025 9.062608243076959
Al 8.50097331138102 11.440406110311375 13.086792463307443
Al 10.307686677992344 11.293107769365726 10.543767548169987
Al 12.0605751683297 8.44967556699916 6.858047929654344
Al 10.707877369258476 9.006567402791973 9.125033851868293
Al 9.331912615098002 9.050104601406387 11.497571906372034
Al 8.490483222509969 7.258369241670891 9.568633418781104
Al 12.847178573064976 12.128269506871273 11.09494772984341
Al 10.844511179960723 6.34526340763513 8.203207562120362
Al 7.077870578380086 7.647654138835512 11.784554307290872
Al 8.09616559537513 8.933523169478587 13.877934471003899
Al 13.101148849402875 10.30934173267855 9.107705306756523
Al 10.815183351288637 9.991018709086166 13.644476747976286
Al 13.048427707347532 7.650810186941336 9.377079635764636
Al 12.16504096949635 9.234401300782563 11.475749782183046
Al 10.937374439121612 6.8150959810700895 10.84714559678421
Al 10.44871761445499 7.391988967074853 13.412368868765542
