22
Energy = -65.41755949 eV
Al 13.067468843547479 10.764509189837744 10.497073855573692
Al 11.053944913044134 8.849410780259115 10.11637589704354
Al 13.589403180390898 8.300778771151219 9.505355411755186
Al 10.350953532187036 7.297105600590582 12.21341453118934
Al 7.892705684184015 13.096675898085243 11.135789426091641
Al 11.618936720823978 8.413898065793527 14.453630424042329
Al 8.478806811176845 8.801420239975519 10.675409490376456
Al 7.501578909205319 10.754898159378948 12.303012908992413
Al 12.064629489927839 10.748099619576303 13.030276320002729
Al 5.721521519748714 9.43083673014108 10.787776590326326
Al 9.67561192255961 10.26113311045853 8.397957956258601
Al 13.996559549040324 11.440724493147473 8.010270576399016
Al 10.107590544705829 11.348788304585701 10.980098186632002
Al 12.131324332848594 9.6842802348128 7.755623420919475
Al 9.650730003769928 9.728989806658216 13.233136774708926
Al 10.211609919238755 14.201261078526306 10.625163564274214
Al 12.89159007996615 8.37174045819258 12.047861602571798
Al 12.340510582954527 13.02522521935717 11.770842926892826
Al 11.534246541663121 12.36697444751803 8.77453795689746
Al 7.249086353546204 10.948219097254619 9.385613667377717
Al 13.8988658144811 13.373367157721399 9.680630485026146
Al 8.986705136997433 12.806043922984676 8.6345284126557
