29
Energy = -89.6070105 eV
Al 14.256664191619517 9.78522080948198 8.341637811819183
Al 13.935635017031617 10.639353095528456 10.735237486296782
Al 14.239158560601226 11.737056636454021 13.049481284505976
Al 12.896132640146273 9.192840549888148 12.881674037795568
Al 12.881461936095087 8.101679545948233 10.296886118411093
Al 12.546631454210951 7.888349777788622 7.62193587895413
Al 12.230479613564505 11.314236919259445 14.698721885510658
Al 12.531664239631326 10.80258620868818 6.581346405548265
Al 12.789969462406537 12.40407584350538 8.661036250928781
Al 13.087927843013327 13.331172508894102 11.130351286432784
Al 10.469775504572182 9.129342164775812 6.478997765930515
Al 11.349139952965277 10.123561033996932 9.256781926295211
Al 11.43256621961023 11.28678208881153 12.0229692579899
Al 10.358214530923634 7.549181437796046 9.056696046056834
Al 10.549203534373024 8.577268433574734 11.554459255641813
Al 10.907737613769457 13.977411759524063 12.434488215187786
Al 8.033048450465193 7.962806433206711 10.26933406262788
Al 10.47197935467996 12.77544632749373 10.019574534851232
Al 8.85880601980445 10.545994721222701 10.890704633105146
Al 9.85480980751104 12.46425422502882 14.290701867956319
Al 10.231084845125485 11.888828766979906 7.4858147978660625
Al 8.600633216397313 9.738672740115732 8.126641458967047
Al 10.306010450081265 9.674697284372956 13.954043180264078
Al 8.11157862592231 8.672108842625711 12.789229310225744
Al 8.463144085273647 13.148447817387911 11.711525109566503
Al 7.929910436297175 12.285980671769778 9.05322589291797
Al 6.337418450906115 9.92119792672988 9.359181615881232
Al 6.326839581036392 11.644412784593364 11.357951469141758
Al 7.708022239475752 11.132680522067378 13.585019030833859
