23
Energy = -68.71957723 eV
Al 8.18221936228002 9.398587243944322 9.169989178696623
Al 12.764508976533499 7.106515371416323 10.226563126854288
Al 8.890576321544591 7.9970681342178125 11.738968130731953
Al 10.441591295547141 8.151797679553844 9.584828233934294
Al 10.42908269853182 10.61658146531067 8.462445009515132
Al 10.535637751336429 13.272867295079621 8.723176824324241
Al 12.61708032339207 8.743791437884257 8.058473510756984
Al 12.283571985272333 13.652752106954848 13.018044852235148
Al 12.667445989554116 9.825807880608268 10.48068497373601
Al 10.05134224135081 10.590546084444636 11.378646111370466
Al 12.256970098077753 12.223273848278119 15.31933362612049
Al 12.461954092715166 12.365474896060089 10.602771274463901
Al 11.525437350256256 8.405132557739947 12.479006089327392
Al 7.278852994701225 10.121818204560364 11.532885653621106
Al 7.883578819221262 12.383460474148002 12.462955158848152
Al 12.967632066294955 11.34007630053884 8.082748775273869
Al 12.334072441350596 10.847412688866008 12.962687247431422
Al 13.050042501354119 13.912709263232717 8.341566244625048
Al 10.02116647209474 12.396134912760251 13.901404804218199
Al 10.631006527424384 5.991073517089797 11.479880230125888
Al 8.45053217507054 12.028610210178021 9.773826989125201
Al 12.158227215870802 14.978306151150765 10.583671506985956
Al 10.059741213620546 13.591238581733391 11.426583744842706
