29
Energy = -89.58747278 eV
Al 13.67366632555296 11.002930709400324 13.748818426487613
Al 13.830490225361784 8.376231673302255 13.319680974333178
Al 14.59298475246695 9.866099099252677 11.231940106737262
Al 14.73713339842501 12.453384268993883 11.522581119059762
Al 14.501732000132494 7.10199512621553 11.092533567638233
Al 10.973048330696592 11.35565734922152 14.317693191395733
Al 11.663630315661685 8.827025166992529 14.627985401135541
Al 11.713386629624344 10.033859197122073 11.87187984874727
Al 12.256855986885668 12.809730028072519 12.419030565669598
Al 9.589368384403127 8.667236197097944 12.852042914476762
Al 11.777208695838604 7.276773853870958 11.897775457021716
Al 13.213450244105186 14.050773270720885 10.099431395997325
Al 12.730574931702181 11.388448464599593 9.795122445523633
Al 12.846492701362449 8.632756257586202 9.615350502022055
Al 10.19180147649654 8.160886164598582 10.014029908193582
Al 10.000177323343927 13.767558520861797 13.537254810659034
Al 9.884872093089001 11.196589400461178 9.693105909674745
Al 11.424669615850535 13.134826036914461 8.282133244794453
Al 9.270521171730064 11.478308806297516 12.277106564798295
Al 9.790706567915619 11.757082304485253 6.740141154239153
Al 11.319531811583142 9.805283270008804 7.856644372774928
Al 10.616272782660396 13.867135766029126 10.78959747454667
Al 7.971809688433629 9.431365197619288 10.954334671684968
Al 8.131932113035447 14.012428012447058 11.703270722669698
Al 7.46874091219348 11.643444783711995 7.8450442701678975
Al 8.645684617364344 9.210509772846223 8.194998461602175
Al 8.783625631096845 13.720673008369682 8.881948256644403
Al 7.152066202932786 11.936358698175779 10.486014958645924
Al 6.029269997557463 9.816354522226316 9.114214230160806
