20
Energy = -60.447036 eV
Al 12.265144657098066 7.44629101437563 11.231099956929553
Al 9.560659920110895 6.575656259206349 10.786623002662232
Al 9.989647152512166 7.962131166928011 12.946551088793024
Al 11.055081797410255 6.96225000126497 8.669100631256551
Al 13.000211023881159 8.729274318732747 8.751660914071563
Al 11.888231218722458 9.742547331518422 13.010065070766963
Al 13.41883021341618 10.088527981624628 10.93439769153254
Al 10.708151387970586 9.217809241990501 10.458246303459083
Al 8.13615318193487 9.508217049303191 11.613420565148457
Al 8.432569642809593 8.33609324670927 8.961115955496158
Al 7.970484398111653 10.312117992733835 7.098127933991549
Al 11.749980713731649 11.602937913579801 9.340331946388586
Al 10.591010522884664 9.610878676494728 7.6111670697937575
Al 9.12207921591727 10.915227166116525 9.506180299895203
Al 10.22166223634704 11.619607172889602 11.885516690528805
Al 6.4771948280798854 10.224960532773546 9.53676199836455
Al 10.005847274288033 12.300118995989335 7.322122013858901
Al 9.814566113780135 13.527943837254929 9.926568382460891
Al 7.549691331426869 12.618520364408893 8.603949949242608
Al 7.574568857627359 12.230655424166294 11.33875822341953
