27
Energy = -82.5225119 eV
Al 14.430177653394152 13.590815593678672 11.673178306599723
Al 13.391362099760505 8.636002258890699 13.524164864044106
Al 13.905994358725863 11.229138410293048 12.781558304826985
Al 11.863033387779904 10.806968114770987 14.405384999126726
Al 11.580237888543808 12.561119687917731 12.012757436217315
Al 13.465130134223577 11.27297778004393 10.098133862773716
Al 13.995983411836184 8.749295005796373 10.848882994445162
Al 12.743279392051688 13.856440936473266 9.641584501270152
Al 8.770233704926206 12.928406684126877 12.095871693027984
Al 11.731403309832455 9.852962783760619 11.775039639247487
Al 9.57176156802404 10.550868861032352 13.263984176893025
Al 10.790102767721436 7.864715360407742 13.265449070402669
Al 10.046376352986567 13.453271579170597 9.883270714641128
Al 9.48272528941069 5.939341863503052 11.442877654207772
Al 11.793295361034211 7.232554021579561 10.766677906439856
Al 9.673103616787769 10.769234594622189 10.431171346712587
Al 11.206715797598408 14.36414956086933 7.569855679924788
Al 11.76085480425491 9.333975978706956 9.133919422600012
Al 9.12723567223403 12.736123272705266 7.359457388652012
Al 7.190559221226204 10.713648007678803 11.914413034631878
Al 7.5514243604007305 12.338030322453198 9.696532994228605
Al 8.618792630552873 8.470013738324967 11.767315204292933
Al 11.539866793993207 11.769003273288774 8.24553817420259
Al 9.462175518461356 7.752007551020462 9.29737851308653
Al 9.476991885364141 10.038751709324208 7.7773648906969335
Al 7.344044140924445 9.4569806550686 9.42940847957892
Al 6.945164042651061 11.19122755919277 7.356853911930029
