21
Energy = -62.71567763 eV
Al 11.862821468406404 11.52648808428542 10.88092276898883
Al 10.83506487579846 11.817340470858644 13.366325867735895
Al 9.483014970465835 12.664466624649842 9.81325274110339
Al 11.672239517100637 12.613556458398087 8.16711120729975
Al 8.613351738268763 12.678938012215148 12.329643768638304
Al 11.686370368007493 9.37808328919186 13.082034703287205
Al 13.185625455866491 10.526203234540134 8.821570744362397
Al 6.832404796561841 10.86266610385994 11.726195015788877
Al 8.821446658817809 9.888318810953908 13.832835283223847
Al 9.53574927934035 10.194903905989865 11.379602545407689
Al 10.439458560583486 10.247163852344935 8.902288913471585
Al 13.349809565785662 8.089722571517312 7.9440242550591735
Al 7.696061440815714 10.482754013131283 9.221611111442753
Al 9.881535538600792 7.558322587258556 12.427043420339334
Al 11.797275209963823 8.546760380094382 10.420941983266518
Al 9.26328138228538 11.847250705530932 7.050906773942127
Al 7.421056457756545 8.334466193014391 11.897138925572245
Al 11.511899366397751 10.156181504776718 6.534268275534805
Al 8.7023580640672 9.17531472216273 7.037492689581579
Al 8.992255373908122 8.04888984750402 9.715782797667194
Al 10.784691889732791 7.7174395907492 7.816579872293833
