20
Energy = -59.65737391 eV
Al 7.294050681461635 8.851362118095846 8.62130064160632
Al 6.082234998420645 9.980724594474205 10.649518070326526
Al 9.569774031868882 9.949196234259272 7.816214957533585
Al 9.830196573045376 7.656084969511184 9.276970830049855
Al 7.909641134314281 11.458477642544135 9.496942161845746
Al 8.497646824357302 9.097628764302033 11.117960914256882
Al 7.527900161673083 11.428729425445516 12.29257965550378
Al 12.291193000044208 6.848116862936006 9.694271043024598
Al 8.928904224554081 12.397128739423886 7.183971601196559
Al 10.960583356290002 7.74301785928152 11.906890505173656
Al 9.081102512179589 13.88437348115673 9.291927921504861
Al 9.799060686463854 12.400792678134648 11.314647107631982
Al 12.2718422121882 9.026346847371785 8.159277272110753
Al 12.566234606435703 9.4400262253904 13.342228814527259
Al 11.155632500420314 12.161221718823723 8.775033500308231
Al 13.379989377170538 8.922338225631258 10.893774168902386
Al 10.92881706754431 9.956658265243336 10.33011872151024
Al 13.500316864869 11.145772308989134 9.299975215318106
Al 10.095770455066136 10.243062418144934 12.9500370130173
Al 12.522192639309724 11.602024528516717 11.77944379232837
