22
Energy = -66.41164281 eV
Al 9.345503163838453 10.312411974508537 13.45736859911585
Al 13.04221702976275 11.87976532920106 11.696874327963888
Al 9.430102080270691 10.168320778533534 9.092735161436556
Al 11.069787974899326 8.044304765838897 9.845497610917564
Al 9.610129772840269 12.475071344109946 15.11584389058083
Al 10.932609084061312 7.753606732752757 12.54108636102593
Al 10.59383478634397 12.823202192204912 12.553226895150516
Al 13.558973117067458 9.004105343625927 10.840431161706652
Al 13.639639239831762 8.536140134831648 8.157603358766826
Al 12.950636584569637 9.325325516599895 13.295003878809082
Al 8.434732533028305 11.509312071939862 11.144294499566064
Al 11.078574109950809 9.119983746294102 7.4080522735833485
Al 8.711305226054792 14.24818585180724 10.842980540118774
Al 11.015824943970886 10.275142347601243 11.367250689577372
Al 8.75333302286659 8.850569851579092 11.349571144607236
Al 7.955265523941206 13.278728169465426 13.19096959644545
Al 12.567950799686725 10.854569918515347 9.1541538541803
Al 13.049609433841509 10.665122432780603 6.495656315291664
Al 8.61037535791143 12.785371426236045 8.642646728431245
Al 11.807065066446476 11.304682136218995 14.39147721032561
Al 10.69296784170633 11.873682213021517 7.268334888042929
Al 10.978470859475866 12.741303274701048 9.97784856672395
