22
Energy = -65.59065189 eV
Al 9.34884621591092 9.45078135434805 11.540717872215435
Al 11.451225481529066 9.487040323029388 13.06481804265159
Al 11.333163383227424 7.299428842996609 11.554108224218558
Al 9.765734728369283 8.007510125260794 9.343775667736747
Al 10.173337769078024 12.741180518520324 6.940521441548533
Al 11.15728923770735 11.677941547403606 11.138358189595209
Al 11.966855504216861 9.410115635848408 10.002756591666506
Al 12.226550852460926 11.873545751316955 8.551892694401255
Al 11.2738422253935 15.438173462885773 11.351511008886915
Al 10.492487071580102 13.696899270967492 9.431434417397885
Al 9.856236024341863 10.616215799987216 8.547820449510713
Al 8.328344337676667 11.773340140432792 10.542581090877173
Al 9.179350168250954 13.8293370800163 11.900345893600903
Al 13.86558533013906 8.866098544424569 11.92609507896396
Al 13.675284208801301 9.465656545266448 14.588241990229434
Al 11.756202925298913 11.383633698632128 14.951291833026232
Al 14.009487659398108 11.093494371953982 10.357359190924143
Al 13.459992455716268 11.504181377446965 12.833727103984277
Al 13.108442276552454 13.521276018640837 10.838571965668995
Al 9.543751912733914 11.431762759334605 13.291873059564212
Al 11.51459447570396 13.43617562948801 13.274935731215706
Al 7.501246946726589 9.396341038929414 9.603908072217676
