21
Energy = -62.38771526 eV
Al 13.302866625411927 10.624915150846288 12.876970864743347
Al 7.308117134170289 9.14143328549452 10.391137831347088
Al 12.796399879915468 13.318787082089534 12.971928559698236
Al 13.560692472809526 10.092363391633866 9.575740722234961
Al 12.659673887426385 12.776270023968575 8.520658232157922
Al 10.550269948724342 10.422606729754047 13.037095261610776
Al 8.42137142799874 10.841710586886176 8.476019396086015
Al 8.524618822838855 11.525402909545202 11.169718073614083
Al 8.002157656691947 9.660493530875824 12.9862818721044
Al 9.90669868346409 9.315152410252958 10.154439525474087
Al 15.63346628057716 10.36379004211444 11.357372140247689
Al 14.111335458603719 12.512785276469103 10.746275302818113
Al 10.13040129302235 13.236785870881679 12.429966438085131
Al 11.172007565396795 10.638076417918434 8.27159029681364
Al 9.903821412974331 12.949740146707919 9.465164461457196
Al 11.610476291662902 11.489233355491749 10.873368476173097
Al 15.375483103918171 12.349654938111993 13.17249609405114
Al 12.038762213243116 14.365349298916472 10.632686504719553
Al 9.628383231014848 7.711709631960982 12.221104034574056
Al 8.362116847262003 12.068886454847101 13.941696929401767
Al 12.086180388399082 8.749180823022051 11.495246731518154
