22
Energy = -66.90972483 eV
Al 12.134858951213706 8.184519516097538 12.502197451882685
Al 12.399769475109293 6.463428822374892 10.356025893160886
Al 13.080194896811227 10.652817379000002 12.161512361522009
Al 9.6234219876714 8.625531042302937 13.359933686466709
Al 10.061698848232252 7.721011946511839 10.800297236502459
Al 12.535840221046136 9.046438662837764 9.937134704477703
Al 10.457132180095712 10.522111075145006 11.654938208303792
Al 12.04611830759331 13.081788242961414 11.808517495786152
Al 8.057985150851243 10.71501714042966 13.319631520795571
Al 10.996270832892447 7.545999062536292 8.245458229311192
Al 7.847664168509603 9.034576221073172 11.19252933586081
Al 9.788228548896937 10.157010071368456 9.128472580417585
Al 12.269617548442714 14.140729233907932 9.2711819072553
Al 12.536420105746457 11.557506334218099 9.571225277720913
Al 9.548368660791054 12.78705026457945 12.76678898934307
Al 8.363757586115518 7.923148488338455 8.656558798929604
Al 11.814085002514418 9.949271431607126 7.400987861656685
Al 7.807911592523874 11.737429408174963 10.810367068753765
Al 6.90388546331463 10.073635784347113 8.856617844589916
Al 9.980137491604133 12.95630110894918 10.056372165764389
Al 8.29720072500772 12.130860956525582 8.060666992431845
Al 10.917696989750873 12.462082541448364 7.5508491238014575
