29
Energy = -89.46000542 eV
Al 16.398755616060193 11.886078245805868 14.54533617395735
Al 14.57232295838347 10.01797087900552 13.984768225539534
Al 15.176765343695688 12.114549615064519 12.178604949260441
Al 15.167567638208023 9.467658835089505 11.33211610455044
Al 13.905294644203396 12.748099193479218 14.653286326216186
Al 12.875660425358797 8.465949654232826 12.695080691800106
Al 12.61816125578705 13.23172030749295 12.212045641232324
Al 13.98504904494098 12.823334433913086 9.894639190135294
Al 13.342970806742727 8.436696372178302 9.654733807566505
Al 12.000312053390521 10.882115230382844 13.859505683946487
Al 12.770713547412349 10.694009039692938 11.182944047225787
Al 11.207906152521787 7.3249273245029665 10.865837873415279
Al 12.9825272007318 10.80035436431488 8.361792744247666
Al 11.330479615631154 13.434644431096173 14.600367649313723
Al 12.884983607697706 13.4324173704111 7.51160865517346
Al 10.344423119403448 9.453879378392429 12.34199756113858
Al 8.771082991081764 14.345809548002512 14.499463538930272
Al 10.18688469267461 14.291910361126988 12.132096026020132
Al 11.541905824012193 14.076576294219182 9.838128259123955
Al 9.495160234665462 11.685357226880736 13.6410847149405
Al 10.381637726722808 11.801026128680851 10.994789608437122
Al 10.587201761880396 12.043358117889792 8.178495414805203
Al 10.866217001668124 9.614563672872803 9.421424317039413
Al 8.756736398852228 8.28524617979343 10.398707150891667
Al 7.703840360011493 13.135923332665932 12.314030795084435
Al 8.884421923909997 13.615649540722353 9.699301508636616
Al 7.956192806381505 10.519562864111666 11.68853155147999
Al 8.457632906994197 10.738617948440845 8.976356507189255
Al 6.540761392717807 12.325563161280273 10.036494334443477
