35
Energy = -107.83099284 eV
Al 13.285929056095949 14.119192353423928 10.017868960749771
Al 12.989067978733374 13.543849315691896 16.716759423323946
Al 11.715661565893255 11.88471961254933 14.996970626798698
Al 8.126356995125805 13.565949793948082 13.167957562259486
Al 12.110470680462111 11.007222584791041 10.572464164938767
Al 12.474465827457578 8.053686735901843 10.919276309307097
Al 13.315450717353333 12.116972902012238 8.292938817773981
Al 16.58839910099724 9.90868059386835 10.621761860065225
Al 10.784085338923832 13.368166549413775 9.37619092553228
Al 14.748457737805673 11.953618404302045 10.538397717005799
Al 8.369767182745406 12.417350711063788 8.150664850716211
Al 12.6567743721421 10.136453793578204 13.227183984590557
Al 8.417815182461135 12.928065372741393 10.7241224562539
Al 9.777505056466136 15.170381917828351 14.407892002052753
Al 15.219090449594088 7.387999568204218 10.051586354747116
Al 11.200256893407955 15.944956735028184 9.954332681317647
Al 12.44859001072059 14.68705005928827 14.350035245101155
Al 10.44996751100815 13.774063523272657 16.518478010094828
Al 10.210718682760433 8.963398033384836 12.088004619260367
Al 10.197473488220236 11.656865253621419 12.518296247506214
Al 13.045937681584762 12.853698381239525 12.451811130487208
Al 14.633190664241786 8.883657430754688 12.113431884661185
Al 12.79044915864867 15.836090278495156 12.060103016274377
Al 9.798304530130622 7.424993716342545 10.038775370244784
Al 14.29691016302217 12.407528497403888 14.86166874958993
Al 7.77000613894515 14.136188261578358 15.966687994552446
Al 15.473999214783834 11.20311476533249 12.953616656222588
Al 10.57716005889259 14.304702703960109 12.043658808718524
Al 8.982232902556383 11.91141588575912 15.081119314775066
Al 9.499875281674209 10.42085328881898 9.97423684652811
Al 11.463889760438914 8.94184114148246 8.606577236515255
Al 12.938801856517603 10.037462920035743 6.648485471653856
Al 10.260787621526527 9.719426525807744 14.545267802342202
Al 10.740665028044155 11.33318420254155 7.722185403227872
Al 14.118631655027253 9.663317766838974 9.187753443441146
