33
Energy = -100.69922153 eV
Al 11.127121727424399 9.390650603285332 9.17143676688638
Al 8.74337433359136 8.853138768507307 15.354997299453132
Al 11.029257304661048 11.347416943608613 11.354598717447407
Al 14.78769815776868 11.909668095913146 14.020450945237783
Al 16.31087203255035 14.037243652456725 14.808963325186479
Al 13.81193715131426 15.598659882257394 11.136601140625086
Al 11.296314134213759 15.066931534408186 12.373094110288417
Al 9.557437417821191 13.320590217118209 13.295181294503683
Al 9.195956267326753 10.11450941232475 7.353675795667665
Al 10.598562622612087 12.116035703103751 8.650313172111812
Al 10.092256577313982 10.745432289544643 13.922844905932276
Al 7.998920138923433 11.60114634163296 9.268068427630734
Al 13.725569559256781 12.062015885800678 11.625407810961766
Al 10.732511885043918 8.570515892309615 11.740489658125071
Al 12.776218914524653 10.1560333283075 13.432542250383664
Al 15.70354587323167 13.729012027249496 12.255896698328327
Al 6.360099318654129 10.092289819754066 10.83864623508585
Al 13.32648294233934 9.337758211130167 10.770253706129512
Al 13.804704698147761 15.003028345715176 13.794489814312678
Al 14.915503625011693 13.61436664987474 9.672962007105157
Al 12.133818017731171 12.776093835152038 13.919631226972529
Al 13.932153839060286 13.521087856683206 15.968645972502825
Al 13.033588401563428 7.588392001359699 12.725489362441651
Al 11.830334962895131 10.693867501541714 6.755496784608277
Al 8.141530599436052 8.95903650459082 12.776363511595589
Al 9.52647611865147 13.598940837073796 10.627713117068984
Al 11.094931402609632 8.125059988071364 14.404506738047276
Al 8.26491381706046 11.543540485617328 11.97249876293456
Al 12.152160193059489 13.714681645899939 10.1238510833893
Al 12.659518775970817 17.22586972039232 12.886095502774856
Al 13.504520531121392 9.074132074449706 8.105127857234729
Al 13.422264707465345 11.568654982857591 8.928844764450448
Al 8.753801385683962 9.166725918464357 10.133226840480683
