36
Energy = -113.25391284 eV
Al 11.684286030445733 15.688855842193682 14.369917836680166
Al 9.292707773397096 14.97036925478002 9.533997979073563
Al 10.405126541434377 15.209076055342788 12.015484607179411
Al 10.102174059384017 13.246638836735695 13.86109998548429
Al 7.961624658351482 12.657924517449946 8.925520777927153
Al 12.875684845382104 13.375085137624563 13.63346327628099
Al 13.222900261404774 15.488383073775369 11.995585842622647
Al 9.141924725369533 12.907704115003753 11.345823781428384
Al 11.760388121206649 13.962541249695988 10.185184396463605
Al 10.46991959571796 13.092924030466882 7.961242308072836
Al 11.52889408510528 11.657173027003019 11.85462919939257
Al 8.054610072120205 11.483397263005536 13.39859163929341
Al 9.214479814481537 11.685061202637003 15.889940854206468
Al 6.286350595877794 10.522623879624877 8.327925865464252
Al 7.150817183700423 11.011578518172332 10.90889585287879
Al 10.165614560935431 10.930596993808626 9.672238103719652
Al 8.840650783236534 10.631771526825824 7.261260438959994
Al 11.685857531145517 11.214029649270353 14.707711996106738
Al 12.762188391889108 11.854972597461929 9.142245394323073
Al 9.261933281633146 9.59566110986866 11.89364038272312
Al 14.081082638456802 13.056728907341338 11.198046899845707
Al 8.242951238009457 8.944857495369607 9.379014783817787
Al 9.490000399747109 9.421634021311514 14.522735246667901
Al 11.503065130422202 11.018697407601968 6.802920073829971
Al 11.814210926865053 9.139646492920674 13.036681386063046
Al 13.553091761235828 9.668650599073125 7.907331762304702
Al 13.913383955206955 10.928118456828548 13.019008892366424
Al 9.91795630323946 7.159634543062491 13.156390842490453
Al 12.454780744697318 9.434346837451061 10.423113506447914
Al 14.975608697732051 10.741888979836087 10.2658391101777
Al 10.202961912762815 7.594442846375916 10.462758492876885
Al 10.819329812607377 8.745605592122422 8.129167371942717
Al 14.438526371118453 8.482663088758592 12.032805007785566
Al 12.357798695944675 6.802570149814426 11.890542434798782
Al 15.207538203264663 8.198827093288381 9.461867414075236
Al 12.736105221149227 7.051844532774685 9.003901180905768
