35
Energy = -108.77316218 eV
Al 8.671160322268602 13.858725805714572 12.419853729897625
Al 11.241642453506945 13.975885974676842 11.659498448551634
Al 9.055356194279812 13.601790672373214 9.793932680712537
Al 6.3620862117347885 12.83994032902575 10.607145531674808
Al 7.468152619185786 12.074900629648262 14.014687318539037
Al 11.424216414034198 14.376803269942593 8.867230490952553
Al 10.232302025462536 11.848756151476131 13.461999264413404
Al 13.56270450189797 13.369219018357711 10.473917840216469
Al 7.57224366106091 11.961962032953606 8.288915265304153
Al 12.71983778899806 11.7466224185471 12.551305198242792
Al 8.467504819753298 11.321228734185318 11.349268521203484
Al 10.079904410868952 12.428216046775693 7.45642407867014
Al 6.075175307220274 10.217585655385436 12.374842406176382
Al 8.636032837345516 9.658382120390888 13.668230480105969
Al 11.237546896031482 11.738934744107663 10.001868035253324
Al 12.895221963796441 12.327447276758996 7.883165048597313
Al 6.419821953223313 10.06884855949571 9.718234113466455
Al 13.884790231765944 10.744756131609977 10.216594783966913
Al 7.888850002886608 8.449256936430778 11.371912402746391
Al 13.37917387423162 9.152563376927333 12.310026346028632
Al 10.607706185220172 9.613262167208008 11.698529842508577
Al 11.564060633564234 9.608269027078434 14.241514337533383
Al 7.490256369318492 7.8171784722023006 8.664957485803344
Al 8.467385216825681 10.097422801795506 6.5808971790452775
Al 13.67679308524707 9.77797571704131 7.792444496863742
Al 11.12624055748902 10.044940574567189 7.003819213060265
Al 11.81444625092128 8.754649544213548 9.43797199585864
Al 9.297634104224336 9.843637013708104 9.179969405180826
Al 9.873020862772295 7.380482262356343 13.068149851090311
Al 12.0948265422465 6.9445671667241875 11.611630456255527
Al 14.313292841653915 7.891775912109896 10.024365044369262
Al 9.911619314347899 7.662905080202732 7.5588236487447595
Al 9.671181046066062 6.989631717193888 10.21170299559368
Al 12.524741693745083 7.527204100813215 6.957426475780787
Al 11.914645299561931 5.9354586981035355 9.125228512050032
