30
Energy = -92.12262318 eV
Al 10.694902878376512 11.609770902189133 5.3984033446924435
Al 8.538483461077423 10.341269863169213 6.480013439399161
Al 11.443147087526798 9.42592967514782 6.816245281990428
Al 11.466025060485752 13.99897935482654 6.315617946394073
Al 9.222019223468628 7.648968859246985 7.059359422049769
Al 12.153563713561322 11.947790028771132 7.7988693116912655
Al 9.420821014530883 12.755736481105485 7.605766301007562
Al 6.986799754702167 8.98542936088185 8.451783999847656
Al 9.621948289315986 9.70008219082539 8.783843150748766
Al 11.414485619302388 7.590088710752799 8.937685512950273
Al 7.673777198051385 11.561573654679899 9.149295051643783
Al 12.619470647869743 10.00599169632012 9.440428384996082
Al 11.319526837487274 14.32426321634986 8.946712233545359
Al 12.821306285857402 12.683025339270506 10.42945974414743
Al 8.752504563709431 7.230866510725749 9.89060753922397
Al 10.719883224212117 13.13544898152013 12.489565194943431
Al 13.254244557409743 8.21265915898004 11.257653793045632
Al 9.01010027251179 13.86859643007651 10.241688244731469
Al 10.345621263974014 11.584839770984948 10.332989916222074
Al 7.704610725080735 9.502584004580239 10.997610328006052
Al 10.522143209816601 9.028657102604308 11.115516136274236
Al 11.066364202382477 6.484615449642716 11.457532633030246
Al 8.631613739659505 5.457790388963017 11.963508431026725
Al 12.315512885649925 10.72269390743262 12.190114461473724
Al 7.952006516678159 12.105997083530882 11.905891973218093
Al 8.726010720443966 8.037595871422106 13.048931780389989
Al 11.491876726687321 8.34221729551134 13.537794400965227
Al 9.770434386150717 10.545133222701248 13.210661327115805
Al 7.059544494260323 10.134077909685326 13.554630338585097
Al 10.197692764217363 5.943768902559968 14.108261701101362
