39
Energy = -122.94399873 eV
Al 6.636998362850492 7.461948013098483 9.70543345135128
Al 6.642423810461535 9.940123361416285 11.07974868442709
Al 7.152917787677876 9.724943440293648 8.399791982377614
Al 9.254177980311534 8.055199051976832 8.74197223457222
Al 8.51856656387064 12.287598373357369 14.729497527037292
Al 8.412639452847115 7.789029016701285 11.675536361930211
Al 6.978972752778254 12.369787581961596 12.133423405795062
Al 8.290703239922589 10.042404280934148 13.305983982175455
Al 7.7428451899159745 12.051249585839404 9.544801734380455
Al 9.393186146004506 10.093555083041437 10.68010704348288
Al 9.550149256049401 13.667873201224385 8.210072025268001
Al 9.464660027815329 10.84423658507893 7.888765066828526
Al 9.844380191131519 12.28830563774653 12.37737985492339
Al 11.573329531922784 7.0128238586635865 8.229442460102332
Al 7.913284155805978 14.551724391390959 13.395204327043793
Al 11.05650002138071 7.662999901915218 10.80929800644468
Al 10.680733489243728 10.709084974305846 14.526799777154649
Al 10.463635928193382 8.327788026065543 13.301684445167842
Al 8.697382121358896 14.18697532265054 10.746355324587238
Al 12.006331029087052 10.181847646128826 11.943890472621037
Al 11.348956002620882 13.355032887352095 14.569064681666841
Al 12.759297406394271 9.068957780448226 14.710045973591653
Al 10.959748189761958 12.160850351825587 10.019889459965654
Al 13.492868022691741 6.321985195318369 10.048560888760436
Al 13.97946849478438 8.945100466605574 10.50053378811653
Al 10.486911039317048 15.066345723058722 12.74877013644181
Al 11.278737236687899 14.99398484309024 10.198128537160436
Al 13.083158036858713 7.433966368671369 12.56867409065077
Al 12.04556787677432 14.717367549065349 7.689052070252541
Al 11.768921588477486 11.95495268375476 7.395119452209253
Al 11.685085637736762 9.669475565700452 9.010709887838086
Al 13.36289770309725 11.617121859295162 13.911582655171678
Al 14.91078480443391 9.438015892610746 13.04017390681012
Al 12.47588674184285 13.289691011241638 12.026390668659802
Al 14.1396850350839 8.048499794918937 7.942656772912384
Al 14.338819141084956 11.477774560432653 11.278347033426865
Al 13.462131121993348 13.319287707163403 9.576253496108599
Al 14.098192537767426 13.113741418445757 6.957597777755744
Al 14.087925581396165 10.797210244644356 8.422119792264937
