39
Energy = -123.16843744 eV
Al 9.129356080212172 16.76596352902034 12.258555080503166
Al 13.809750884779785 15.970583196384906 11.385975269821486
Al 12.481994171211483 15.358713140884971 9.116163999493224
Al 11.617185748654354 15.573231061785549 12.864411094617656
Al 10.26290411383327 14.909065263530335 10.52240709838747
Al 15.511055837823827 13.956655440086246 11.355068736072656
Al 9.417208100589919 15.000677069157156 14.380836585824772
Al 13.934912375115402 14.295439530586549 13.573174071141317
Al 14.02563984149804 13.218484713213998 8.812397952382168
Al 7.9103873209808855 14.349935829565043 11.936729839868011
Al 12.643854238322074 13.456192968957792 11.20178502901205
Al 11.736508654836687 13.789363485441472 15.02125561993288
Al 11.205919390848361 12.967511339520572 8.797728154463394
Al 10.381489001128013 13.012996376857936 12.666117727406718
Al 17.32686382727063 11.863979701731171 11.587153411817221
Al 15.565849347285981 12.216905679366095 13.54949765410692
Al 6.324853491404913 12.194958411379103 11.02823725136416
Al 13.849909224581706 12.378346823457143 15.66056362760534
Al 16.470089913571197 12.38199918657092 9.239090188107205
Al 15.910627947021002 10.4794694258075 15.569533605351271
Al 8.897343929049754 12.608947300144072 10.197868566629165
Al 12.814968751276187 11.50733769341896 13.248572076209872
Al 9.268154900705428 12.467306585134539 15.254433916421478
Al 17.37891393391675 9.99577931134598 13.459674324158795
Al 7.803263767276854 11.862201267375239 13.161777224698001
Al 14.586709126688447 11.272880018136245 11.00287277797643
Al 11.424640932627522 10.990542372178634 15.60085745101935
Al 12.880568811524942 10.759442104989681 8.817932270417094
Al 11.251813234317025 10.970406647652036 11.025034352204605
Al 13.517449491989069 9.497527978457855 15.723045917602562
Al 9.973858397201667 10.625490518940493 8.637624047447556
Al 14.733876489845075 9.479293021075396 13.167110847887834
Al 10.031274711337154 10.343862866747548 13.379590929514057
Al 8.497697632456914 10.110591417816869 11.119405464343204
Al 12.10047728381509 8.67219257459049 13.680890905286596
Al 13.216000178603608 8.952273430630726 11.075543709729992
Al 11.616510747787096 8.437923952451035 9.042483362085912
Al 10.548587292072149 8.240403936900991 11.607459534774039
Al 9.010240240818604 8.133834192986587 9.339849688592539
