34
Energy = -106.69534373 eV
Al 13.65334830489006 6.904128050987127 13.342449465540733
Al 13.544153145185858 9.57978840473918 13.113837981871264
Al 11.89909264712034 8.30890954469543 14.860852926897309
Al 13.510103892620647 7.895177252502204 10.855886684237085
Al 11.197322324224702 7.4228756142535675 12.3854873662275
Al 13.296764590265973 10.56858985542501 10.545287283140105
Al 13.288988256063798 12.128839907047347 12.786890459253057
Al 11.484433458772408 11.027297351875186 14.619315852303759
Al 13.26164591203554 9.042805218532857 8.225070667443466
Al 10.96265370878365 10.297011594088158 11.98671748575582
Al 11.978482573690481 13.630007656224382 14.727560135300664
Al 9.4170376871292 9.10390753473419 13.980036874680106
Al 11.081167736986405 8.548972711432642 9.863073623334635
Al 14.140847450742402 11.606715601225567 8.194143909683444
Al 14.207414362302906 13.139456235265943 10.387980721006395
Al 8.891718255221981 8.097224016360196 11.431539224584416
Al 11.410445633915597 12.546658509397993 10.50119389870775
Al 8.658181405840207 8.074485642964337 8.687938477577088
Al 9.287546556834059 10.613756718707364 9.854029299413925
Al 10.143705142120272 12.934925542825184 12.910841324993083
Al 12.294394447700096 14.579075454586038 12.25602144685461
Al 13.082232557316539 15.559675478524005 9.928524827209495
Al 8.220045626466606 11.153880149466273 12.331987816044823
Al 6.901063230508638 8.981031119365271 13.165763437640363
Al 12.274173505164361 13.709821615232883 8.17226308386969
Al 6.545571324248894 9.590661442968106 7.934895510353015
Al 11.457336598808766 11.025546611419804 8.198172563686938
Al 10.808365420006929 8.56283734547229 7.170584259284089
Al 8.541843647278522 13.33907117726912 10.791139036909355
Al 10.40981791650167 15.029946362302999 10.057763080710968
Al 6.778192687756452 9.541062458470984 10.569314091051803
Al 8.886330398428429 10.620161179454987 7.138111979453925
Al 9.605042692454065 13.046697043281897 8.219747344762537
Al 7.111037477534588 12.019500173822495 9.036078435137316
