37
Energy = -115.75321266 eV
Al 13.395952597664424 12.024830816592956 8.196927248145183
Al 11.368787544730136 13.458229753608322 7.2456554908164525
Al 12.23956002405391 14.591448857499955 9.556615515828572
Al 13.871422762738371 12.781876449477222 10.811821924342041
Al 15.260815666970153 10.757199354162314 9.62813505150514
Al 9.266199114666756 14.106588185345856 8.88826678710951
Al 11.135159964290525 10.764598889282341 7.307249034162611
Al 11.492809787088634 13.218340297179134 12.019590139469077
Al 8.847614528357063 12.383469777336131 6.673109212666342
Al 13.080561698394014 9.304174875201893 8.487342105083764
Al 11.02621206982838 12.16547066659936 9.699996925263608
Al 14.74593668596645 8.343471148949604 10.656414390927823
Al 14.987875968211869 10.653622853433736 12.50452256881452
Al 10.216722830020663 15.545953880264753 11.086483142236727
Al 13.788156994971876 12.94809277360555 13.550706982172725
Al 8.715946218252867 9.690414813127251 7.272824071300819
Al 12.235975958419106 15.260981048197614 13.646139869961209
Al 12.575378914828287 10.368258872659677 11.14621882318098
Al 12.096635806517895 7.74320631823152 10.45381503836322
Al 13.28188427113549 8.227926320519693 12.85978602266874
Al 9.560830678055375 14.77375976739309 13.579803366810038
Al 12.534623502747074 10.607450471033612 13.947418266156903
Al 10.355711431105135 9.653511321628915 9.721022709500414
Al 10.838729635305848 7.8794687116811115 7.667510969568495
Al 8.85331053717824 13.075697086187613 11.418782802266223
Al 8.430232959122739 11.55387633476403 9.264380206030543
Al 11.218964082932589 12.858182811663166 14.667402176261048
Al 10.215629407535287 10.920054271481751 12.623025115727474
Al 9.69297273641684 6.6997464555351645 9.918653999136547
Al 11.005876011046276 6.3971018247353495 12.509746965211468
Al 10.773710665296608 8.605695626492519 14.103006126639908
Al 8.334599606969993 12.355245897893505 14.052665692812406
Al 7.707434060255628 8.865867207817178 9.625014343727095
Al 9.996868980790433 10.76774082379787 15.587400123884068
Al 7.62371146591225 10.704844836724169 11.70127103087675
Al 9.28144951235878 8.438323132184344 11.915939658845057
Al 8.059372847781432 9.61891499563005 14.118973630444213
