30
Energy = -92.91286828 eV
Al 11.6951405063567 9.084170895579094 6.32602593704131
Al 9.80736773611949 10.722337550722171 7.448989284035801
Al 10.354959289935099 13.082800308187313 8.580216165318173
Al 7.787792628682719 12.171764513867428 8.461582071726506
Al 9.737547878833363 8.077967534622147 8.040235529705656
Al 12.452518632894463 11.337551328437499 7.70039117286864
Al 12.244331089468643 8.662018483779457 8.974156948275251
Al 7.911481408973782 9.677352594697377 9.20429335913499
Al 8.174294901490589 14.201982780669738 10.056408294768831
Al 10.581047165319797 10.661834362734794 10.098974805328698
Al 12.73325761533245 13.156272831314526 9.672945122880373
Al 10.392446418919615 13.286219786187104 11.21756199778781
Al 10.331893747780635 7.589564742237877 10.631488269104779
Al 8.03703865592751 11.619279132501653 11.111797292979018
Al 13.774861598023417 10.527689532088365 9.978354764632302
Al 7.8462356609743695 7.06046769354768 9.853538111817292
Al 8.232744545897742 9.022669084571012 11.807711875506541
Al 12.244843172830953 8.969571072590025 11.621561756904946
Al 8.15985910720747 13.677865185130562 12.734388634123698
Al 12.337030241379178 11.687311949886013 12.11235785284502
Al 14.944129564659374 12.656241272181896 11.137813849442551
Al 12.720905783756123 14.390062953183625 12.322359280619011
Al 14.52199368506667 10.168062880650222 12.661766175629634
Al 10.14171926778949 7.985253579897743 13.30875536072277
Al 9.866003099057382 10.921014700860356 12.912415868193255
Al 10.506900346057108 14.194330715511065 13.8056837788621
Al 14.310119663589823 12.70734713868899 13.667653040203565
Al 11.958463671046411 9.639093690189995 14.230283633671505
Al 11.902487389696114 12.257069099007472 14.843693003074222
Al 14.130396705399452 10.64464378494257 15.316407941261057
