33
Energy = -103.3528451 eV
Al 8.681025016570329 10.78329213413515 7.9910902321658845
Al 7.156894032217652 10.071344548494439 10.123201427019671
Al 9.813326306076746 11.52762425491692 5.7262228553626215
Al 7.928975017991289 7.611177304579609 11.15361886781558
Al 9.514013324023212 8.622899902337865 9.324289809944196
Al 6.552908205367383 9.305140223381015 12.858653740210649
Al 11.074568970994074 9.49327386528991 7.266525151133695
Al 10.644980212940448 7.755000935460015 11.657698300795223
Al 12.2055014754092 8.325967813158712 9.387159291784691
Al 10.250709888761957 13.055983127751155 8.030275462895002
Al 8.713920168196355 12.369790829078326 10.167455199167756
Al 6.954467908795568 11.882319877698794 12.232002181718896
Al 9.32963229731891 10.158960610681588 11.751109702740841
Al 11.263348641132703 10.995959429774729 9.722885313893478
Al 8.822171512797022 8.01481788820753 13.68306577740089
Al 12.260015877271586 11.946533264480077 6.519402663955649
Al 13.625685603979292 10.451050746573024 8.178979478158487
Al 14.80408738404772 8.97445001033663 10.086184224571909
Al 8.577816523842948 10.781569001707002 14.260658070930921
Al 12.688456751815583 9.555160140411168 11.758003851926269
Al 11.023168355395564 9.422431896927263 13.873115079902181
Al 12.89817350617387 13.229688061963952 8.757458143149362
Al 10.811187593853875 13.982396860321954 10.43206908828864
Al 9.281375894107915 13.108361979975404 12.678581166279114
Al 14.07168602876886 11.64436050716599 10.517890570684099
Al 11.918118058453473 12.078368034709353 12.1856311847554
Al 15.292114389261657 10.068651377442695 12.415516465340076
Al 10.88617620290126 12.067495812454567 14.737864631158256
Al 13.284691297999707 10.710923887797719 14.204541484198499
Al 13.459355888804774 14.296236713509753 11.203936602751936
Al 11.377894220142643 14.70224115790029 12.932961240954736
Al 14.909494713867769 12.660545705118311 12.850225041872749
Al 13.128558986413077 13.550482351953043 14.53622795276707
