32
Energy = -98.03259832 eV
Al 9.250688473793327 14.407610131838057 12.663712533459941
Al 10.418622146799256 10.836790423404132 15.129236758797566
Al 12.851210625341428 7.659056070991392 12.950582481157785
Al 8.576937932192712 9.063210320898328 13.937346136316611
Al 12.864969932557827 14.924055422193055 9.939684577224035
Al 13.134274282144732 10.247571205666832 14.579641640653314
Al 14.083331879040927 7.714625086201201 10.46089482397256
Al 10.955432708002856 10.883257350660969 10.545551301238104
Al 10.624128076833863 9.501337187964609 8.300865573467744
Al 13.254824387615365 10.16682163410898 9.193857274737779
Al 11.430399674552826 8.12808198745537 10.567005181584218
Al 9.337813782716369 12.144631989042848 7.912054631066588
Al 10.321696539009022 13.458600452431156 14.79541182654933
Al 11.681005015363317 12.02273742199778 12.930651298233933
Al 10.427206088610905 13.354380428629714 10.51502750941088
Al 12.051464161148694 12.423567331672112 8.368888991867525
Al 8.831792765159983 9.097010354337035 10.867391323261058
Al 8.276399167819493 11.705785841815286 10.300595675009907
Al 14.32922027031962 12.460212739935727 13.448770440015641
Al 13.433320795958029 10.057902258358773 11.903636512072872
Al 12.078960686545635 14.588404953977733 12.643983740486792
Al 12.714464679041248 7.670258397957941 8.170999355329917
Al 14.755576278160966 14.592804863241822 11.87688174624324
Al 11.087135664828425 8.06031415918865 15.201718530478562
Al 10.491974736094448 15.994406783667504 10.88274949500922
Al 8.946981419328576 11.54558974766924 12.803710320347994
Al 10.617616658450853 14.855943644511008 8.320013318555468
Al 10.856050828786563 13.419245177991831 6.120049899024577
Al 9.756636731058743 7.084896648691809 12.5334152890293
Al 13.387702203594039 12.448987242839834 10.765581154597575
Al 10.921560939004323 9.517301427483686 12.790769234018088
Al 7.807389433129404 9.859943365500689 8.317148579558701
