38
Energy = -120.40568044 eV
Al 11.450047597118637 17.045345995577797 10.364523462600655
Al 10.112516805382278 15.341544819349082 12.162403502413246
Al 9.048343059072778 13.228616944574691 13.366158626852638
Al 11.740829300957163 13.57786451338191 13.512198164186364
Al 8.048834340228339 11.077618943555073 14.448818959028804
Al 12.919814041779288 15.166540059911428 11.55522571323931
Al 10.741698318011323 11.154881180122052 14.542303965968777
Al 7.1522534602493035 11.441155316335346 11.823340388793415
Al 13.258487850911457 11.942565914143866 14.888204558086288
Al 8.368044681704808 13.422310932232703 10.667589651943366
Al 9.602415871645237 15.370971997784967 9.431735605326828
Al 14.493970403728639 13.463093281577077 12.715370414915112
Al 12.238671684182195 14.756081981236548 8.847071053398446
Al 11.16082079789951 13.126428352841707 10.788911976703586
Al 9.856633378733708 10.962092249070565 11.925155979544433
Al 6.564417806923133 9.166776916685452 13.296546117964198
Al 15.099313918889447 10.591801573813123 16.310890282334874
Al 12.706396890274707 9.324241240701124 16.095494362303192
Al 9.307262417971579 8.806214497165547 13.58824292953777
Al 8.558507290050782 11.001980381217617 9.425463855862722
Al 9.969757889022699 13.041838825835717 8.269016465475325
Al 8.118905834060378 8.861572304671245 11.07797944973212
Al 12.579086147190706 11.156495300437905 12.173462560825659
Al 11.913970485870765 8.704568613070986 13.657804066830298
Al 13.854868203427557 12.92031663987638 10.162013548900111
Al 14.47624918526411 9.525581197334052 13.816275496633153
Al 11.39882512481575 10.616247754410562 9.62528825765567
Al 10.843745512796698 8.41676638602701 11.294142622809925
Al 15.858390517361142 11.844231475419711 14.1322847176152
Al 12.599186105163328 12.353537597795361 7.803199646743631
Al 9.611453128426128 8.49482954645123 8.889630156104218
Al 10.08983182210592 10.678483993006376 7.115165028632163
Al 15.24870401061618 10.980449163302897 11.56003269410133
Al 13.559098971437189 8.683491245808366 11.418435312591656
Al 14.106236190447616 10.356523233622992 9.265458097044187
Al 12.37318801600211 8.073116872549031 9.05527974276337
Al 12.791671984120294 9.855033245463842 7.043565801230063
Al 10.838445647954012 8.129684205436694 6.546211455105605
