30
Energy = -92.52545838 eV
Al 14.999389382025768 9.417355366058402 10.509486111659319
Al 15.339496475904607 11.745157734268503 9.285621884451585
Al 14.11983709300718 13.804951291780105 13.321215563449432
Al 15.255863140868126 13.91641260417827 10.812176814789915
Al 13.269223538356096 9.26936841527105 12.719788304338557
Al 14.132988504215467 11.59512012383033 11.812009352746427
Al 12.951333650504575 7.897984842479039 10.165061832958397
Al 12.74356758298778 11.533582810566049 14.143691240666051
Al 12.956484628594453 10.521446311413984 9.066578761782889
Al 11.854658443219497 13.814201928931547 15.134968975828329
Al 12.493087011648518 15.878853642119571 13.593542466129035
Al 13.08622633393683 15.483450956362125 10.843243755963842
Al 10.894709249930628 9.567198039749643 14.283401835336814
Al 11.056579499574 8.079455017916688 12.03822306200639
Al 11.580688118123552 13.635641312837619 12.318608463027092
Al 10.709290452950267 6.505159275265968 9.82753236945694
Al 10.698353916083901 16.411146841102454 11.752443932140913
Al 10.005166006572113 12.285911287213878 13.999932493482342
Al 11.30440099555551 10.99059988830585 11.456374732400082
Al 8.795572467513312 7.93790937763842 13.520276191383884
Al 12.841490034015306 13.017073038377525 9.797995521665316
Al 10.722402326235219 9.197459973586437 9.280081232867882
Al 10.616248423440881 14.544516218506173 9.810224886172222
Al 8.742736487821393 10.494643676185337 12.665059019407826
Al 8.714206867255312 8.100937430433781 10.687105585558047
Al 10.769509097103711 11.89715422526006 8.484922419784684
Al 9.14184930226183 12.95074416865982 11.5117009416768
Al 8.67959696769647 10.831782073994646 9.973653976840174
Al 8.511274356525242 13.241428578284467 8.790897884453958
Al 6.622546624725497 9.04213052807612 12.002957366228697
