31
Energy = -96.03861567 eV
Al 11.93229187806316 8.833780899653803 10.218307068357776
Al 12.744606721997883 7.481344013453521 13.997414580744987
Al 9.613891478507327 10.016387861782283 9.432587213012525
Al 14.060514191468695 10.704250570330897 10.03528368133958
Al 13.912038674711766 8.874038464602236 11.98766762849662
Al 9.578493808531785 7.281409067472552 9.919845586662172
Al 10.902830716996585 8.174769228870405 7.761355130605875
Al 9.986595468502967 10.668728058503307 6.6935884908725285
Al 11.586440214156664 9.794498639175073 13.147733961175332
Al 7.729255692276139 11.511841755292123 8.246630339111933
Al 10.184367915734718 12.819285683966354 8.36871753358679
Al 7.174253339393391 8.260874666597035 9.715705174312475
Al 8.235716947900787 8.83371388426233 7.40811867340068
Al 6.886736982933312 10.658489303087315 10.624044786922022
Al 11.853625839849368 12.494661208741327 6.29418655224968
Al 8.980220649559989 12.402390343839985 10.68239267802202
Al 7.4215092552176545 11.984650545469062 12.869886032587539
Al 11.171348689237233 14.181371802291771 10.501501085112862
Al 12.895275331915013 12.996710559975527 8.659010840038075
Al 12.296982997166063 10.447176918154286 8.078139604266598
Al 9.531778933115605 14.123155460511661 12.664126278058156
Al 11.591249991005252 11.527974020893726 10.970846555614779
Al 10.822238483445858 7.359751858209589 12.260966067475511
Al 9.874631744285288 11.679017209717724 13.699387760437677
Al 9.104472267801063 9.636736212768287 12.085205751508639
Al 14.022884775478477 13.59264289271873 10.914495025030304
Al 12.279236603956255 13.80154220674384 12.93231885341513
Al 12.280750987910224 11.841297994790997 14.79069561458061
Al 10.650708061554806 13.979705726884513 15.053642760677
Al 13.984319118103555 11.547800577418334 12.638412386906163
Al 13.944724592571939 9.723994717170063 14.581778658766943
