34
Energy = -105.84608397 eV
Al 14.64230140578703 11.963253176260366 10.98667012000736
Al 13.235548099395967 10.793771119565482 12.947363386788503
Al 13.764180002831504 14.51374899956582 10.30522233959114
Al 13.280595525799477 12.513964980724971 8.729244313315082
Al 12.942984173173553 15.00685863460984 7.744368336219567
Al 14.506899842626316 10.010269451389187 9.038418428879323
Al 11.925155717190917 12.961404930620127 11.762736455883807
Al 12.180888386316475 10.581488247030514 10.404863284631562
Al 11.710663449355422 12.376136511062079 14.47505781945608
Al 13.82611595986464 8.428279780099494 6.839145471265821
Al 12.195754579919331 10.555102597529418 7.5545747015774465
Al 10.907285407968045 14.753705357131167 13.666849417726631
Al 11.005458791537519 13.095396888613122 7.406610066619906
Al 11.100824582641865 14.544396711769773 9.663624188702693
Al 12.681342134099514 10.113066999946362 15.61014210170003
Al 13.893297518268865 8.526099364418362 11.430075242388957
Al 12.419639292823959 8.086936544024603 9.065183369023204
Al 9.322468834555174 14.23360469536849 11.588062585719355
Al 10.94153873432387 8.461452131708704 6.707476467857267
Al 9.968803025270299 12.082909055636978 9.762175569034389
Al 12.098163453376126 8.378031966607608 13.741398396367646
Al 9.420150479940526 10.928010964836075 7.110219789745114
Al 9.108453585872844 12.687780286710055 13.885685755811327
Al 10.094081491490224 10.20458611232153 15.03688015240145
Al 11.02383314919049 8.158265492688017 11.343835061203674
Al 10.330891525093419 10.68594083697658 12.34777871804989
Al 10.029425675983655 9.304169125572892 9.123407353378019
Al 7.8055332297410835 12.082540962049714 11.489048111452096
Al 7.704942835419917 10.687391995459151 9.157307820309146
Al 9.390177026832752 8.041674900328676 13.492876778769642
Al 7.805350708306995 10.437845744185706 13.739974526102982
Al 8.366386586041118 8.946598804665335 11.17989679689366
Al 5.990937520444091 10.138476356108862 11.704587367839325
Al 6.691064854329343 8.027977860227903 13.270377291100116
