35
Energy = -110.07799176 eV
Al 10.605848937430585 11.626411263648606 6.956215383395028
Al 12.386398003754595 9.741803101589001 6.493684877604604
Al 13.133599210279622 12.05970893661372 8.012194006364192
Al 13.210300033475026 14.039544124071753 9.789469567852027
Al 10.755297252209523 13.735916547435282 8.396578015433418
Al 11.942851568088813 7.839409908669292 8.458401878637583
Al 10.757848381546367 15.581776541017089 10.220155835382755
Al 14.168076124601248 9.612261241338098 8.54340006062424
Al 9.15310836865769 11.66834520054973 9.231806511413934
Al 13.916213145504992 11.516077602026746 10.47977376594072
Al 11.554492090027658 10.287269262144967 9.571723560770263
Al 9.623330044897674 9.236962153372223 7.856127783557863
Al 8.790597969833666 13.844426765165181 10.85074962096728
Al 14.494063699084885 7.052732995025637 9.408593857273576
Al 11.267363564717144 12.519425117139786 11.065518144772685
Al 13.756812869139658 13.321630379013442 12.394048272465522
Al 12.75675413880548 15.744091492159882 11.901214418608784
Al 12.190807723603761 10.020785522494323 12.33408356973824
Al 10.508423632337522 14.471591307916116 12.86101015191748
Al 12.690262142621476 14.77039277453873 14.450819961910888
Al 7.609701758290358 9.444838790409818 9.733028001249078
Al 12.386209490335652 7.513970718594705 11.10451494613376
Al 14.6178079968321 9.047506475485013 11.271258117341953
Al 9.855022207898166 7.906987994062356 10.215217816575416
Al 9.574955840306762 10.336115502496034 11.629312616878105
Al 14.564229569299203 10.916797484925908 13.118170758689429
Al 11.741624407462341 12.216474409595317 13.937751994007133
Al 7.191149967510381 11.7606718451609 11.258744253613127
Al 8.928327422175418 12.468597428370794 13.348819800717473
Al 5.654377811764048 9.588254409940188 11.639826034013705
Al 10.508741865929032 7.881399682752894 12.926497925098536
Al 7.932950333630525 8.107541923031107 12.093537503953574
Al 10.13046398641846 10.179771396165446 14.38101441846241
Al 7.458406672416814 10.299683629354925 13.632669050621566
Al 8.555881082385016 8.013125386996801 14.806366831284848
