38
Energy = -119.40726789 eV
Al 13.290062043077766 7.031278015223924 11.115300493010176
Al 13.54953666712666 8.262126987349289 13.750932141704512
Al 14.992435659021588 9.259260747178384 11.65969850047428
Al 10.501180098530483 7.35385692076062 11.24948218904632
Al 14.072352895974587 11.046893820939102 13.381012571501758
Al 16.344959958908486 10.041491542204337 9.454687666862474
Al 13.595731524547015 9.307564458409376 9.36960481217934
Al 12.568425919698777 10.176404219198131 15.501262955057543
Al 15.863346796659293 11.906631249902036 11.327350435119303
Al 12.137665818097 9.426948407059381 11.773396779240013
Al 14.582904435184838 12.049779104163365 8.774136762176317
Al 14.921093366278882 13.668831819440737 13.134913617872435
Al 10.670592452197534 8.456082185551168 13.860365538922295
Al 12.980945163634006 12.819301909769095 15.055953838959791
Al 10.643929771163442 9.648186559243538 9.534402695798532
Al 12.282605457170611 10.976830668104855 7.689289515244371
Al 10.237485521763523 9.340761096855429 16.44595934876146
Al 14.30205804343962 14.140274430074719 10.424837040525842
Al 13.067184292717117 11.642102034261315 10.925059584353784
Al 9.298419240960976 9.828574276912304 11.943175912159568
Al 11.226525708818926 11.402512730855436 13.34180864401083
Al 12.158386761586794 13.327122676039984 9.0063424484475
Al 12.242351349657557 13.797632929840011 12.390954869098458
Al 8.734514670586062 10.370785612620605 14.444440443242991
Al 9.831755435990848 11.970775865450296 7.998564030599685
Al 13.374921584523701 15.39718276177538 14.69923871640381
Al 10.35436455474777 12.287534614246946 10.86245155095802
Al 8.130598483607233 10.90490142636674 9.832739421159841
Al 10.389889314291395 12.048642251169673 15.841924001688467
Al 14.146308233038381 16.149273241101344 12.095495613342665
Al 13.5170029786791 17.923294209952918 13.91525455041939
Al 10.659975882401973 14.34767368641224 14.522113787615162
Al 8.862419849266368 12.655571459853393 13.203918475163631
Al 11.8519289871369 15.63711710824667 10.391985406603377
Al 11.433116556483977 16.584839109720956 13.049242340123929
Al 9.658962814094691 14.45710933015837 9.189451318055632
Al 9.67180093559075 14.90920476990222 11.98569165610071
Al 7.791948711874992 13.385333702216721 10.79724826652681
