39
Energy = -122.05538522 eV
Al 9.091074235060882 14.138513140626447 14.581367709639805
Al 8.560512135760787 11.552533699745444 14.610501126667089
Al 9.062859076454034 15.040447458815917 11.825517621991814
Al 7.476167227591427 13.00448685862083 12.596538193433119
Al 11.704408497702088 14.907092848996474 11.644744039404708
Al 11.162784966445955 12.356896408731167 15.142753266261385
Al 6.219412972894785 10.525576707450709 12.99358151859425
Al 10.147011041642196 14.747296566179196 8.895117015170296
Al 8.743579285229506 10.496438258563067 11.912917422841383
Al 12.961889483374335 13.276442558705543 13.533854584406624
Al 8.754951997110256 12.844948060473731 10.151174466896922
Al 8.136173546498597 8.91901547560032 14.122822106273507
Al 10.371000865197894 12.608992740731244 12.480823596678723
Al 6.413464116827118 11.533410944813554 10.490074567706136
Al 12.802977146352474 15.253225877157059 9.197527465270149
Al 14.137222949361226 13.711632725359618 11.131941116761618
Al 13.75428187188738 10.570637329177218 15.139368499235678
Al 12.262699034158132 10.6436159166654 12.826614860284662
Al 10.699935377287144 9.780974561459487 14.971918588939007
Al 12.655581723389144 8.159298751162476 14.05399167167009
Al 10.894199002432392 10.497449522462546 10.399320750242198
Al 6.837851750558186 8.806249929476385 10.855768655914536
Al 8.319188144535593 10.335321373106568 9.044413387511895
Al 10.264994293687979 8.190021489355432 12.791805447658788
Al 11.842673053665242 12.845091135778743 9.845504216912603
Al 14.993662640951179 11.697132239715836 12.864251461689438
Al 12.45056064250927 8.336089872094654 11.266365803165467
Al 12.056704899527368 13.490864916072699 7.064193991215826
Al 14.286488777726166 12.971343920724616 8.461623899091686
Al 14.69879870688003 9.00811839432888 12.714388196600034
Al 10.114779851457845 11.921444746292119 7.9369449463598745
Al 13.745484600985005 10.912262862743523 10.56265845387233
Al 9.403503446585214 8.126546366344552 10.245669786546436
Al 16.328096148363738 12.285882924135244 10.337106205535926
Al 11.465382579480142 8.449857840678229 8.637543868811672
Al 12.661378445088427 10.806515492442688 7.986943258999746
Al 16.29110544424739 9.581448025982601 10.67299830556378
Al 14.128961022540262 8.504031015974032 9.156886589206588
Al 15.490127702489797 10.564422866606034 8.232793621964372
