32
Energy = -98.47084473 eV
Al 10.782590179444853 7.261344695376373 13.344637220796745
Al 13.282141731516885 7.975303243436148 14.204804618367255
Al 12.506324115798654 6.992543574503957 11.131772325598519
Al 11.108910891298247 9.576024066834725 14.838734281163106
Al 13.527161331770863 10.67025549057368 14.328296157546594
Al 9.492113706660076 9.42639155807551 12.472761538197817
Al 10.663273797260038 8.57224326432429 9.918349857285707
Al 14.70030749414095 8.529459344839646 11.896990740058795
Al 12.130938490897975 9.422451798927897 12.17210392402962
Al 11.856438107425898 12.575896637595994 15.401446662415506
Al 9.375637379941631 11.52457411149667 15.054283067385962
Al 13.386799519255394 9.227909368638585 9.67020229070118
Al 11.435531796863877 11.397786183365248 10.227066608428382
Al 8.368114962474825 11.732642964938764 12.607433539687964
Al 14.156679068301164 11.165082756692478 11.533366165902233
Al 13.797017288304533 13.086281966383858 13.395513633534547
Al 11.288686258103189 11.7799535040644 12.879465787997294
Al 11.71863904071384 10.141494455170717 7.822310312063444
Al 14.381752055707977 15.631895563302423 12.696294169780597
Al 9.98160109626811 13.984411565380498 13.672396619022228
Al 14.33849311420698 13.793119482515374 10.743021832038531
Al 9.095364243629389 10.44558672424287 8.986429669216674
Al 12.49742838664705 15.212287959108364 14.579202252837508
Al 7.676338938165503 12.635835987796037 10.099116881455265
Al 13.775049889423784 11.929471805458364 8.827128141683568
Al 7.628630452164509 14.276250917762379 12.19961893454583
Al 9.765789309323893 11.277766725649283 6.410042409881259
Al 9.675698663629126 13.078810450297699 8.333315081419068
Al 12.016526330033429 14.775950685614239 11.899103469645093
Al 9.974112465201607 13.560332986306369 10.965083739769671
Al 12.007958239546642 12.728231510674993 6.920161103255622
Al 12.067322411271185 14.071779406042774 9.228917719679686
