31
Energy = -94.84775528 eV
Al 12.52290357906506 11.34927456252921 15.391476641799786
Al 9.877335341454303 12.082432166643194 15.68890148442736
Al 10.482837918572638 9.435286741282255 15.18108756261414
Al 12.589698397596852 9.38009344325343 13.402260657761127
Al 11.864055580206673 13.721341051546371 14.116580016748573
Al 13.651653423135892 11.841859512398557 12.973266854782846
Al 8.33779733896988 10.699643280739288 13.674263331643086
Al 10.811343606301124 11.413775841908409 13.050317766026335
Al 9.061797286428252 13.59596842021902 13.618434124951005
Al 12.043110379583398 8.59810541967911 10.773187936663614
Al 10.037910775805914 8.727998420172613 12.619868368183354
Al 13.598971549179149 14.364921725378782 11.934076408644598
Al 14.393938813445168 9.765832456494671 11.333259844008358
Al 12.029009549468341 11.347277025136442 10.685840745435698
Al 14.631764847306265 12.228151037790061 10.491942678444632
Al 13.28678662517719 10.017514316951754 8.675479860352603
Al 10.928716892976174 13.754807091379597 11.545540700251951
Al 11.854920850352388 7.7057118149776835 8.360752896224417
Al 9.590499501577382 7.552869270913785 10.188088207945789
Al 7.9632150292545 9.630129617621236 11.216027718896855
Al 12.67570471476859 13.777184338207926 9.414944226040548
Al 8.59678524595341 12.244073762786908 11.377879692523502
Al 12.278400950132148 12.162338196212247 7.366378011210389
Al 10.199160807211745 9.973277832032583 9.031371604437398
Al 10.1174436042354 12.813692230062477 9.185996431029027
Al 9.421216153923863 7.635302340137213 7.468038816656921
Al 11.351741324171652 9.659050319511454 6.505981107240851
Al 7.196960660533169 8.50317731418059 9.009658289410588
Al 7.8117766564186955 11.305546340801973 8.992018632737862
Al 9.633210848597768 11.83781715591146 6.865051138056839
Al 8.018834377534064 9.743903315227257 6.732179606212872
