32
Energy = -99.34480749 eV
Al 7.539392888309604 9.623130951040302 8.701881019649194
Al 9.728016108235527 7.615336594729645 9.359242544893192
Al 6.73700276932068 12.598133629099893 9.292169238012244
Al 8.865701121689822 11.749637451839545 7.854503032933832
Al 7.383583769956692 10.895255233567308 11.156382028903762
Al 9.710839596569382 9.103362363256526 7.112790418599151
Al 8.430887524402253 14.571043555294958 8.631260563740664
Al 7.559403274071015 8.095595136791916 10.860174860841731
Al 10.074147409386452 10.295427527859236 9.779696233157573
Al 10.742573942679421 13.564543948855507 7.558892176213623
Al 12.042220211046324 8.689164798463631 8.550047874895844
Al 11.549217687790174 11.070503823023609 7.370083001809393
Al 9.217933692049575 12.810738976459076 10.508423982948315
Al 10.846777762581517 14.918809748099655 10.046781873885633
Al 7.740901692959746 9.392756971182319 13.322413102094814
Al 12.036722642712729 12.470679832839618 9.711530128375076
Al 10.084722880029364 8.707135711155086 11.991387878674498
Al 9.43267420479137 11.498977326571069 12.822671808688632
Al 12.389964999416486 7.6651988227771275 11.045675049863766
Al 13.857381733580397 10.574020393051365 9.267729758167608
Al 11.200434730735978 13.378390400062061 12.299238854341526
Al 14.49051048882634 7.9789417451580285 9.428949207255922
Al 11.90741495816628 10.666940460525558 11.787030778543203
Al 13.271160836936755 14.787158958765676 11.271499087108136
Al 14.146944987418186 12.21359134951396 11.401400062711748
Al 10.054858711302568 9.601898738836564 14.653177144071979
Al 14.40689313572262 9.414194221340713 11.70784950883975
Al 12.435188150460379 8.596641654087339 13.527510489457852
Al 11.42036983080561 11.976854652754946 14.505005530435849
Al 13.449602229676993 13.667822746887179 13.728197100420598
Al 13.894066124657215 10.934227026832902 13.832284960770675
Al 12.377112931807506 9.898508277373244 15.938743727790234
