38
Energy = -119.01395068 eV
Al 13.729095151196008 15.655743094047684 10.489669661572174
Al 9.505426041124192 15.19266162423299 8.378628800902275
Al 12.20829391528606 14.797828406020308 8.533681197343618
Al 14.045920352129695 13.061280654656539 9.681639252348338
Al 10.87155058266076 15.047252563731464 10.892918014442794
Al 12.884185432565907 13.774524393817783 12.416139557474098
Al 10.71738813689816 12.790869708416734 7.6537261852594085
Al 9.026596280159147 13.21603518803482 10.196793192077426
Al 8.11792987585608 12.751534998968065 7.7210555824158
Al 15.704295021576362 14.244451910748431 11.586446422066025
Al 12.542045331405726 11.061150470160854 8.198644220083946
Al 9.571678657514328 13.608084178127836 12.726467783219222
Al 11.594279965076211 12.347215885826646 10.492298146703437
Al 14.625129126650892 10.466278070306519 9.737746158173264
Al 11.287304589528562 13.265928179261449 14.795017060594958
Al 14.699510528851102 11.893057948941507 12.28246860048487
Al 7.202832453480734 11.332985253737208 9.719549376927802
Al 11.307720882025754 15.623288699799595 13.527914495168362
Al 12.670145898116159 8.335594420088457 8.14412115883201
Al 9.850142632431346 10.594157420709656 8.962612602542086
Al 12.11168807879292 9.644181293830401 10.662995898539604
Al 14.364607555172263 6.568078709708636 12.487768253544964
Al 7.311543197927878 12.117771703936915 12.391486996339664
Al 10.278288696657444 7.894761557560759 9.224734603795353
Al 14.532200632995862 9.287613518225385 12.156525037149795
Al 9.650821998595775 10.896307657044568 11.64876296943815
Al 11.976702582269152 11.204142627690022 12.984488759385306
Al 11.629543797997254 10.86172069153123 15.802879352439653
Al 8.066230126599608 8.885253110975375 10.330422489841727
Al 5.713253093165762 9.882211228922866 11.451137845667052
Al 12.146701606660661 6.940176698606146 10.910872393006246
Al 14.564737588930168 7.794843771869129 9.946612956722527
Al 9.185490231730856 11.574574910345879 14.352202522970378
Al 10.05467273211882 8.133176300974016 12.034651578566082
Al 14.047140249465864 10.461902545072688 14.55309162966545
Al 7.862455984885829 9.41454339785445 13.10471096404757
Al 12.377885008922503 8.414122379418709 13.36037255964476
Al 10.067365316260576 9.067494160480658 14.561545054286341
