34
Energy = -106.5501992 eV
Al 13.359568217415303 14.437803676842423 11.050495302282533
Al 11.773669707488219 13.311958103835401 12.964975460254141
Al 15.6136219818465 12.97553278963052 10.196932380176579
Al 11.819407330597425 15.13748616002311 8.805459226725851
Al 10.285157623735936 11.914235341036573 14.567889486225786
Al 14.036332241112213 9.153119894679996 11.744163033381232
Al 8.970042318916203 13.550349756034148 12.004135178832554
Al 12.221188517521522 10.50966062683014 13.258332254735624
Al 11.135517299732669 12.81873382849363 10.364685764930496
Al 13.348697102471604 12.760373848724095 8.77020339403784
Al 10.774346692542506 15.494894448061649 11.348745833067934
Al 10.753989142027944 9.172313456155901 14.989637832370667
Al 8.561085264837198 10.525134664510293 16.031985839500933
Al 13.60630867844786 11.85603424470047 11.57228663057344
Al 9.831234229793736 10.980681520503918 11.969671040638088
Al 14.690578425260128 10.475533239669325 9.490452091578799
Al 7.702991887782463 11.79290568606972 13.664475285271386
Al 12.777579852123187 7.856510164139533 13.744533339777002
Al 12.486688798620126 7.048199425916752 11.036491440415599
Al 9.14637295199597 14.434790962278285 9.240861169622384
Al 13.671251489804861 8.048629299518604 8.818769170632166
Al 10.55526400453249 8.36327127725972 12.275355895945047
Al 7.107268143266908 10.392412979755834 11.402018347510147
Al 11.820800134995904 10.095183788872541 10.244918557925498
Al 8.353124485476577 9.1776758156266 13.688823056510246
Al 8.504350809049917 11.833633712326447 9.644286168656324
Al 10.963319548698628 12.824212242913854 7.656524655215651
Al 9.938151433527743 6.704351508469404 10.146197860233638
Al 8.385376290832255 12.72802785454873 7.11940301691513
Al 12.423466084970727 10.47282014439992 7.583239100917302
Al 7.939366661412046 7.724720563651896 11.562260864985308
Al 9.67960410689374 10.418893158499445 7.489017785414685
Al 9.207138451475931 9.304579578953215 9.871627302414346
Al 11.077626619569251 8.22582276584299 8.20163276110041
