35
Energy = -109.11371463 eV
Al 7.662432594594717 8.746272821858316 13.695250645064489
Al 9.494859670963987 9.228259796751193 7.427117069267264
Al 14.473235293592765 9.50335791015801 12.084777154828
Al 13.815012371160886 11.987839853002265 8.14174007504985
Al 9.411258950544724 11.797242463202364 7.077972557243945
Al 10.171030634055466 14.719497109651734 8.974004043354572
Al 9.203225648837082 11.08426011537516 9.717138732634648
Al 9.485031533085392 11.099322482292102 12.549959882562897
Al 7.8813422109849816 13.323127861637374 8.715837864162156
Al 9.760881246788001 9.597753646714656 14.826125163463056
Al 6.961069781540949 12.2330953826043 10.93619588983096
Al 10.09520508671204 8.23035428966556 12.50486920325927
Al 13.534951748393926 14.022441533657657 12.00273022732748
Al 15.40888310347587 12.022236692943386 13.10690319526577
Al 14.487554088521598 11.846189544293916 10.636406745029577
Al 11.466634375219146 9.979733250757832 10.90644382567178
Al 7.949444077559334 6.887945869607497 11.779086991294362
Al 11.594081036525129 10.605326155194287 8.241946113874839
Al 9.219211930727141 14.417110048995982 6.50029491871046
Al 9.154163824505835 13.579644792034605 11.27880190278382
Al 12.668936383107356 7.59896520061313 11.372283097936936
Al 11.77077124113566 12.688717943879634 10.165743507496899
Al 11.662681214876383 13.256332685242347 7.336569743329068
Al 11.568169403292446 7.886466967322965 8.72157019475173
Al 11.353975258782253 15.240411840280707 11.163583904352786
Al 11.307530245069344 11.682243567887497 15.004420582070503
Al 12.664254840951303 11.562347203140598 12.662234262034195
Al 9.016062896905332 8.377026762818279 9.84727904020437
Al 12.216748144364878 9.123840991172075 13.71102019416611
Al 10.455369689997255 6.228641957792232 10.621797809290626
Al 13.374742373781235 13.397017471454882 14.640990652961117
Al 10.926954923276877 13.589484290025537 13.23023012486381
Al 7.26177139523016 9.68610896103809 11.294060081315395
Al 13.716258594403227 9.346637382737997 9.35968385873972
Al 14.012859364853616 10.631340332013052 14.971525923624156
