34
Energy = -104.43575352 eV
Al 9.743233083679483 10.8335119519915 12.510169087294248
Al 10.717797669946476 8.49837484566374 11.508866647805661
Al 8.749339436232159 13.57498517349505 12.23131328508872
Al 11.08029279199674 17.461399393974595 11.136008760489036
Al 14.587680731113707 5.931321701421524 13.747355516799113
Al 10.006529551464338 13.810705912840074 14.554707469252644
Al 13.921223674729251 10.502297393567071 8.704063634806083
Al 7.898108645991115 13.686299536441599 9.425636492469113
Al 11.297508197712741 9.948192519761824 9.063268614586054
Al 15.28872176688017 10.189502206091912 13.847747555386356
Al 11.620069045354642 12.867822185021156 12.217539835147294
Al 10.27670199575773 14.075443201234691 8.158880650560661
Al 11.938125848846884 15.108097360854613 9.99386294973493
Al 13.294429528821205 10.457868878869004 15.687104947176309
Al 8.863968992282501 9.563035489626516 10.060427163979087
Al 13.549118604504976 8.095314793238806 14.724166567226472
Al 9.323538699694994 15.63312205511415 10.399688868982413
Al 7.46355586794239 11.605710955344989 10.948900905521862
Al 10.911641562265308 8.925502986926285 14.297200044206516
Al 11.193095659125174 11.59501615467269 14.789906096995024
Al 12.526949957384566 12.559627005621126 9.554199046718624
Al 13.95872031033835 12.493215120164935 13.813882564545578
Al 10.002235186967782 12.128915526450212 10.029815140804743
Al 12.017237676150001 17.366540856248793 14.052527347914845
Al 14.98960872822677 8.060873712651 12.27722986449191
Al 15.309269678515673 12.617696640553921 9.317968042772083
Al 10.612756770889725 15.48340592779747 12.729799035697132
Al 13.338069462856303 16.261010690928387 12.01708361928924
Al 12.436529887164246 6.860689328889018 12.550724563515635
Al 12.686826811145686 14.74389376725721 14.321265920027079
Al 14.183135081498273 13.871527299371365 11.365545811291012
Al 12.61354861144941 10.252425136901135 12.762169469672267
Al 13.198531706481859 8.723176793252602 10.47979661143271
Al 14.733781221174292 10.916537785571233 11.322039372768915
