36
Energy = -113.84491371 eV
Al 7.753260449401991 12.284888365081537 9.94645893748221
Al 8.051145667979162 9.651376819599193 10.490131104431711
Al 7.742262959271504 15.016430767633981 9.426817809248906
Al 9.203532219573761 7.2619844889732486 11.246939193553352
Al 9.639593400804172 13.511772353051665 8.191600779310567
Al 9.554983781100741 10.857702256365162 8.408622885381307
Al 9.521873868367026 8.278530987220718 8.51779527204507
Al 8.587288716377207 11.515693994615596 12.507528414327917
Al 9.49852248517273 5.739826447730213 9.141045873342145
Al 9.25989871802744 8.989866447395539 13.167520169689844
Al 8.285613888061874 14.148360966465283 11.961395434196636
Al 10.376183756850125 12.44249753143286 10.702836333082645
Al 10.768382285281202 9.611241030211684 10.77264696993044
Al 9.388753624366615 10.868586185380183 15.075135264463208
Al 10.286334148397335 15.255649664105066 10.34384776863449
Al 11.652671558168029 7.738858345746423 12.588970834875806
Al 11.981751452414283 12.123151483726762 8.510547572732225
Al 8.730794290830255 13.51742317958041 14.572613326967973
Al 11.233772694985559 11.1895452085374 13.047470771053264
Al 12.10161519241503 14.88406553899012 8.241067465493602
Al 13.36694572613665 11.259835099751696 15.31585332706454
Al 12.913859223404854 11.36370855079794 10.916744409664226
Al 11.678199076744402 7.000987994364703 9.84949189478114
Al 10.858103612893178 14.25925323370918 12.809698246755808
Al 13.230334250469776 13.16097546615075 13.206136650174388
Al 11.553945754710735 9.17288408760625 14.911354155527542
Al 12.073802829186503 9.379695655826385 8.326682659063891
Al 11.331758772876261 13.00456260812536 15.131582917794997
Al 14.375060182970858 13.473887494782044 8.70448065022992
Al 13.554327897391653 8.625295112588331 10.52582117450065
Al 15.108911415604386 13.066716725896008 11.29547327899204
Al 13.526365505338957 9.734550839750739 13.01100400055733
Al 14.440565617912554 10.702838920512475 8.710503799536836
Al 12.641308894841405 14.121794239154346 10.798536910981825
Al 15.475453439450082 10.309356273309502 11.209327283154277
Al 15.49224852314605 11.715631516755739 13.655742341901439
