32
Energy = -99.79050313 eV
Al 14.025662951864229 9.655718222015393 15.13903931000047
Al 11.277006832629867 9.860107891247862 14.807575890891423
Al 10.102895512297083 7.413747187301902 14.657319414950225
Al 12.970171284772945 11.8526042923198 14.005527066143108
Al 12.59550150983763 7.8964164903090674 13.544190592971244
Al 10.308244253125421 11.944960328507658 13.31471526898095
Al 14.266665908349704 9.832135057162796 12.46807497018681
Al 9.034777403441431 9.560028697112134 13.279018649407332
Al 11.49131751114182 9.992526422372842 11.823541588968103
Al 11.849051613458853 14.038466576000948 12.788252798168202
Al 10.275397327261022 7.479547293214624 11.960298216648793
Al 12.946409692483458 7.71899752161054 10.99823940463053
Al 9.044230935369564 14.146873544962759 12.259566122075663
Al 13.151205832730273 12.258673898643295 11.295603950333044
Al 7.961829622869867 11.71661023365449 12.004307084930042
Al 13.721306526509364 10.036108567737031 9.873431991003116
Al 10.923151419198165 16.275101510779628 11.783955182072585
Al 12.585152820787279 7.745988299420357 8.403052190920263
Al 11.093755320666366 9.964436423828028 8.947458574190966
Al 10.034724219684728 7.423515037817249 9.307916107421262
Al 10.444085966691654 12.25638293874236 10.527166628335616
Al 9.527008443186846 15.231120751426483 9.812553929430827
Al 8.998903875303156 9.657044015678776 10.556886417502358
Al 6.666096206611067 10.749253555094498 9.655511306065073
Al 13.19793453166873 10.039018771529387 7.234133570748794
Al 12.767093498481588 12.340581175470806 8.680156260815279
Al 7.892186308580142 8.72373479476572 8.206466382024665
Al 8.913817981473194 11.234652126292023 8.120658284306737
Al 12.258742048900485 14.576887307634038 10.038448332724004
Al 7.91839445948787 13.160874358768066 9.709869744668755
Al 11.142191696066705 11.482677353495228 6.581296365473242
Al 10.444043433481013 13.564166303495723 8.044725351421727
