34
Energy = -103.76537539 eV
Al 12.755195804737253 9.161512307316277 7.7311508468327945
Al 11.653481432161085 11.55401867230838 15.167224900755782
Al 12.751884153064076 14.127477622489062 10.31524038017574
Al 13.619250508096142 11.710214734631341 7.911263415284846
Al 7.902072307523213 8.257390751624445 10.197376148130102
Al 15.43993760785937 14.72075903583521 10.603881739205873
Al 10.097690558601693 7.835021953477401 11.875665953387564
Al 14.575520197143645 12.128870818119664 10.322342379861185
Al 14.452225262612549 10.450671534836108 12.549802177283434
Al 10.021401703306466 13.915747771937909 16.06177724640853
Al 11.740167222972381 11.073078070689235 9.889866995834875
Al 11.202430946468215 14.914698153382782 12.329776723132998
Al 7.784101880272269 8.852598842407852 12.762189544522903
Al 10.063172220168386 9.875636594165377 13.815777146339338
Al 9.293990819091619 10.476889911927815 11.0982831916831
Al 9.955374637270813 12.908444627514786 10.691775802422057
Al 11.193740449829296 13.416805446939506 8.244570617182793
Al 15.798635396744986 12.840422628296261 12.606753524168209
Al 9.701828340481718 6.563744463452051 9.406456265966606
Al 9.753001826807573 12.89350752936022 13.479331916074564
Al 12.226396269474934 14.281397972452202 14.817376484659441
Al 12.180027085040853 9.371545068823943 12.183987416938185
Al 9.018477114033495 11.51655882890549 15.800036857549898
Al 14.05850123451103 9.540681887494518 10.024763718207474
Al 8.536825672142927 14.83405225034318 11.87973577879266
Al 12.281776356647319 12.222879733477969 12.441806217069072
Al 9.994241737053663 9.182425665911675 8.70927261568294
Al 12.11313426488449 7.699947732538892 9.980869942217167
Al 14.100355163522984 12.30462169103372 14.521687503748064
Al 10.982431006459882 11.106766683334675 7.084922307281475
Al 13.834177317745874 14.656187990695093 12.820173701127725
Al 7.546333699335597 11.272725395078593 13.635097091208552
Al 11.280938277647852 7.075516870669687 7.435031396391931
Al 10.25300395756031 15.418903189802649 9.766454485745774
