33
Energy = -103.13807177 eV
Al 12.078068409871813 13.090023260368813 13.43087302459519
Al 12.326548098315548 14.401284517950383 11.087466020572364
Al 11.254700931872494 8.620127042802832 14.34839821105898
Al 7.23029361856881 14.145162651118282 11.959201392868483
Al 8.275230864935905 12.68755585879819 9.708195623969003
Al 12.234509043784769 7.039359431985061 12.204627815123628
Al 7.654972019110045 6.992576270600141 11.738276311775689
Al 14.472554907296663 10.180516935863743 9.496763094915185
Al 10.729921697349882 13.604244417196321 8.873831479545288
Al 9.825956761975608 6.47888623728622 13.239185288455326
Al 9.602656336431638 14.843189967872199 10.901645864463232
Al 12.594560640147309 8.031690348307375 9.797014719794653
Al 11.377594833774307 9.65699232031017 11.750540236716155
Al 10.34552723703766 8.716841069651531 8.191875609764358
Al 14.166925987915063 11.263587869453762 6.967364223633129
Al 11.377469912221505 10.192998183816231 6.127466223395038
Al 13.166931091458432 11.668762631867873 11.366763786027697
Al 12.934798011212285 10.57840019331856 13.844693499313573
Al 14.134658353687684 9.035577786148172 11.986768836339845
Al 13.154862603174585 8.803873657004928 7.427685384280984
Al 13.533161412109788 13.003694215259907 9.026149567162015
Al 11.851161673188573 10.837544495751787 9.032024514239158
Al 9.998325753839858 7.53829498725065 10.57329988164612
Al 11.865147338825189 12.671814660923772 6.785835514214845
Al 9.095882901418046 10.11578212645193 10.24970731584775
Al 9.479106403189258 11.300239337958523 7.756660762940822
Al 10.246391474231151 11.14223448384116 14.107462816249052
Al 8.964042108165666 9.081135765808702 13.015254461352276
Al 10.506316978695311 12.238849223677315 11.325463846968004
Al 9.523688269634755 13.7145008276585 13.518553631421424
Al 6.7466604381249455 9.520148826326329 11.514775226453672
Al 8.106734940852796 11.60702873075074 12.591954561032203
Al 5.968678689005983 12.021121408043205 10.878260995287421
