35
Energy = -109.16095083 eV
Al 10.625446799939843 7.822925623638282 11.255011211612452
Al 8.878165498401996 10.38742574795026 9.956405392344276
Al 10.085626077721935 11.168718559189157 14.647317923665696
Al 7.98182666661125 7.926919060762263 10.754371128604133
Al 6.233639584803444 11.109205179862906 9.760549526957083
Al 7.422962228638393 11.062565232695633 14.120045481541839
Al 6.460662944855391 9.627220342757145 12.014183813454315
Al 11.471589992266336 9.750300819672344 9.201994356588042
Al 6.478264921820699 12.471009075719639 11.98735415372696
Al 7.868286468667399 11.911514782933589 7.811059197820065
Al 14.196851592135616 8.82253529817546 13.817729397608206
Al 9.784429679124742 10.256715495651328 7.115801122165404
Al 8.234710268910725 13.219868706122107 10.01884187800852
Al 11.436007495029655 13.189498347968138 13.445623251656551
Al 10.495083666156868 12.307230704716828 8.776339765777815
Al 9.077500597393987 12.544391904907913 12.519852724060364
Al 9.120534909016628 9.655322560299561 12.561106689348941
Al 12.670247548308618 15.66290261864928 9.931900963008552
Al 9.541006157541933 7.94138299545259 8.609983853669412
Al 12.60997397566845 15.398736137629939 12.537901714036908
Al 10.713879968249246 14.01716424750295 10.8881979159323
Al 12.582921498930432 11.188246010091406 7.092232478431213
Al 12.87629881362339 13.461128623325276 8.498828793698042
Al 11.759082378332716 8.47069800818371 6.6022667731489335
Al 11.265180682448245 11.238372514129342 11.411990297013626
Al 12.856058313185759 11.198197110731083 14.902915155746571
Al 13.428122337196013 13.304788416754793 11.16069918910208
Al 11.570064793358254 9.241639118636948 13.404526826554449
Al 12.664858850537742 6.848428523772897 12.728125332775269
Al 13.802371487742203 11.148279941090859 9.68938572899909
Al 14.109533851731173 13.387626589072573 13.806041522543982
Al 12.191306642496201 7.147350540705767 9.105671445328555
Al 13.972696529138707 8.957917978744014 8.195805137063166
Al 13.997288784088408 11.077425350654908 12.390713937147483
Al 13.302960591942949 8.841790427864758 11.044668516876591
