38
Energy = -118.77491997 eV
Al 12.092309595303036 15.69898863370569 11.415723999669586
Al 9.54130686103574 16.454116668756285 11.574886429940683
Al 10.395368776135074 14.817651055181857 13.677651237904652
Al 13.08419178533954 14.025721364297713 13.359400929942968
Al 10.300553503096692 15.689335718590764 9.10981372224161
Al 7.633536307834609 14.716975815821888 12.308093429669595
Al 13.553449600016798 11.6770285111601 14.64329417708346
Al 12.198014277116974 13.967793713973181 9.097918367560615
Al 10.083529713678635 13.774603720074312 11.198208610961139
Al 7.9145882069173314 14.744207008268647 9.627084889872503
Al 11.117410211557488 12.119105423408541 13.20610865914781
Al 15.548980506984478 12.977837562425886 13.06677446499803
Al 14.377452224112444 14.117078938857697 10.846968688461079
Al 13.431955386181631 11.685671841420964 11.847956028940102
Al 11.367668466389027 11.559618601377052 10.317185179483538
Al 13.879073879442098 11.868886155520263 9.111965105628512
Al 14.966286569341841 9.893725175951213 13.053243872919037
Al 8.521552384358746 12.642809517061282 13.628058413204473
Al 15.990513301783057 11.60081461350446 10.854638870433353
Al 7.221975930332863 10.502305578241835 12.871993356382179
Al 9.464162839137728 12.76450679001156 8.72934279822922
Al 7.740681448237556 12.328983447731424 10.81887917852005
Al 12.239215428184384 9.62691234260999 13.587407877551247
Al 9.640256219527814 10.10343909648758 14.593146976793184
Al 9.796907544921785 10.040266237327835 11.90358975366637
Al 14.55764120350531 9.463633324680503 10.348861929157742
Al 11.567927812309287 11.709367508465368 7.5506619760281115
Al 11.864214146601691 8.762818621669108 10.807042147149135
Al 7.61392438329656 9.604820813679956 10.345474188066184
Al 9.896514638342351 9.742075939960182 8.948854332761352
Al 13.719448405311198 7.474769194523793 12.3558073999209
Al 12.62612895440986 9.404680249111895 8.2930004462684
Al 8.178472882950423 8.040962983560886 13.104589990500665
Al 10.83513278776269 7.514999381865474 13.032099685349438
Al 9.353097818933504 7.484756257766468 10.673338913768472
Al 13.737972363625788 7.129516296258275 9.404231030150187
Al 11.075809129378689 7.119814687734991 8.595877037413855
Al 11.837721492394056 5.947368861144679 11.015288431701675
