36
Energy = -113.27428824 eV
Al 10.741495993323907 10.726332681854627 14.741600475298016
Al 9.800111808539484 8.09327866028226 14.62552200045798
Al 11.784516919901447 13.442923725423555 14.769727124864552
Al 8.199696458204093 10.128332010589926 13.696519342450337
Al 9.255144299019863 12.85253621751776 13.76932423384929
Al 13.934592276128361 13.830135672594654 12.451686623426836
Al 14.540432495831872 9.479586520594601 13.711641710160517
Al 11.896904751823143 8.899881940476481 12.944368194208863
Al 12.699588321260922 11.48082892007982 13.09377857316105
Al 11.02147179477 6.3425693213497425 12.897376844826413
Al 10.317396879582976 10.946036102175848 11.933818734556588
Al 11.203179045244555 13.75442853423368 12.072590875114917
Al 8.792064915585588 13.07425608236932 11.10448595962583
Al 9.2191740932956 8.277503001707888 11.97858880250694
Al 7.703369111625756 10.298157264572168 11.066933098260634
Al 6.771013603106933 12.280998440559852 12.794402290588314
Al 14.865085852531701 11.354938433656502 11.582788898125527
Al 13.866194218826866 8.848480914529599 11.121756937759116
Al 12.416354245311334 11.97334369156289 10.4599924398685
Al 12.895821508893107 14.937502257323521 10.18868969106051
Al 11.304974728378411 9.01663465533426 10.323561787085318
Al 6.322282098414573 12.47887895462303 10.142567823556279
Al 10.288658964907873 6.470750109110346 10.211810996056409
Al 9.681330590581837 11.15374693631761 9.37327385764214
Al 10.629676823656153 13.969223711151665 9.39163707194567
Al 15.104146105841753 13.423449417103804 9.798136889617862
Al 8.595566910729701 8.429040580580107 9.334360556827498
Al 13.334267645662932 8.09519429989848 8.707762598623066
Al 14.352064148680943 10.797197212766438 8.987944053536092
Al 7.183588210416082 10.509199217476585 8.395842711884402
Al 8.205374960837128 13.304255765917699 8.420468688700913
Al 11.886312378067478 10.415266591864205 8.101260482198796
Al 12.846044017339304 13.02090050525761 8.059036531566164
Al 10.822855578888195 7.713869360925092 7.917973402520024
Al 10.281228568953859 12.409330588823543 6.972729830294874
Al 9.331265393630325 9.864257417188737 6.9492855855681155
