39
Energy = -121.97880916 eV
Al 15.456513924355129 13.596871509035061 12.439651017339378
Al 14.30928111503772 13.595173766563923 14.91743049349936
Al 14.97890678637685 11.188152061226067 13.955190534474456
Al 13.16018739919373 15.076773439787077 12.886470986886215
Al 16.353455086075602 9.333037810522525 12.706556161490404
Al 10.13878000842796 15.828214793216244 14.201876478775942
Al 11.66887756308456 13.547162318663686 14.688371375382982
Al 15.062453195597417 11.161866910223974 11.111232386711377
Al 12.218580343385334 10.875673646961006 14.50694868478974
Al 13.619010403699997 9.153132047568231 12.889121696770188
Al 14.070107082817685 13.963232551159821 10.25772885652018
Al 12.929284846382957 12.411966489305897 12.34568367485104
Al 12.013229867915898 15.73480941551125 10.533590700439136
Al 14.947715793778894 7.845068701040726 11.021127451369688
Al 10.393979595762074 11.84493830070716 16.371383711887
Al 15.259487435101063 9.545526489764372 8.944566720160255
Al 12.684541172458642 9.65896744948284 10.312683570485937
Al 8.948094018653826 13.450193241564646 14.594198538545136
Al 9.87804573306193 16.775898828882156 11.700075333770316
Al 9.544070728457841 10.805417000633396 14.08865599068963
Al 13.721657531676259 7.232832717361 8.67631353105761
Al 10.576116337954968 13.901888464257993 12.214195317589809
Al 7.970271707904347 14.992774114419598 12.444836917643606
Al 13.053630165846219 9.446152457243306 7.326890669241418
Al 11.02290200839886 8.916015937433775 12.746876139635562
Al 13.725798899770002 11.767548792179845 8.751987118109861
Al 10.65353863342742 11.224757098200545 11.484778182726663
Al 11.532327375068297 13.204229995732533 9.683352812627987
Al 9.281582792068486 14.843450070607048 9.954436001337582
Al 12.330637824693811 7.069389691155438 11.25039531629388
Al 8.219825418132958 12.279825478610768 12.267474691768495
Al 11.10636584131931 7.93680619660737 8.815594692237807
Al 11.110150282028856 10.886545536187441 8.40071967130112
Al 8.369612153134035 9.336814791472122 12.22993202331676
Al 9.01868908030829 12.232389717109788 9.451132770958475
Al 6.777604587149126 13.571653135021432 10.379943146055354
Al 9.632622023754562 7.190331531292197 11.146560954123668
Al 9.134568686788839 9.521486279135447 9.663039633580446
Al 6.912047828717278 10.837582501918535 10.42354732332258
