39
Energy = -122.96171835 eV
Al 12.59562564884286 15.51867997001016 13.307405420105702
Al 8.523858742547946 14.360301096836041 15.011919436150103
Al 9.872742911408702 15.00283647571757 12.699876009511529
Al 14.49371223853841 14.72674180142957 11.592321563372915
Al 11.168032294850763 13.612361250590991 14.615121272593697
Al 11.857484667127432 14.496184769055569 10.866675069499108
Al 16.31991289632387 13.80885826125707 9.90736065303027
Al 9.304304974511899 13.913258629060739 10.314231853432664
Al 7.783649365007981 13.116244598168377 12.761232481059027
Al 13.065171589712175 12.753054100699561 12.745833834309376
Al 13.778958188991114 14.3808690696661 8.828140624989668
Al 9.181826387514887 11.709033437915771 14.85153167015051
Al 10.335280938915687 12.191822558134774 12.257657654423692
Al 11.163312266082007 14.163610279230817 8.176101751113416
Al 15.949342454918366 12.269838064400403 12.238646613218044
Al 11.839954901816506 11.082307589158757 14.45317654918204
Al 9.312703582106389 12.178483470808011 8.200587729573442
Al 11.554983034837043 12.027342945235414 9.837195104651208
Al 7.598382748365971 11.83147009446725 10.520642602920319
Al 14.355361507688915 10.553590225464635 13.760626246499104
Al 14.220434047732882 12.033754771830427 10.19118016684531
Al 7.535312382971529 10.2281866007691 8.402485989329197
Al 12.267908067380542 10.250131538872068 11.756802635590683
Al 8.454144321821504 10.18694553438717 12.691919086343576
Al 9.752897220514646 10.053425801146592 10.257252513690046
Al 12.475610348528303 8.471511489320045 14.03101344549411
Al 13.11944290461078 11.987820256133366 7.591606602051922
Al 9.962522068375403 9.126141156195182 14.777307354650185
Al 15.120548691488802 9.711810029729687 11.299110723994126
Al 6.885211118841925 9.137308637989515 10.852577794813532
Al 11.1479057436808 10.127208758965144 7.745010902360587
Al 13.383104611231953 9.686579251866174 9.241064612765886
Al 10.409893778759512 8.190815460825794 12.239410371987931
Al 8.799902152523472 7.188168599079475 10.431209019309122
Al 15.064034096557977 7.900861599518136 13.360848881655178
Al 9.330839628110299 8.258535123831765 7.958183275435601
Al 6.788596483955534 7.569214198740731 8.65672375283425
Al 13.23494102663793 7.7069016351906585 11.381486465805885
Al 11.37966898160001 7.875309883734596 9.576041280690731
