39
Energy = -121.38325176 eV
Al 9.38728606018727 9.33448148922551 10.692626346852977
Al 12.427716239812732 12.480520810774486 10.692626346852977
Al 12.933991024775276 14.785019719738967 9.289134136602074
Al 13.921936848692129 14.171357629595045 12.01538644606191
Al 11.26720875129496 15.044189730467687 11.371555448210703
Al 14.918099927661256 12.908641031975591 9.378796932089433
Al 10.250864918445707 13.558312934963409 9.448433688087455
Al 12.756316347891591 12.002624560013645 13.319669097295792
Al 14.792284408852655 11.30017051139523 11.574431816062878
Al 12.523170806229336 12.44610984902218 7.752396345160247
Al 9.89503860271226 11.957706690477949 11.7566833417077
Al 11.91996369728774 9.857295609522053 11.7566833417077
Al 10.90750115 10.90750115 9.286594397331852
Al 13.726073038427364 10.450227115966543 9.208142406763924
Al 11.564137381554291 8.256689365036594 9.448433688087455
Al 8.088929261572636 11.364775184033457 9.208142406763924
Al 9.058685952108409 9.812377739986355 13.319669097295792
Al 7.022717891147342 10.514831788604772 11.574431816062878
Al 9.291831493770664 9.368892450977818 7.752396345160247
Al 10.547793548705037 6.770812569532313 11.371555448210703
Al 8.881011275224571 7.029982580261033 9.289134136602074
Al 6.896902372338744 8.906361268024407 9.378796932089433
Al 7.893065451307871 7.643644670404957 12.01538644606191
Al 12.192637622576258 9.621539535666479 7.10950719296467
Al 9.622364677423741 12.193462764333521 7.10950719296467
Al 7.825768918457153 13.991157229695242 8.438286389347649
Al 7.5030543923772965 13.19713099180084 11.070991653281085
Al 8.721171741457223 15.604627410887108 10.574265864097947
Al 9.05286461697384 14.365229531514398 13.001987661431594
Al 7.596662706623231 12.103284005867039 13.625039847405612
Al 11.650455485610289 14.388683105675065 13.947433854281849
Al 10.189451396784891 12.085652596348123 14.478206758992298
Al 13.989233381542844 7.823845070304758 8.438286389347649
Al 14.311947907622704 8.617871308199156 11.070991653281085
Al 13.093830558542773 6.210374889112889 10.574265864097947
Al 12.762137683026157 7.449772768485599 13.001987661431594
Al 14.218339593376768 9.711718294132961 13.625039847405612
Al 10.164546814389707 7.426319194324936 13.947433854281849
Al 11.625550903215107 9.729349703651877 14.478206758992298
