38
Energy = -118.68027805 eV
Al 16.401762495014257 11.366205563766615 9.13077911459166
Al 15.774439337292453 13.982454828791315 9.005456063045186
Al 17.01625209029942 12.993601080426139 11.248076634396675
Al 15.998708491816101 10.337003567120624 11.67321956407152
Al 13.91209549172612 11.947813244945795 8.362072792845684
Al 14.576146231560093 9.439240737609477 9.332384622498456
Al 14.968693352298743 15.050243093033961 11.570242708671032
Al 14.368334624492675 12.439347020058117 11.026240191000435
Al 13.196468439141395 14.460454718895933 9.396669338194378
Al 12.240430521175165 9.671858317168969 8.064546805712158
Al 14.186196312694706 8.186917878040315 11.70163088525118
Al 14.142882214137035 10.383463710734814 13.62971298672459
Al 12.52271677480764 10.486450960437066 10.862468280498454
Al 11.315631158269904 12.247503417417207 8.444078943995924
Al 15.738244007354888 12.551588876658908 13.509329033608719
Al 11.803471013984796 7.914923341389338 10.322287658133305
Al 12.182238422862993 15.639346790287275 11.833448123572145
Al 12.035330194431722 8.699494080686279 13.103624875771136
Al 10.64344157584365 14.791611674841752 9.258104522402114
Al 11.658245516542433 11.49873042590826 13.350242547302267
Al 13.461039394678728 13.869175803221587 13.539552906324996
Al 12.44830840362948 12.792278071593708 15.717940941373548
Al 9.068746795576663 12.597433434860559 9.723276079991221
Al 11.568943070734067 12.98258769065539 11.201957424655275
Al 12.185551115716404 10.030732501496106 15.514879941954323
Al 10.048959845439168 10.07084395268292 9.480291543419314
Al 9.473209527946668 14.84996924227274 11.657587475515749
Al 9.621945049128607 8.624992120315207 11.725131951887647
Al 10.834238393188464 14.100814552840877 13.80864884265029
Al 9.82211508989877 9.553658987861978 14.389632589754935
Al 9.121846758741263 11.531502055978645 12.510486954371022
Al 9.929225801393523 12.18247696083559 15.517559226991636
Al 7.174342397812316 13.51955049951085 11.269702296331484
Al 7.608675528565413 10.313172042431399 10.566434035836267
Al 8.003907835305347 13.621627394746405 13.951836812539831
Al 7.588363252072099 11.046868589650414 15.045909378544001
Al 7.391392826000869 9.057106318332442 13.178227363561533
Al 6.387897890574492 11.547955443757207 12.729662843098248
