39
Energy = -121.89322872 eV
Al 7.862472807435222 11.864625288692626 7.228084292752104
Al 10.539871342390535 10.831078651609605 6.9666883120702225
Al 8.021935130183078 9.193897166240738 7.400899758087483
Al 9.929090484913322 13.396284219704171 8.177746397696277
Al 6.769041136228754 10.450370684114285 9.548177599467543
Al 7.687716364937871 7.662587159836503 9.713681524460291
Al 7.378573627705455 13.22695969403541 9.470724917292634
Al 9.413451296998943 11.084325313294645 9.397115226230122
Al 12.131779966844764 11.983354371065797 9.005141148226663
Al 10.23334936139274 8.397079069254666 8.459726022071129
Al 12.858744289117006 9.505896511967093 7.691785712308929
Al 11.84165013777115 14.668853680241826 9.438646986061638
Al 6.439520869296319 9.126770275874195 11.890459911360178
Al 9.136394886208873 9.403312003431147 11.289561426520484
Al 8.179417108337875 7.111243285557291 12.440526024171435
Al 7.771948264239652 11.802987000270045 11.69391650620477
Al 12.479604401799078 7.161315444642309 9.19056420614244
Al 11.054692111139815 14.765758144333079 12.99812663082324
Al 9.9822175555217 13.346125553867196 10.949765181787093
Al 14.587341007895354 10.820290250423334 9.399799493815024
Al 14.564601503405802 8.319547352049845 10.2954346444979
Al 10.410772288485674 7.058951955226793 10.906145945605894
Al 12.84330748803443 12.983650431738575 11.717738248950772
Al 11.798022034929955 9.612023285462955 10.302414207185473
Al 14.407870822995237 13.60873315976746 9.468355647704765
Al 11.0287447380296 11.03053599469579 12.504945275007334
Al 10.411458140694595 8.344547405843006 13.571449961516603
Al 12.938510993357607 15.86324793908511 11.509930531790149
Al 8.173448154013306 10.026393114332862 13.766305489456126
Al 13.62581318010556 14.567139847065379 13.97283698809552
Al 9.28851344383277 12.822831142366338 13.576562743873904
Al 15.566499840163694 12.149211244117959 11.647611754909658
Al 13.72234500007902 10.261867539875064 12.017472943935369
Al 12.733882006449575 7.782727382431435 12.251477620336548
Al 15.2998917281484 14.750037078011056 11.768547618396871
Al 10.220477836777752 10.720708477154137 15.25834793058308
Al 14.339955471813589 11.880716903095115 14.02070113840288
Al 11.816964950889494 12.713041390643747 14.752091501825625
Al 12.583690605494562 9.770347223449308 14.402242350703899
