32
Energy = -99.70251217 eV
Al 13.427024775523552 14.414631102269803 11.201101106845075
Al 13.718012598316388 11.787043459284817 12.171352342554561
Al 9.610196861746699 13.44349913456652 7.869062485097344
Al 13.482278999700727 11.49405534548581 14.98158269319395
Al 13.55267464750885 14.016831277561435 8.570739487582182
Al 13.341491577883591 13.904151684219446 13.874495946434857
Al 14.03716674443856 11.619775649463836 9.475799118176464
Al 11.738914165289335 14.450320070904244 6.7410790388193504
Al 11.53737302536562 12.468070542383243 10.389566013033642
Al 14.131067372176405 6.89217023686888 12.108987357950749
Al 11.248791801357028 12.293583462206568 13.158186667481564
Al 11.947182510397903 11.904120816425044 7.6251081696702085
Al 11.180103467021455 15.090659195677938 9.428793214361825
Al 12.030947933155623 9.6217610889572 8.88382553623568
Al 8.978906982679801 13.679148559726535 10.470147324201102
Al 14.193345588753743 9.334711100424105 10.765670902797499
Al 12.160708641060337 7.431935334798158 10.25152578573312
Al 13.873472457355843 9.344105506516089 13.451286790568219
Al 10.857751140206469 14.96736037033172 12.023965361950514
Al 9.958459783933293 6.364964347061994 11.574192634840752
Al 11.679021298685672 9.910692978544205 11.721623050357552
Al 12.80320430612172 16.48775061919889 13.289167200869818
Al 9.531094815813985 11.102089060006485 8.986948257258506
Al 10.80975032717656 14.746702424933694 14.689573290976705
Al 11.758837304144068 7.58068743629347 13.270151292564282
Al 9.62383597346172 8.76793703818898 10.241495094368403
Al 9.249474994190097 11.241345832899466 11.667888324277918
Al 9.367189400750362 8.854925859278584 12.94795282504429
Al 8.808793855558589 13.5465176259571 13.20589999030637
Al 10.978140930923932 12.285908206455751 15.874692544557687
Al 8.993360186254803 11.133029828931859 14.407803024266428
Al 11.375963975815925 9.804053246947108 14.664875570392192
