39
Energy = -123.14375179 eV
Al 12.162879924017966 9.412310417760354 15.775984804622986
Al 10.117563465578856 9.37122809629816 13.816542625180718
Al 8.573928324396173 9.951580923627017 11.61917941105903
Al 11.980868619751737 11.054698802158988 17.915836910837207
Al 10.332208728918959 11.422057220277235 15.873640930564921
Al 12.621437670072323 8.501289205796676 13.289050985629423
Al 8.80655596504116 11.846953375444654 13.808335876868544
Al 11.190835912678148 9.4008686360905 11.211636074469933
Al 14.54601734183743 10.089186388476373 14.495315546926065
Al 13.795599694130908 8.66235594644695 10.849454941047279
Al 15.301847277420885 7.937781412366648 13.002947294115597
Al 7.238164748676572 11.175308816220795 9.4615443962
Al 13.485829902239793 12.08490087836184 15.829091363119062
Al 12.101414301993787 11.269513594807897 13.486860850475033
Al 10.336687603765798 12.064072195732757 11.533806059476081
Al 9.881104836894549 10.659881576680398 9.111985394989258
Al 7.294098353215976 12.457927423615466 11.776328390982169
Al 11.680500265209462 13.683315611060383 17.1052884898793
Al 10.8046839240559 13.606454565974987 14.397848142723722
Al 12.480922954009074 9.687739877515671 8.82953559488858
Al 11.697313330596533 11.333871650649327 6.802523613014624
Al 13.097511768104567 11.476711094860157 10.942724928329284
Al 15.522677679668096 10.49209280145265 11.996429803048914
Al 14.275353606141191 10.320811375774234 6.819358398437765
Al 9.078648836381426 14.370159483989728 12.433247316190059
Al 8.82897278952739 13.448560788950823 9.688547828134674
Al 14.604283193818844 12.584428653213719 13.38926343059227
Al 11.42347420546846 12.896733952175772 9.168544166913785
Al 13.297566511114557 14.637443698539249 14.734084015500056
Al 12.383240751748327 13.825611184169782 12.179195210188425
Al 13.917595973651828 12.510107723972302 8.27155191085693
Al 15.321938248929053 10.429356647454918 9.311715767450588
Al 11.075591727068963 16.019025894001537 13.204531727295619
Al 10.735868680426439 15.21554032843038 10.427627603423886
Al 15.47426121489241 12.874990278525178 10.722623696365531
Al 13.471616938300885 14.589511596565512 9.77370476789976
Al 14.851583096431348 15.042469092101065 12.294149423872412
Al 13.582423028245634 17.128208583664644 13.69455679628161
Al 12.856929655336417 16.694941256553616 11.185406561906552
