38
Energy = -119.13325795 eV
Al 6.518881439305984 11.999705196316299 10.157055092494167
Al 7.5406005287754985 13.645316379766344 12.784222382200262
Al 8.197787572404465 14.050704441222583 10.15728193558055
Al 8.018692851857693 11.166378904523116 14.084263279679112
Al 6.575966793469435 10.13007356136444 11.98807948475928
Al 8.680620708017432 11.952916925002471 8.39748186078159
Al 10.020104206215283 12.924674760165386 14.145542373945231
Al 10.174328237256592 14.325575785387548 11.901147835324513
Al 8.93131230229394 11.746657885865032 11.453273715635909
Al 10.826285431689863 12.915383085353726 9.694278958344928
Al 10.041161236273872 10.475927807983068 15.734243305617111
Al 7.2092523847688685 8.61923497712674 14.091961363757507
Al 8.041716984569076 9.655205453057377 9.509745233017213
Al 10.826731081578913 12.177776305411234 6.917380406113576
Al 12.482505168950347 14.872361081662493 10.787005858451844
Al 8.816321933997031 8.585563840524532 11.829944739708672
Al 12.461589357743161 12.783862004683417 12.764326894996058
Al 10.802398284357313 10.551507201172068 13.067143701884488
Al 12.8521882874334 13.628343177354866 8.036720461001162
Al 10.594430630063213 10.149792521063075 10.28698278112576
Al 14.986312537534703 14.79500075203947 9.472584873266152
Al 14.787531392387294 14.200850829464347 12.246716589532518
Al 13.730489511644786 12.532921579063416 10.368052636548338
Al 12.246542046033897 11.930726995601294 15.390011725999804
Al 12.681230469827717 10.784800884488668 8.496263936932076
Al 14.554480688026587 12.778754573560489 14.587893092705276
Al 9.920531174439008 8.230848563161878 14.257935732201895
Al 10.214258727030234 9.566050492526747 7.678307763175848
Al 12.856619795618602 10.377520733735954 11.429958240493185
Al 15.185615932091642 12.158848215934093 8.083708498787756
Al 10.009536773736269 7.615634895821201 9.55904846980657
Al 11.573852112841822 8.046402658911283 12.176572498980772
Al 16.50571615718507 12.690757151200485 10.420305225922146
Al 13.534584436018815 9.99295627373938 14.011515004089583
Al 12.776032514778503 8.20041706806044 9.650913929104833
Al 15.253853341640427 11.379558143903896 12.385995355663539
Al 15.056921172578406 10.031949208546528 9.894938921308594
Al 14.42553272948099 8.27132571114979 12.017294216698923
