34
Energy = -106.5142139 eV
Al 15.22982782263062 14.48384455451475 12.168117236670742
Al 14.587519338441366 12.304297620068144 13.42820746343938
Al 15.187641366304451 11.966900642904024 10.831267334958833
Al 14.259100784263413 9.782349045620332 12.964294286680678
Al 14.149420245253324 9.546554259020956 10.299980046755792
Al 12.33897162357745 13.814618229979 13.341759104618857
Al 13.497648862866665 7.391349996271205 12.20800635548409
Al 13.227911779381634 7.159372029688382 9.583969804858356
Al 12.464431502146532 11.176734325472724 14.499079404982128
Al 13.176132209049003 14.010262952871857 10.665343251400502
Al 11.670940399324804 8.717507357177235 13.683117816404543
Al 12.216955258296984 11.31971925656494 11.785132752337846
Al 13.058466382805552 11.762427484491633 9.1129326529839
Al 11.428093204781518 8.70403295633151 10.915457601978185
Al 10.945687618357017 12.977594390551952 15.680865247721513
Al 12.240459309245056 9.373290639586592 8.227232848914934
Al 9.976522139562837 10.176711375549202 15.03935122263809
Al 8.426848492496669 12.240979419178348 15.772499627171225
Al 10.70208434654978 7.116567020634797 8.747138977370994
Al 8.850113781226275 8.344714711461354 10.258232557131116
Al 9.632482711809693 10.018639386009339 12.298133668777004
Al 9.626794124428333 9.3564423696481 7.719271011879377
Al 10.345949973431825 11.140005663909763 9.700308283296936
Al 11.327975268572729 11.585128892087166 7.056494808431198
Al 11.426934745154867 13.88362531636386 8.620915673806575
Al 10.542762234986144 13.513724604731534 11.12813607711163
Al 9.825540313566076 12.510018764373832 13.386015578334645
Al 7.014261533022702 9.695322405706527 11.552685571574354
Al 7.369781028589839 11.19475426991343 13.678516636086151
Al 9.831091434950553 13.993482583300551 6.56259775946057
Al 7.6514867598820295 10.762994554685429 9.238458366278621
Al 8.62975951241215 11.68877432138287 7.0046947168390625
Al 8.02763173807275 12.398801970131013 11.365144554713353
Al 8.696213150375078 13.471897625632902 9.06008269472328
