30
Energy = -91.95896101 eV
Al 13.955756564086785 7.72963073505437 9.147163967910787
Al 10.900482212610264 11.318768805367231 9.9461566340687
Al 10.18436683711187 11.165985012634312 7.1274061681418415
Al 10.072861840111836 8.587141093027972 6.2826080827918105
Al 11.13946562573516 14.142340659182432 10.71338404938763
Al 11.891994679579764 10.166417947717104 12.354909414354937
Al 10.794511698579079 12.48662212727583 12.916602233431403
Al 9.688211749129696 6.034470779868064 8.962102374479912
Al 9.725747772513385 5.858551647249609 6.194448373506285
Al 9.627291063045343 8.967375310318044 8.903431114695552
Al 9.286789883577761 14.705218256788038 12.774311835800653
Al 7.692070275793401 9.944366932225606 6.886715665873484
Al 11.798383653643388 7.053170134646718 7.815926810626492
Al 8.022264437510973 11.323438981206827 9.078256510797551
Al 12.170029641521403 9.653199153714038 7.9684346266014145
Al 9.846251838903006 13.455266893569684 8.459364651346853
Al 7.820036587755438 7.388944830419819 7.575339875671149
Al 9.269198906540069 9.993978769339206 11.431052423768179
Al 12.660665336631151 12.436951076720673 8.23444237390981
Al 13.555068166915158 10.128160176742535 10.170011468076888
Al 8.938669265402934 7.19091202981051 11.088194629374428
Al 11.590741776205272 7.887499585678105 10.487535920105357
Al 7.024897343022585 8.795335711980345 9.84397492134394
Al 6.691408334512332 10.932690956665663 11.58650416327054
Al 13.117107836184722 12.457838883146323 11.356425808233688
Al 8.670620764223257 12.9572642244661 10.946597194140688
Al 9.678647579576728 10.283282724104195 14.120326726310951
Al 10.530233466320826 7.975752400241597 13.035664176470695
Al 7.564648360065579 8.575332026509171 13.010802281564894
Al 8.015580136028817 12.328095767168191 13.505909156781804
