35
Energy = -108.0220953 eV
Al 13.33468159339504 15.05249851460059 12.209549200094495
Al 9.318595382430608 14.198443720353293 10.886925618803314
Al 10.373614219836865 11.855683104477484 14.192073784367482
Al 15.089416120173022 14.17627717751645 13.967392245518168
Al 8.498841496156928 13.750382155312327 14.320512793695036
Al 8.298206125934474 10.06140793075116 10.385728344880713
Al 17.08027395588857 12.844513800173305 15.155235874034357
Al 10.893204175839193 9.90003257276404 9.709140921527716
Al 15.609588733229925 10.090981128590945 10.821994758579931
Al 14.760506681428726 11.478593194927589 15.22574895787869
Al 11.120950042459304 12.09484505560913 11.462670562506013
Al 12.33310164033059 10.168370883670892 14.573704370594834
Al 13.039838208119678 12.50413236696662 13.320239518459928
Al 12.434472138330701 7.769961911327146 13.504407702180554
Al 8.843188691510427 16.050929650562228 12.789966521018789
Al 8.404462973621357 11.822870343336602 12.37139383850702
Al 12.479102750542658 11.90530602771871 8.680820850139577
Al 6.579233652915492 15.61805939914679 14.110003091414553
Al 6.8604792596184 14.08038470166207 11.995732703226732
Al 15.910021368151284 11.861736439820525 12.745649374131391
Al 10.936752684020467 14.33211398017645 13.232819797882156
Al 14.772622299248582 9.377502937588506 13.54649282681023
Al 16.77192854081698 12.529162036103806 10.291730264042064
Al 11.134750343283432 16.350996430457567 11.393363833425875
Al 11.829457501364999 7.697560940251173 10.859850662385327
Al 14.074506308952062 12.81062561840955 10.806782738246898
Al 12.926939564594392 10.19971811842515 11.7430298763006
Al 9.25366261886302 7.690601162796964 10.646391289852483
Al 15.061822656719672 11.49656716740808 8.570358540326279
Al 9.89054494404332 12.366674547508817 9.020262619891893
Al 10.325271463351159 9.624700447799016 12.448836206292539
Al 14.434228688058234 7.805955740449848 11.369613343177063
Al 13.5562194063462 9.257160192219809 9.191899086092645
Al 7.293960461466371 12.46552001923049 9.916971190991283
Al 11.843492579988176 14.238427832818054 9.874181748883814
