35
Energy = -109.86104302 eV
Al 11.45304949191292 7.5236958281395925 13.509750872002993
Al 13.798103643452453 8.681632727166313 12.958412407375405
Al 9.365222935456192 9.053129500433412 14.519065918334753
Al 11.572738761610958 10.47874946412528 13.961307333974155
Al 14.066763070209257 11.332999276502967 13.359254136579663
Al 11.347391751013896 6.55523724237053 10.997217403162688
Al 7.230048082919005 12.385187733546575 13.010446185138532
Al 9.606063624095766 13.495592005937043 12.590751684251067
Al 13.740005416001782 7.798535436365111 10.399126565671732
Al 12.282728130510803 13.272050335373553 14.094741471376214
Al 9.162808776812124 8.084629842669374 12.021011830022447
Al 11.567623584970498 9.33719402777541 11.338112589458195
Al 13.991986031297959 10.597477665635676 10.785186377245372
Al 7.117385104292066 9.669766347009938 13.190642740997019
Al 9.392287443189971 10.797380475341646 12.344282685280401
Al 11.780327844646497 12.042281982918636 11.689665431533362
Al 14.118279940515057 13.330645280774043 11.553554031963756
Al 7.0613824304138175 8.920319182938377 10.56034456353747
Al 9.061073622917913 7.174251564824402 9.547457847878842
Al 11.832008939807514 14.898159004500796 11.964405160557629
Al 5.648818320062791 11.220153580020698 11.137800140136903
Al 9.37456444701993 9.959894077851848 9.773628149381338
Al 8.158102458729864 12.369269134823234 10.504109769128501
Al 11.491801696113768 8.204095570511711 8.78410400934813
Al 11.619391013836617 11.193172915696229 9.199854890875798
Al 13.779615127479099 9.620454697733452 8.305727116784476
Al 10.482457799482784 13.681052293326228 9.968027071343949
Al 13.901728549520145 12.514693539264025 8.90107007116967
Al 12.937419751927527 15.03893852083879 9.531077354177004
Al 8.118636036064798 8.798824808319557 7.658566109397325
Al 6.830379393758778 10.936891859459578 8.661906772359057
Al 10.495538909678263 9.821728663784329 6.938717553728429
Al 12.664091168885818 11.37977854652956 6.623348308950066
Al 9.274454236080278 12.149261370760625 8.019309064052214
Al 11.656744452659364 13.663897484078516 7.57903837017142
