36
Energy = -112.14095724 eV
Al 9.454073259712628 14.627334820876053 10.824614999733653
Al 8.353935285341322 13.457431754383903 8.495060602556267
Al 15.27089008685993 8.11495930175874 11.024789073141315
Al 12.033251016715566 10.09082262347483 16.830643165632736
Al 9.694976405321482 11.299185339944158 17.040727770750564
Al 8.652410122031217 11.908051179109641 10.498735981887632
Al 10.9982076900941 11.453967184516912 12.230916647565286
Al 12.76679376592846 9.54354158016574 11.178218237204144
Al 13.689291699977174 8.03068660820061 13.108156930492417
Al 10.158170451487134 10.015912488586933 14.737391747873124
Al 8.543761251656854 10.246884118355265 12.52084048546944
Al 13.281407651219924 14.860266516883428 10.376490320720636
Al 11.141999763443485 15.409729069412103 8.88979347033701
Al 15.24016057781141 10.333353637991838 12.586450127620068
Al 13.10033633521978 14.395973167674365 15.074375518524715
Al 10.402276869510228 13.868465700136252 6.926351358432421
Al 12.266485455290589 10.262872517306397 8.710200060343247
Al 13.5205148641245 12.138065160806763 16.24631782251729
Al 13.506362357747888 12.321524558472408 11.54352768599257
Al 10.851818573642833 8.551200925649574 12.68826730147687
Al 11.38754512265574 16.536265493041963 11.421163232865187
Al 14.949194683060803 12.448850765114459 13.970961804508816
Al 12.861043088572213 10.572359791080272 14.005296220755422
Al 14.528706377917871 10.883510900448261 7.127874099967534
Al 12.052480440817709 8.12527134767774 15.1288633444364
Al 14.846886520871433 10.423853200080629 9.71287177987372
Al 11.190317526400369 12.74322876453659 9.629843466932217
Al 13.825121392964272 12.896508381938878 8.818836608682492
Al 14.290281014269524 14.757237858053859 12.767344812412826
Al 8.97006177045209 13.186482476921752 12.938013106872376
Al 8.244948715983444 11.867072432875425 15.043876031160492
Al 12.155502651838365 11.988610742524944 6.815274581016163
Al 11.599725765689694 14.101486708281143 12.681102357868772
Al 10.143558403132417 9.64038762197781 10.244655762688383
Al 11.05708028674237 12.577028620646955 14.915322549885092
Al 9.727266737803797 11.078460623401352 8.003674914110489
