33
Energy = -103.19609983 eV
Al 13.239198502278077 9.612756713248016 7.453195888618311
Al 11.837402541832862 8.561648494716698 9.44184943223903
Al 10.457064224905741 9.95767706132006 7.412746386382564
Al 14.072828135423238 10.511584980739535 9.779355645264284
Al 10.416949682616073 7.783981493988038 11.523084329570912
Al 11.15526251956034 6.342850085177542 13.70066175334665
Al 9.0962144328176 9.223765762845613 9.503135439181968
Al 12.21942724797853 11.11817874309262 5.608071855512713
Al 13.22585136483514 12.36792367671937 7.848469033028513
Al 12.507939016307072 9.65126139067024 11.851594799052812
Al 11.115887138510857 9.03685816448806 14.13242670308174
Al 11.400636712206131 11.335755463540583 9.682470971264394
Al 8.753631145610157 7.4543421589262 13.763174862301016
Al 7.723371879434055 8.790523840189728 11.681121710962254
Al 10.615209191858696 12.692181250895 6.9031302373532375
Al 14.745141846932881 11.505284938240905 12.129800083134135
Al 8.819297943377576 11.920038816688665 8.705236568640693
Al 9.946223345085865 10.561609679705711 11.93730313006144
Al 8.487551138610755 10.114964546319609 14.21121632582292
Al 7.508983767341748 11.318384620718533 10.89242353402344
Al 13.219278447601207 10.755759126088819 14.267796136969265
Al 11.271590910080773 14.075385179568537 9.00956206289682
Al 13.806611513747253 13.354256953773397 10.166056384704987
Al 12.077444166711512 12.40011246631613 12.213229648839256
Al 15.343030807700812 12.608006924790411 14.543525632462165
Al 10.623657863048289 11.690270787425396 14.617548408755683
Al 9.661471515368607 13.160426812110254 11.033836702239073
Al 8.306698511675014 12.562373263787475 13.277927921623801
Al 12.698920379559157 13.398470891789298 14.766847266797775
Al 11.87399557591663 15.06402264486216 11.382140739260114
Al 14.303049734150113 14.250687820186126 12.586834584449054
Al 10.344676975958935 14.248161606774412 13.532274701937592
Al 12.527450083842563 15.972441903181931 13.843899383106779
