30
Energy = -92.99476277 eV
Al 9.810768289105207 7.161482891052531 8.02580868206173
Al 11.903861962334448 8.659826889702122 7.3961036103655635
Al 8.258330969396813 9.48933565421659 7.6699538581170055
Al 11.311843466486492 11.167012937879125 7.308627056725725
Al 10.311006370395285 6.891371371120238 10.652587764117667
Al 12.755630727759286 7.828350940541735 9.725303625696915
Al 7.813355250307775 7.8618334009946915 9.839235733018178
Al 12.134929327405574 13.178026414873127 9.027573159153405
Al 7.804912027801252 10.459316212557864 10.508241701458353
Al 10.236034306613941 9.480210301698282 9.5287248956637
Al 9.040396294772625 11.885940370322382 8.608110542924761
Al 11.135603555077495 7.0014252997980835 13.187858788887654
Al 10.508688568489386 13.62268471003661 6.912217785375654
Al 8.963547227709311 8.577967034121862 12.186538853247253
Al 11.54901446939712 9.32852909663896 11.869837928818594
Al 9.60871439628762 14.374007258123553 9.283949234390118
Al 8.105212204963873 12.973340757972908 11.199489234535172
Al 13.579349564132313 7.524906673888298 12.220667654397051
Al 10.423436875262555 9.194179909944566 14.422844988831903
Al 9.065387665915898 11.112039220539451 13.119659575153513
Al 12.799322388001602 10.560289562329817 9.659608295315111
Al 10.64022088701305 11.86394045287707 11.034488906804434
Al 9.779688061907992 13.638766133410448 13.468511711828075
Al 11.87832108292788 11.301126758061558 13.604156118009168
Al 14.130510236212837 10.148916574372588 12.178469120355402
Al 13.39049767615779 12.712888286527752 11.283816543541729
Al 11.385416913239153 14.544118926685675 11.296222692144285
Al 8.85498802504787 15.50058695479483 11.620785257034388
Al 12.463021788033338 13.862599378200711 13.627404952973977
Al 14.528908385083028 12.26589858995384 13.704120692291088
