33
Energy = -102.07366898 eV
Al 9.84314479996597 13.132555729435774 9.8633227202326
Al 9.572660962525008 11.484892925890927 14.77690073135223
Al 13.354054255420358 15.214508319042448 12.596853773253937
Al 10.544983846332036 13.051511949520929 7.302365595506938
Al 12.463531721202205 11.337944031269334 18.151534453864265
Al 9.10824196865579 9.819963356674927 12.722587011651065
Al 10.44397048684411 10.200490826816779 16.901303015463217
Al 9.459500103902931 12.589836303645814 12.372232861996103
Al 8.118647227098169 11.051768232024852 10.537566453689228
Al 14.971383496980929 12.908560136297242 12.354985393286112
Al 12.961982248181497 10.081813924616158 15.840401777981556
Al 15.36381942211433 14.927930843267566 8.319260680430927
Al 10.910210405586502 8.826737222444844 14.52347706432291
Al 12.04777861232278 11.284772487682025 13.480089984561907
Al 11.641357263893257 8.483095050113539 11.951241860266112
Al 13.198409403333315 15.380008156989257 9.992426058795763
Al 12.358896568613543 8.921337284330464 9.446638757547655
Al 12.393059407441623 11.512341686531602 8.836521143583225
Al 10.772107889107307 15.434741754706021 8.782625282667848
Al 10.862866148116968 10.761771666678012 10.92793142275894
Al 9.772559937902528 10.751504380013563 8.405825624440702
Al 10.705720251425289 15.238822484007851 11.500710411894088
Al 12.993001137807726 13.873581286378377 7.790594432279546
Al 15.795133723595116 15.044609735334832 10.92662349819754
Al 14.900282991774121 11.085866466193377 14.231793060031597
Al 11.129946825358202 13.99731772102586 13.872301554275143
Al 13.668314696562158 8.818988958249044 13.619920174875904
Al 13.671690350823933 10.552485293997055 11.34240981313405
Al 14.435170196106863 12.212311537028425 16.660414491400374
Al 13.788342929850328 13.745888373340177 14.686689126415901
Al 11.65199491358285 12.671995437088366 16.053589221137376
Al 12.2854202506769 13.017193651422158 11.35713732564024
Al 14.581928239592232 12.744189694444206 9.75647075816961
