34
Energy = -105.26945645 eV
Al 6.870351882437089 11.542173268413455 10.53478332904535
Al 7.291554421304895 12.515389604524179 13.213921218740174
Al 8.67211169215764 14.021874146093737 11.622908976447556
Al 6.448561289067724 10.01394658287143 12.81815062590572
Al 8.885640561714498 10.769834702577503 8.950921057124601
Al 8.21269269481922 13.449542013885342 9.099207861092118
Al 7.603222301987177 8.888502423660356 10.575066407104435
Al 10.146734633012919 12.5600749459417 13.610967891094536
Al 10.17380212644905 12.80900823771723 7.616658647245411
Al 8.554194764345873 10.71767688480964 14.803023370062553
Al 9.032593218411513 10.723144167873038 11.984081169587675
Al 11.143708243502173 14.68349970282195 12.360338638986255
Al 9.756144556035316 10.031910239064814 6.529391683267339
Al 9.429018607496308 8.170471249466852 8.775720675059958
Al 10.736239615693858 12.304656263681602 10.4871052072699
Al 10.615056422737883 14.893567893685493 9.59728058933156
Al 8.415534968690416 8.354621378950654 13.461646207468009
Al 11.141332937187466 7.613380890375879 6.830180879112105
Al 12.643310458083128 12.037005429192481 12.744914108228217
Al 9.627896423750848 7.134500401953745 11.339458597815366
Al 11.138306898349107 9.423325141578536 11.001544555370735
Al 11.698446340208827 6.905321554992686 9.436278896874942
Al 11.630822747718163 10.027499814374538 8.474628471545454
Al 13.0712962625717 13.859941746375254 10.812458560747409
Al 10.970531969397184 9.869503490817165 13.8111326657868
Al 10.703654047210236 7.181952748989018 14.057286721460876
Al 12.039071880497561 11.558680186517451 6.235255704598345
Al 13.614191310108682 8.162406277584477 7.7296455338262575
Al 13.410634611018592 11.132283215672508 10.350390349718642
Al 12.720815869902482 13.053092450741318 8.392468968841557
Al 13.830338913019474 8.433805128654983 10.314059382622474
Al 12.270759349765221 6.943978680300777 12.005851645045082
Al 13.409404613725677 9.500427686353143 12.711328179877812
Al 14.151378462111197 10.788088349356801 7.775601265848391
