31
Energy = -96.26119679 eV
Al 10.992524649010837 6.2499719488232355 8.75045974889502
Al 10.186408108143981 7.056272317389694 11.697974760910151
Al 8.425872583562898 6.444192921521279 9.776392151658492
Al 12.402403237143316 7.654710484309449 13.113702877727818
Al 12.91738514434656 6.862409895907289 10.549351075471897
Al 10.457159052653951 7.793153050732623 6.554537183012884
Al 8.134647598213688 9.221156611147489 6.967202534336415
Al 9.930538324061079 8.66146517465427 9.09167863336528
Al 8.563971464574077 9.185603483909675 11.331338012150992
Al 12.500764640804658 8.715924836682277 8.061139171116865
Al 12.77605857337947 10.36678489644878 13.370253209285005
Al 6.935606204867461 8.602258213182276 9.332246486999345
Al 11.756741083313907 9.22079866257884 10.970396861561921
Al 10.243537104906528 9.360820247756875 13.37507234309811
Al 14.33393611963196 9.163955118609966 9.967978320621707
Al 10.734923323101398 11.907280125773003 14.391634510334448
Al 10.869828182299687 11.557120778876943 11.626336736294544
Al 5.9538618836593855 10.72675438875047 8.011438599480034
Al 8.452552815991803 11.488483219723069 12.865842191499619
Al 8.691836865544456 10.928961249804347 9.177737446408038
Al 13.735196342866663 11.498276229638476 11.092469232880564
Al 6.58775442571317 11.086671419146013 10.852937097837598
Al 12.004383696779282 11.147850416870192 9.130048161981268
Al 10.534761417166466 10.509337026048783 7.015412317010782
Al 12.937119494917848 13.18952635053181 13.022688174222685
Al 8.184621747307563 11.952637479814197 6.6356608402443005
Al 10.393594460423706 14.046337671171237 12.698552590711888
Al 8.861724157100772 13.208062106923942 10.714236237462877
Al 6.9973094745360624 13.07545842684294 8.84773861079573
Al 11.914939214886415 13.666871652336189 10.315439645525387
Al 10.164551342557862 13.022783789801496 8.259846392237435
