30
Energy = -93.01155409 eV
Al 13.754827456252746 9.814726749213753 13.024669535536068
Al 15.39633119105207 11.78082678910983 12.366093615464552
Al 13.329217240274138 12.2198072202678 14.136769770454926
Al 15.126522159901562 13.169623242649417 9.920246708121034
Al 13.049461759865439 14.69077596301589 15.129071569180889
Al 12.501545133659658 8.681360567371902 10.881913843919369
Al 11.420342721900257 12.788784949768418 16.07269146303092
Al 11.771780570823607 10.218260642550872 15.065574839254138
Al 11.697847124121521 8.140652137348464 13.436765037471096
Al 9.397054986855172 12.046838256900037 14.350118890388565
Al 13.019158401481345 13.015873233139349 11.576284015773568
Al 12.724317138730925 9.618988094221478 8.229692636553933
Al 9.271888052635346 9.463802203492632 14.116552989384036
Al 11.335914058966335 10.946140692223809 12.460219046840573
Al 14.958067402257795 14.247712741708476 13.196808829631872
Al 11.107676269880654 13.768630790985842 13.400342195142949
Al 9.649987263701966 8.716665636641507 11.571742179571315
Al 12.6053340744117 15.88473536867709 12.82059256772199
Al 8.720052058325022 11.212852857756339 11.725237167125352
Al 11.106465678923989 6.403871849017753 11.420750964541192
Al 8.541668510323921 13.86364202863576 12.449532480314751
Al 12.363538148158169 17.289667381948878 10.481523715171738
Al 14.131754746487077 10.667085051802887 10.313393113481254
Al 14.513505591346812 15.576355440738846 10.88543752639341
Al 10.634987434032096 10.533300311380033 9.79570505294479
Al 10.472193328696367 13.000528215847877 10.631409755746388
Al 10.340035331197319 15.549416035397527 11.388629607885456
Al 10.613039468423075 7.939484596566394 9.114127745493292
Al 12.50539982643423 12.27943201050293 8.823008893639797
Al 12.246557711051619 14.77662978128946 9.52156508399153
