32
Energy = -99.26580456 eV
Al 9.408081501877867 9.526646658405825 14.01845074206606
Al 7.119926470821208 12.07979737361596 10.408014974879121
Al 6.549094683774122 12.937441869624424 12.917444047506052
Al 7.526689775589197 10.419761650363055 12.39423469326439
Al 10.193712260527654 11.064489808971178 16.024451352738666
Al 9.075927386186418 12.33588727758796 13.663029763110169
Al 12.073530901375822 9.288138115260692 15.022262363098902
Al 9.712524384988766 12.202407200082726 9.411249261406866
Al 10.980375538251867 13.259502461674803 11.814543084179668
Al 10.271251415565958 15.00057189608965 9.772861175841728
Al 8.153930144297298 9.83043988066784 9.66947848721003
Al 11.081168028818292 7.603995931286713 13.135107629541803
Al 8.733078062796656 8.099383029991214 11.783248325268097
Al 10.22780964353646 10.528099408804547 11.484262721396815
Al 8.51460988457185 14.072733133192578 11.434357682115433
Al 9.055753058696506 7.3594156277923455 9.151530473717512
Al 12.849081519769523 14.683289741542005 10.523713494232627
Al 12.54701597751968 11.848015788743893 10.026614704963876
Al 11.28674450601793 7.880558963926619 10.513764595674886
Al 11.615997434417968 11.604422030296037 13.735247190402074
Al 13.484464852141185 13.214300661831608 12.664418305259233
Al 14.254745929611824 10.846160958282656 13.85837611946714
Al 15.109530302812773 13.234087317068362 10.520706889343035
Al 11.389381054349808 13.546125783795006 7.826928646649523
Al 16.039460773921913 12.53960264007874 12.927442279170766
Al 10.626020248696372 9.717744452221412 8.609907789227325
Al 13.96206391678339 13.609100502738837 8.123279906469515
Al 13.277495630047802 9.229772850967281 9.410101541251812
Al 12.71083878540614 9.554465893455438 12.091737743695903
Al 14.959022572348758 10.633480458071856 11.20086148533139
Al 12.409658687098569 11.11730578277801 7.293043455644823
Al 14.79643265192696 11.12827283533759 8.564747060422599
