31
Energy = -96.56335405 eV
Al 11.297671021230476 7.063457950708299 11.912494613823966
Al 11.19239321703913 9.562609580657181 14.918820580321869
Al 8.658821874218662 10.296843602467696 6.2255949387962435
Al 8.432968770509822 12.08181855311417 8.44463653882671
Al 12.842575117827852 14.192524589266874 10.392199582438026
Al 10.698075223515735 14.701867318919279 13.739530114811854
Al 10.942783613464814 9.005513669760216 7.095365719145293
Al 12.900282688078356 10.662891218600235 6.064129820805699
Al 10.542138538133532 15.419682431314948 11.132559158394645
Al 8.808039789953087 10.473383533475557 13.664130461427865
Al 13.41201833759629 8.843210654325377 11.081132276372715
Al 8.851933444332797 8.448461646054119 11.256065554032853
Al 13.28500904860519 10.867280231238091 13.499872586640599
Al 10.671120096001097 12.051946509071769 6.8437411051996015
Al 10.600474969751891 13.762497220057512 8.884356638136166
Al 13.058092380045018 13.473640514103963 13.020103444110747
Al 8.66216112445988 9.365663645645967 8.787933068452833
Al 13.2523399125451 9.763394834445466 8.612189261000385
Al 8.542203719034905 13.076543513218777 13.186798635143496
Al 11.119924342277862 8.045394836742114 9.509229534058674
Al 10.947673983138397 12.16952860121654 14.495548789054448
Al 12.984460154699846 12.475657754569314 8.273384299324512
Al 8.436566814105898 13.811267960039753 10.557557629095374
Al 8.646723168469197 11.156315106039816 11.043509828940431
Al 13.130960172500634 11.545267402219515 10.876391351818718
Al 10.798542806258977 12.686642242005615 11.656006087377946
Al 10.867865755931406 10.899052273941312 9.37577887991355
Al 11.058472926782628 9.899800628603254 12.08294320604789
Al 13.212318368680604 8.250412874075508 13.60625686228051
Al 9.339942654064256 7.908505614705024 13.75383166441154
Al 11.436828966746505 6.67030648939629 14.639290769794231
