33
Energy = -101.40171564 eV
Al 9.030020344574742 11.924950247933955 10.517439431475802
Al 14.8599626743904 12.783000861481838 9.952664422359808
Al 10.994667306297492 9.71722079564425 9.276742559691746
Al 12.767987155963116 8.120314078692147 10.516443125833694
Al 11.277508899981761 13.312638279558021 10.475417569711
Al 10.84892796785197 8.97225155160388 12.138555962103446
Al 13.41526285892344 13.410425372773377 12.203134158730245
Al 14.473875235965528 14.307428456574266 7.767397898241036
Al 8.390253588877865 7.952805456880313 12.591499969203012
Al 10.133056323278408 12.552619246154462 8.128960062223515
Al 9.382956184482861 12.221558366022105 14.913893661068526
Al 13.705519391923211 11.755688726800651 14.269920284403762
Al 13.340542191912675 15.146625008857718 10.179754181267864
Al 13.661214981369142 9.142709882045164 12.848792846675257
Al 11.846474859971691 12.006791165399434 16.100398067618634
Al 11.761441750011556 14.606546266441537 8.070154838660937
Al 7.235592467808933 13.013049271344961 13.509942896153046
Al 8.732969680840045 10.28215471837237 7.924809610686285
Al 11.617513151554391 15.479265835824819 12.097122376027906
Al 7.978630184376953 10.67518838558666 12.667999940944773
Al 11.112283208784438 11.58048377783477 12.872469491489207
Al 11.314546061357612 10.469654104994186 6.658117780163367
Al 9.474813532788012 13.839038301506196 12.529355387817393
Al 15.252402126962995 11.404161184385075 12.19223610814916
Al 9.459326634263691 9.429428041774143 14.485847581939614
Al 13.607285341743344 9.588008366150355 8.369322530594728
Al 8.520675874205772 9.290933565691692 10.413472401555564
Al 12.86149840048305 10.943567925655115 10.837790542011707
Al 11.736419732424867 13.858222902661069 14.266548014301948
Al 10.133195341500596 10.191121208706265 16.937959118319345
Al 12.013993925100923 9.60997885736078 14.799708775677367
Al 15.26783107736063 9.268802549034845 10.594640949153781
Al 12.815722034900357 12.15392984950099 8.27807430562419
