32
Energy = -99.69903821 eV
Al 10.772524796205458 14.714277134839248 9.618843233940762
Al 8.76197750475757 14.719731493526721 11.72801826560467
Al 8.35039191752691 13.563735808016425 9.357020397618903
Al 10.70646286090379 12.928790519444053 7.5909007135017035
Al 8.195393074184084 12.223217820524841 7.159292013808089
Al 12.238868823000988 14.29784581553048 11.673259148623492
Al 12.225040901458298 12.339002919449463 9.759040725394717
Al 10.230411663784697 8.702971416258794 7.184011865411983
Al 10.116123636662902 12.427477387880975 11.380825805590995
Al 7.303352352187661 12.446468065658701 11.732657424020516
Al 12.17761533250872 10.644592092557685 7.583010902349633
Al 13.132478558301056 13.77713098358086 14.071360041367132
Al 7.108878745879479 11.050029438525153 9.460146849872382
Al 7.685107994762144 9.67845883197151 7.1752582205918625
Al 13.754893188172552 11.90703198601641 12.03655092186758
Al 10.376429970898911 13.936233845854403 13.795278950146443
Al 9.848985281399806 10.796029320445786 9.052352072479515
Al 8.336163426423742 8.445770336436068 9.411477813838857
Al 8.729422834980802 10.11890221470495 11.495789504350162
Al 8.910559166843038 11.659234274288272 13.74819141571936
Al 11.68937782556645 11.55361569791577 13.851956032458887
Al 13.886151008186609 10.230369687505673 9.798242284825252
Al 10.162571794518648 6.555075515347795 8.877297514777135
Al 15.447757461764889 9.798815146748334 12.222493603199318
Al 11.8937963551751 8.531900171042766 9.334308390941453
Al 11.644126345553364 10.137984321530197 11.471657118093978
Al 10.055650493857126 7.84212872019921 11.425898900379641
Al 10.281048013109636 9.247417440776303 13.743335777085349
Al 13.210283681884842 9.356025696361197 13.795581942117883
Al 11.978332790903693 6.167618471061759 10.706918279762858
Al 13.739971989089124 8.024517377841429 11.337280462151895
Al 11.905179395919088 7.032929234530404 13.277072594478927
