34
Energy = -105.00470426 eV
Al 7.999491035953313 13.471433903008995 11.969173184734787
Al 9.962061837523775 12.097344811055018 13.306258681934352
Al 7.874610908495457 10.781217113579261 12.563043649607597
Al 10.592880253702658 14.143126680912827 11.4206883809248
Al 6.613829017964829 11.802508860827807 10.24530184793224
Al 12.063013781609897 13.4417316741377 13.858457000435884
Al 7.792776198036795 12.686663435943016 8.043923446408284
Al 9.421314181651946 11.817933902043729 10.37973408060846
Al 10.156474652619158 9.428468990445973 13.499428612554404
Al 12.38937766399809 10.674096757293345 14.187890946329034
Al 7.882396243077265 8.173156551951795 13.224572372229584
Al 6.644592015198795 9.116121538372836 10.828530668945488
Al 9.880788646658813 14.118962238805715 8.725623049824714
Al 13.33924325607713 14.183076325673868 11.587240555499516
Al 12.121545890311976 11.458764664288442 11.609279216460084
Al 14.513047270460339 12.432113954057542 13.317614780406606
Al 8.001902615694027 10.103747713308229 8.610943424748688
Al 7.603723468591157 7.543884799124507 8.794911474913365
Al 7.690758795044847 6.431256603601769 11.283403394481192
Al 9.402626176152909 8.948088182123287 10.717556736509522
Al 12.246150609460365 13.201753266039821 9.445792202418124
Al 11.536519955468325 12.706072870279 6.9381217073300485
Al 11.223843681228864 10.585917490356929 9.0051233955027
Al 10.36502550691196 6.937645626591059 12.256772645697316
Al 9.577037374875854 10.981700138858537 6.6872004758739605
Al 12.401568021663097 8.630694187120108 12.286556441006923
Al 14.635728358826393 9.975185518192587 12.429569781124647
Al 9.980111577064104 8.424962201857497 7.722687508786607
Al 9.802418566977064 6.189588311970958 9.610983617413272
Al 14.560478873317518 12.015404875654207 10.430733946398238
Al 11.800932606651502 7.768093058710652 9.818214954885441
Al 12.661563292560468 8.895673231413499 7.469838810295805
Al 13.659918433061385 11.444845156603701 7.896755349981216
Al 13.705464440116664 9.498840148659934 9.950310830868826
