36
Energy = -112.92701011 eV
Al 14.259723797227853 14.071114625700261 10.317444044388756
Al 15.328365636495793 11.562082798947324 9.733658422035207
Al 14.207448884178561 12.372817823812758 12.403976352140546
Al 15.293251257133756 9.89656169660662 11.892402232826184
Al 13.934232181950861 13.738362253407038 7.665607071279581
Al 12.23923278989464 14.302952361319319 11.982077298510774
Al 12.42440184307829 12.029407681728893 10.126013642521254
Al 13.74473585831532 11.02868215533436 7.635996502552816
Al 13.429465889318735 9.548251673717651 9.881886316667876
Al 13.510440573497245 7.951956741410945 12.040415305409336
Al 12.334630238964307 10.433211246384527 12.399997891773722
Al 12.138514221972903 12.607337993484755 14.156365620605339
Al 11.39493213707835 12.459545640320025 7.57312402333876
Al 11.611772717326371 14.565076955910415 9.307029737688556
Al 10.534203980233226 15.006693475187575 13.779015895420509
Al 11.621379693992605 9.534141755019688 7.848520529462974
Al 11.56739355597739 5.9866010585908285 12.03013042499679
Al 12.814445541451668 6.756008948587754 14.338640718846449
Al 11.691397074225 7.557465768997081 9.720819754869298
Al 10.82934387292461 8.28917852873589 13.156962932367417
Al 9.596607590310144 14.796275141321498 11.156886025009877
Al 10.077830619554648 12.386167606952654 12.344735834170503
Al 9.606907120348707 12.966168052395611 15.17967142498933
Al 10.319308636471607 10.520592085102617 14.317851277467541
Al 10.521035245990378 10.009749388452427 10.433569419238971
Al 9.707485524411778 12.586141773662417 9.660343959027246
Al 7.870001889295966 14.446884927717498 13.454924791031324
Al 9.219019868123276 10.852708504525976 7.598251990115606
Al 9.393090025021365 8.243829857812566 8.43978150257285
Al 9.416077955097968 7.303745329232712 11.093616122955304
Al 7.764699839738315 11.662330527664245 13.713795782890845
Al 7.505548483095413 12.987191332713664 11.287643814753066
Al 8.500740657126824 9.590807273176294 12.287978988448389
Al 7.726279215640771 10.779850619112834 9.857662675509172
Al 7.203189092263077 8.226878255438296 9.994987691731213
Al 7.035192356033968 9.315554005277441 7.560539846150024
