31
Energy = -95.99211111 eV
Al 15.475063695529203 11.420925134774258 13.661578458010114
Al 14.20694709023275 12.935236047470903 11.740352295449851
Al 13.160732836927258 14.648866901968905 9.913683373464949
Al 12.934627941932888 12.498664916688135 14.029485831359793
Al 12.006816164121405 14.509387272369596 12.303090159383014
Al 9.397728379089948 14.173633032833248 11.565144109798682
Al 14.904830949975619 10.384514256442255 11.166541941741453
Al 10.855086080081712 16.027818156187685 10.296110956739362
Al 13.277836632678287 9.941951109866343 13.274211329082059
Al 13.217474426677663 12.047560309347999 9.384447605191294
Al 10.347578369469867 13.430470308764253 14.065010002407806
Al 10.80007541976299 10.748114827289033 14.032146220068302
Al 11.401880845803737 11.928783612445457 11.571692605066096
Al 10.753425845816409 13.497652183754099 9.19439653919615
Al 14.04986315926046 9.659875880938866 8.738546273179583
Al 10.917264233176873 10.751007527614064 8.996152515295648
Al 8.532031163103785 11.841609621213232 12.697424341985476
Al 9.11711279702385 12.079297055225652 7.386196732020827
Al 11.223441327308628 8.207280577253663 13.021281140132928
Al 12.350951103512923 9.338462119566454 10.820146804209081
Al 8.501202821815811 9.400624785644375 13.760800346356955
Al 9.601021268591655 9.687836518706776 11.21458734311581
Al 8.44454273925861 12.132602964043688 10.013480586416124
Al 10.591060557942344 7.248564752332424 10.426224979677615
Al 11.875338017144824 8.266078798643347 8.247772622755914
Al 8.825786693856383 7.169788330068681 12.503869665492235
Al 10.039105102605689 9.596659844829594 6.757285891162393
Al 6.846083838770503 10.178405264004132 11.125552900198203
Al 9.245877990783395 7.41046588332819 8.028993602783208
Al 8.1645715981105 9.898843077105267 8.676125996142703
Al 7.748321635514321 7.752699655159409 10.201347557995883
