36
Energy = -111.95990127 eV
Al 10.135236464814241 7.238555642624313 8.57287601595468
Al 8.984046053395112 9.786455298608496 9.170857317494535
Al 10.33921825065419 10.216068228384422 11.383471639164219
Al 12.318193044459138 11.585444872741839 6.748364195617445
Al 7.0906051036135125 10.916491447943484 10.9048701919134
Al 12.904139615447969 11.392247751236205 11.679084092669317
Al 10.679592302261314 7.319634715214779 11.228112708422822
Al 10.92323710387301 13.729997852425925 8.090407433243275
Al 8.809515823195511 12.724154832997549 9.51165085655629
Al 14.866656696333916 10.047692271231435 13.118350238328825
Al 9.894023862867332 10.331209809639546 15.535227778005778
Al 10.765466950678814 14.461801464760336 13.48939010505303
Al 12.74682178699059 8.577340494575624 12.217776969642284
Al 8.126987539565086 8.939921279296833 6.796142237454251
Al 10.960411787997693 13.40400501931366 11.00389564052279
Al 11.326784128410472 11.339458367423711 9.209134715662907
Al 13.198578349836994 13.428177833061538 9.514894664717065
Al 9.579472796693965 11.56084837666115 6.94822253518734
Al 12.463863104297204 10.05981077087628 14.500432129599512
Al 7.6468594958867 7.312326372086419 9.352311226073315
Al 10.772754256659368 11.812010191731428 13.419548492734151
Al 14.178210826352814 11.034184504211925 8.535940685811743
Al 10.303954646373406 8.597737177859294 13.533562489186314
Al 10.946810152476953 9.254632761322622 7.124013071538789
Al 14.720943769661641 9.397608804494755 10.546827303862157
Al 15.369907007449974 12.668906492198428 13.202149592190006
Al 8.683871132412998 12.782298873630694 14.94173436514254
Al 15.34058077106902 12.265423516884162 10.589145933513676
Al 13.325806808062266 14.130311110915644 12.028928797105394
Al 13.048984677235575 12.84964303370143 14.53148127751791
Al 8.588827470398503 13.060725234257928 12.226303866114106
Al 8.239526223430333 8.448616461661071 11.65174555288238
Al 8.160615218510147 10.51403405343497 13.403570063689799
Al 6.115099875980419 9.339004369698065 8.768318347540927
Al 12.253229293049014 8.862101379130133 9.556657868543185
Al 7.098384860745319 11.545934185336446 7.857608367701113
