33
Energy = -103.3275152 eV
Al 11.704657028116921 16.232361717507285 9.83213136975919
Al 9.987739587444615 14.560827200321453 11.051856440823277
Al 12.692443179405426 14.435175333471816 11.732496030725457
Al 10.67751202619841 14.023009043505903 8.414795066084041
Al 8.100683122654313 13.035581541982237 12.366599117919302
Al 10.693368009304107 12.97864239373125 13.113256645489798
Al 13.33353413179776 14.249274034857512 9.053500464453137
Al 8.75980444578392 12.479123978493726 9.801732226813673
Al 12.674740709496787 11.97378298193148 7.927949347500156
Al 11.505013646065805 12.271122425909098 10.450594271989385
Al 13.31416718529484 12.377173759681442 13.301661170070405
Al 8.640187872315153 11.466371939710859 14.51292334925119
Al 9.824983345515683 11.693689538138361 7.447869056610954
Al 6.858001426914572 10.934378225306547 11.175354590300833
Al 9.465526930309457 10.711204764522712 11.92852692999189
Al 11.261760296531163 10.867717114313237 14.70887610375589
Al 14.27610955910904 12.309816629922228 10.51664217964027
Al 13.789733178732611 10.048946720825334 14.537283668857977
Al 7.2555384373458445 9.426514682200343 13.366805431284742
Al 12.034135621619605 10.093591356209998 12.153369438460246
Al 7.7797521354924735 10.13400460405124 8.809295021511517
Al 14.741516790551778 10.1986244409217 12.035472844406026
Al 10.45689831048019 9.842712989077786 9.50014080718176
Al 9.282270520177372 9.143571423705314 6.858900050979094
Al 11.917018966460677 9.58955827919335 7.049644795852574
Al 13.275732738366539 9.943579164524266 9.612783459584616
Al 9.759412608988653 8.55186380943996 13.624284209284943
Al 12.33033674769708 7.893801948457834 13.781653231257637
Al 8.241865897614378 8.326024713243648 11.127239134771521
Al 10.828059694161599 7.554232004252175 11.336381981344712
Al 9.319383073493011 7.4000844197883735 8.902777335484105
Al 13.486166394207933 7.896049586015492 11.330133780864925
Al 12.011945552596227 7.637586405029977 8.917069617939314
