30
Energy = -93.11986368 eV
Al 8.081753093401293 10.795825482935697 9.105261250334268
Al 6.7073988648913145 11.48216414007107 11.257433374741371
Al 6.971721548796076 13.314333924926496 9.182893249327643
Al 7.834247248110097 9.079992842210775 11.276130675669808
Al 9.4332032481271 10.151762184078372 6.894670349179548
Al 8.299585664018373 13.869057076179246 11.485212300752101
Al 9.533001605183047 11.328912079657902 11.472136819175596
Al 7.839492925820762 11.114641497152391 13.674071577317
Al 8.405358815646172 12.631623461296462 7.032233168419471
Al 9.451603927566909 13.352364347021663 13.768515852999112
Al 9.321075789188471 8.859243626452866 13.481273654038223
Al 9.290549421648144 6.795166518563871 11.202156800990739
Al 11.087334894329059 11.313300567501933 13.694728974845603
Al 9.760287883212715 13.206530735519152 9.326177732366952
Al 11.026827114829429 6.8484958763162735 13.278689735985237
Al 10.798113219634796 6.144057941533089 8.800009287252662
Al 11.175705638990374 13.543665940647074 11.729538981941499
Al 12.385420928324098 6.596502814553619 10.978785021266201
Al 10.980767436650227 8.941045835179233 11.300099674982604
Al 12.499236266253526 13.076032343312036 9.303411184433271
Al 9.401990134349267 8.46011497798239 9.048204875854632
Al 10.978496598722655 10.78865411086982 9.10685700474874
Al 12.644678181161488 9.098633643849759 13.49595335814106
Al 11.178862616910964 12.68660003557656 6.971812434887149
Al 12.450911261776607 11.180037319517599 11.409380008690631
Al 12.345933331487158 8.423925621697835 8.926400672239327
Al 13.895814350804663 8.911554613720536 11.141367108050202
Al 13.781764403096874 10.756059022319777 9.03080345752286
Al 12.436397849898498 10.236401522351002 6.7511125176557325
Al 10.889017339700061 7.899851499536613 6.761230498720547
