36
Energy = -111.88651495 eV
Al 7.520029504905752 11.281385814928223 10.57222917337894
Al 12.840271522547482 8.206924862851187 8.600248564024563
Al 12.703467409567345 11.100380216327183 12.036219554820475
Al 6.16114533853772 9.023987297292788 10.91753412113678
Al 11.649105605476892 15.847735524464225 13.751507226268577
Al 9.919178899024699 11.305533926649147 12.008926582932817
Al 13.703297065340289 9.451103225704196 13.95681208117612
Al 10.051658879466919 13.62172884941313 13.524886641565537
Al 15.327155069019765 10.171609632914294 11.891799675633171
Al 8.81209107995821 8.749521894620287 11.97974383321562
Al 13.179083357738863 14.91868506908936 10.004781176884563
Al 15.447327548877231 14.92172501519688 11.574995308311852
Al 11.413394470537073 11.295624308875983 14.430484102053693
Al 10.983402555514862 9.340254032058251 10.29166516428219
Al 15.774697436421787 14.312322196951998 8.97409471705928
Al 8.357173956244308 8.89241012813098 9.375474565351276
Al 13.66881430646559 12.889883444380736 8.17353655700627
Al 10.310561841357083 8.968570006300377 7.6594751074689835
Al 7.56404828883683 12.851760583104516 12.841269772275163
Al 9.54271004154608 11.381587916109991 8.868855195766075
Al 11.666013286349939 12.65332493321303 10.104647118407607
Al 14.012758214368807 12.06247450571 14.674986113494045
Al 6.919798933499545 10.162120802976544 13.270114671248715
Al 11.99080302090405 10.921071239029617 7.933447138388277
Al 11.22849127692213 8.860459024247056 12.979604057059117
Al 16.25508528876768 10.470367307648042 14.452317042777471
Al 16.035935678457207 12.707492666685445 12.954102128307872
Al 9.201627653307295 9.932888243282463 14.437343552590063
Al 13.321021087925091 8.441285203961439 11.352316692486818
Al 10.974763224355732 15.057270535515414 11.336963868438165
Al 8.993375214870396 13.448937404034352 10.532267710919145
Al 12.152712293261535 13.763163460907641 15.25145695754956
Al 5.21681252292748 11.717177925051557 11.922001423262722
Al 14.215527514321227 10.303324326966687 9.370827632544549
Al 13.171123467369087 13.861363526393214 12.70381684540335
Al 14.588295074443423 12.526246965958233 10.676866897813984
