30
Energy = -92.93920057 eV
Al 13.475253116232434 8.496736902758553 9.121123293368598
Al 11.025799914810328 7.4884287103767 9.845100863522271
Al 13.93073820585049 10.54963018830429 7.431185304493379
Al 14.390797639134036 8.282069615813217 11.581954731259355
Al 11.34691637969282 9.78781731920097 8.085330586625274
Al 14.429667914138324 10.819445349651708 10.427033130292697
Al 9.60079856097796 8.530783572786005 11.9019891865822
Al 11.749313658355797 11.911438629385588 6.564567686973438
Al 12.04562750426285 7.935294837894401 12.771201299028998
Al 9.129868316587107 9.45411359118403 9.394903784368397
Al 12.806630047724225 12.445808795410457 9.025581151121042
Al 11.875643135942864 9.934952749047834 10.771522760026821
Al 13.687882747550475 10.366129095488663 13.132229949957521
Al 9.190412617963922 11.364398648051155 7.33709668018683
Al 10.307215795805439 11.960924804611013 9.854550682395294
Al 7.0649436056135775 9.339829295499165 11.245949359554599
Al 12.792080788868953 12.568423568016826 11.714046734293616
Al 10.522359023827864 13.885473693270521 7.959689154457995
Al 10.93765506008842 10.673034290236798 13.03944242163862
Al 7.413899108008204 11.5303834733684 9.53156913378211
Al 12.102988024549033 10.297597966318955 15.396744838825617
Al 7.841762227003938 13.662037454784873 8.014287079282493
Al 10.27283673818227 8.480406481824193 14.65296428768267
Al 11.587552060031395 14.537737990147006 10.34902557955113
Al 8.635309879097752 11.482947405256073 11.925276651140154
Al 12.386643954807354 12.739806946848114 14.367971469462061
Al 8.821170852704045 14.103873382844474 10.482471425203341
Al 8.05291117623365 9.676780150186426 13.839565981892184
Al 10.376326362137585 13.395554521504353 12.649996851809641
Al 9.691845808684487 11.79099079479715 15.07847816608911
