36
Energy = -112.5627127 eV
Al 8.415990531131342 13.048689854477308 9.049155209176272
Al 13.596389867758855 12.020885739667479 8.4395936627415
Al 10.997117825281773 13.62055763111742 15.115364598176685
Al 9.546016621674786 14.917439878894058 13.214021334714285
Al 10.562255623355462 12.338486630951838 12.710039091316885
Al 14.587402697497032 13.929003887103033 12.195762065478107
Al 10.698210467725904 8.46195951542604 14.532996953157875
Al 15.384028736955345 12.400421043435726 10.237189533677784
Al 6.868423568475045 10.894082934282713 11.628851538439902
Al 9.545462245638893 10.375116046709937 7.774101971483848
Al 12.441118488461237 6.96289337049821 12.739656220196396
Al 11.847436113067472 10.01176419825913 9.261293057320753
Al 12.655921867047951 9.835071612917886 13.463975447674843
Al 13.077791035575618 12.454829057045764 14.00459457486587
Al 12.963691721448454 14.246081405000755 9.924635325812943
Al 9.381895327445669 6.826261936389146 13.05443970694595
Al 12.442981728820882 7.381881679223184 9.58473798307472
Al 12.077935678405028 14.595001209964508 12.558428422018302
Al 10.853184888685568 8.782859642662212 11.600982961022314
Al 10.72747618115599 11.02656392246994 15.111721394119686
Al 7.3426170454569455 10.00077094524023 9.17954675725341
Al 9.692847253051742 12.724473339223644 6.490161514464265
Al 10.255937129419124 14.602350762765097 10.524656897002732
Al 9.01386449073601 10.157780146623377 13.165507052966001
Al 12.666275762427095 11.841869034303185 11.16930609939566
Al 10.589236546084278 6.048081991279964 10.895086912177224
Al 9.587161785962948 10.940614771541533 10.576521360904724
Al 8.18283492320991 13.162865281152913 11.74929875779835
Al 9.603258855869125 8.05888325315132 9.149136246678374
Al 11.90914602354726 10.996076254185528 6.67835013022146
Al 11.424326071079893 8.337039287878492 7.21405620815814
Al 11.045209228010817 12.6091301398782 8.895792647941354
Al 14.91070657155686 11.071666858499734 12.541966449538364
Al 7.287561428481426 11.699598146119211 7.080098336792251
Al 13.69127525037833 9.154936858881108 11.113134692573162
Al 8.094110497871661 8.431111811532068 11.342938963471974
