35
Energy = -107.04271375 eV
Al 16.1787496809529 13.127653444621195 8.244695726450438
Al 12.91241788803457 12.615681659436841 11.85540814795845
Al 5.688268129916457 11.232336010668526 13.943608901377896
Al 11.152900782824533 8.348293018168857 10.062132348955174
Al 15.94436266020876 8.580899085925191 10.858943009756828
Al 11.128490726136175 15.521653482621367 15.138468090260401
Al 13.616573966848414 15.354191416015103 14.471709862688446
Al 15.003317262894024 13.155457526482634 13.4709694373426
Al 10.341020320737613 11.0887446669795 13.973625542444099
Al 12.23333833868307 13.064064210251768 14.411726658270549
Al 6.644300262333958 13.683855922582637 13.532268265034551
Al 11.738782185191162 13.958559626033274 9.80662947811948
Al 14.540314742940197 15.41238232515512 12.008127747971855
Al 9.608030915814972 9.953221185598622 11.474690893061139
Al 12.667278094462382 16.54419229623212 10.388338705033343
Al 14.33262032616577 14.817865199440867 9.087165279539263
Al 10.075348186044323 13.173475948240515 16.07581268897233
Al 13.794547105685577 12.197699963583254 9.239848749483084
Al 9.20149044871526 14.209849657989754 13.63673235303399
Al 14.59140086649607 8.541571102910604 13.194533535627935
Al 8.01635224000305 11.97268017459123 15.148336772910318
Al 11.951604865321103 11.498415223099595 16.77443045003535
Al 15.784445142575315 13.285300358328609 10.946561489768113
Al 15.686210166443365 10.626294253560484 14.555739982221992
Al 11.4389346594027 11.186592252524424 9.873019409984094
Al 14.361166446590834 12.352916946148286 15.997502073467796
Al 12.163170457654731 9.842751882650006 12.24016710029841
Al 13.006110865369912 10.294804805064686 14.680918157991929
Al 10.127216907572896 12.763100947917584 11.589540251389177
Al 16.086387180948183 10.816789627944955 9.543462307097611
Al 14.977903986529403 10.903808933953812 11.99105274841572
Al 13.604752115307932 9.422309878909076 9.919199033525194
Al 7.859975693721312 11.532615285114066 12.42832732144379
Al 11.574119386050585 14.993868682452176 12.444586596476919
Al 15.240606736324638 17.143254248701687 10.048988053354087
