33
Energy = -102.48588399 eV
Al 6.595884152213852 9.941399647017375 10.219743140405392
Al 7.762953448195005 7.496688361350798 9.510481275207775
Al 7.452355598359929 9.268786380748884 7.533102030356364
Al 7.371064912063114 8.121568142141468 12.14941612159089
Al 6.058493193684253 11.562499354558442 8.046576262401329
Al 7.5635052233835545 10.946940130930933 12.64404269672782
Al 8.133944470906073 12.834900553900324 6.7697108211523025
Al 6.825699414677069 12.731149804074764 10.474538276753929
Al 9.871723094662856 8.092246114781377 13.179451233899572
Al 9.66401550367443 10.524668482458962 6.427736716467936
Al 9.419467307288821 9.685599986687615 11.036858507087338
Al 9.961104473174787 8.817056483096447 8.508369013351372
Al 10.073879677077413 7.060877332539929 10.59959886332595
Al 8.707047166196089 11.306515522472145 8.949938019414114
Al 10.042740432072776 10.842388720989241 13.577640585738747
Al 8.78759725687443 14.065238369550912 9.183825964204901
Al 12.358421441592592 7.0681611793941075 12.197710758896516
Al 11.896225463137151 8.72627079791431 14.606325700747949
Al 9.407639617202548 12.448241115276025 11.357810217303257
Al 12.267227196215616 8.470787084555425 9.724598522409053
Al 10.72498665192226 12.787504044172227 7.553240000271511
Al 11.373736956683931 11.208917221519378 9.824446457313314
Al 11.342887149626666 13.972174123373343 10.170065450479694
Al 12.174676678348725 9.821818989080917 12.137825681817606
Al 12.224146855391556 10.090275939878342 7.500241933157006
Al 13.287994253862971 12.574465464392862 8.102918122203839
Al 11.868444480211439 12.578834856493764 12.384264603499041
Al 12.543278308458142 11.376019941338718 14.647521771843122
Al 14.4449413057291 9.099997486978628 13.929849400713858
Al 14.51650882573486 8.434467035429202 11.286524361266359
Al 13.90737295944198 13.223458776969114 10.632438057572573
Al 14.020491368040231 10.51226428152557 9.728427986446333
Al 14.378253364669733 11.3458539323132 12.451436885654967
