34
Energy = -105.94794194 eV
Al 15.027942912267255 11.596301634743709 12.781327930091969
Al 14.365718283388734 13.021750938458707 10.617948039741727
Al 14.178884701650416 8.99303036069359 12.794573315654645
Al 13.051653895068855 10.99661255553573 14.42035548873165
Al 13.900125414588267 14.384423430912767 8.292552413849716
Al 13.418794416717054 6.358151794721269 12.842352660186872
Al 13.719287608607305 10.45131400084726 10.591774273715814
Al 13.525151375751753 11.759156139360842 8.312310720040612
Al 13.385229916877414 7.761985519370895 10.459281640854044
Al 11.8745920559343 8.333561062821772 14.099443329966574
Al 13.248102397435103 9.14848660618201 8.221434058992706
Al 12.900753494698648 13.466245416114106 12.910232567198513
Al 12.561008706235787 14.988228821579419 10.586238347321327
Al 11.82053953634079 13.144560909006627 15.422091709753186
Al 11.53345956086056 10.181859564083657 12.180465300866919
Al 11.474976497512928 12.348728051177043 10.497988081938018
Al 11.058539149852237 7.331236113230139 11.723818892427438
Al 11.406159504058849 13.291880479511885 7.803786728248566
Al 10.998720302775352 10.642141750818903 7.361618468952764
Al 11.068946439929633 9.273570300601666 9.680963392820658
Al 10.423736052747977 12.364561102673852 13.179090609491796
Al 8.805394611787696 8.024681590491943 10.545611569211896
Al 9.172797219700085 8.846297347221082 13.164514139409844
Al 10.480189416109924 10.363406304486295 15.05367628838307
Al 11.797398987633768 16.080910756849047 8.202375909780942
Al 10.559693839815969 14.890411627761619 12.248937638474333
Al 8.49785231469064 14.190525968950329 13.802579822150724
Al 8.651763065451702 9.583812353362157 8.295509915201421
Al 9.90357555599077 14.598924563677631 9.621310989330743
Al 9.216231202721715 12.517823314538637 15.748056114435691
Al 9.053431356519837 12.217915977094888 8.852632090635167
Al 8.346449434278108 13.185715480005207 11.373327257662345
Al 8.904021663031065 10.646358762880428 11.049212369826142
Al 7.957063175713402 11.303613466978296 13.550791991395908
