33
Energy = -102.42669109 eV
Al 14.937692123787796 10.776248140055554 12.968708842355795
Al 14.455706181070672 8.35599194728429 11.144104198441852
Al 13.794894424879612 12.309507600644162 11.032134842793575
Al 13.870662715701897 8.614830670288473 13.935901585354765
Al 15.839416982815676 10.564890698645284 10.405363635451383
Al 14.950064705833942 12.251623274697172 8.571370525521417
Al 14.257335023651061 14.697332022459396 9.485498608801809
Al 12.33685933256702 11.12023456958642 14.47186057785268
Al 13.820280994872753 13.213208932744543 13.629294286800535
Al 12.438868401220764 7.031133722523694 12.391705443410277
Al 12.329079777217162 9.916245962748985 11.961581293285326
Al 12.092777984457571 7.913657585224793 9.89393711243886
Al 11.713283485733733 15.520764345374053 9.171721550369087
Al 12.356629622285071 13.035177402926863 8.427326226391319
Al 12.68309522978294 14.641747515759915 11.694251923997342
Al 12.86332057001 10.47375139896839 9.238972572197666
Al 11.24368636454803 8.741507920297694 14.469089862861042
Al 11.059650181206194 12.284398693762224 10.86403084243692
Al 9.982246202542596 10.820243247939452 12.949946389462998
Al 11.06359758962572 13.38818002712226 13.478878723236411
Al 11.161419802260019 9.01106133934712 7.705802299790397
Al 9.929533051952488 7.831739403531943 12.189883565267417
Al 8.571215695290773 13.253555814141054 12.851515543931
Al 9.605623675128198 13.909720251615644 8.724504518851571
Al 10.062369100522076 14.958901193600168 11.231733898705244
Al 7.2543832734346285 11.022592568017181 13.855528522117156
Al 9.983578591526737 9.604554717348465 10.126527700087799
Al 10.239202092928807 11.397527045018576 8.136689576124326
Al 8.574120916840947 8.81668968601951 14.285146963829156
Al 8.407450666695278 11.77599680923809 10.160615218549998
Al 7.554571344576621 14.328901771135534 10.547366172308761
Al 7.79846707877579 9.520344697262209 11.713883234888355
Al 6.237199544025195 12.366021752439138 11.753406469856166
