33
Energy = -102.93957755 eV
Al 12.546997224692868 11.69755356827333 8.590103753493105
Al 11.38496270229708 10.113502856960602 6.805526941565952
Al 10.069386485659711 13.204001675256736 8.470354366511211
Al 13.693554567173113 9.270520110043307 7.6900346099353385
Al 8.812554283525404 10.686404835891423 6.444101807067006
Al 10.01341141277739 14.741831403070622 10.771608894676941
Al 14.441754242961638 10.119892685423721 10.072935013054018
Al 12.396499517453892 14.225821061895495 9.429663328447358
Al 9.48440278301047 8.116946780445808 6.6872763120751495
Al 11.858315065397319 7.256296868482311 7.694985551892918
Al 13.737990044405059 12.502538343507586 11.099835095846693
Al 7.440469112752173 12.001722837138988 8.24307022704557
Al 11.087765842932003 12.114743143511443 11.014108566477368
Al 9.749695840297228 10.597636017770835 8.965048721193398
Al 12.252993345355314 14.656284585838554 12.176694954949536
Al 13.674917634537511 7.878900498591794 11.381766773395393
Al 12.219575473629726 12.415803810002217 13.617268801865489
Al 9.661070840854117 13.258026174964346 13.069298654856468
Al 8.409246743472927 12.59376185691821 10.63429327703672
Al 11.825521054679383 9.183639698657679 9.798019789246627
Al 12.850931338904289 10.198564456557014 12.405064208981536
Al 7.501608528670028 9.0952695849224 8.312141110316853
Al 9.517332522523988 7.621110225809212 9.293541053430317
Al 8.980402014443264 9.513391726831701 11.174741148818052
Al 10.308520076451728 10.533403295009554 13.504190762009697
Al 6.492754909575873 10.644014835927663 10.420914364983316
Al 11.672262771788743 6.401028131970552 10.278971822054974
Al 7.7234756306281565 11.30561833713889 12.911555696216002
Al 11.14205342149302 8.164653110941778 12.41438418851763
Al 6.995631052219529 7.665790439009134 10.550148639895438
Al 8.605521662525454 8.482183432312386 13.610828502140325
Al 6.147245265279967 9.119879524916495 12.641318496806269
Al 9.193677891227633 6.509476277029691 11.721051329825476
