31
Energy = -95.42107325 eV
Al 13.248356294891535 9.201101303537934 12.182282074149118
Al 13.534928073726476 7.6315910141241945 10.028378240924727
Al 10.415103302097119 6.440293737627644 11.88485103860158
Al 10.987311036037598 8.608960836865513 13.327466573078272
Al 13.649794870109623 11.819891175100508 11.761561796130215
Al 11.798896641936551 11.208524585459553 13.950299637427248
Al 13.652978034058021 10.288895399588819 9.403552133176731
Al 11.293629457038334 6.297814988313232 9.269155919343618
Al 10.983847668264177 8.625491387325757 10.43107369318179
Al 12.417745642728304 8.428042095449747 7.694013562960683
Al 8.452444413820313 8.32894136364586 12.407386172470508
Al 10.728209142828383 11.035078640839021 11.437619080575047
Al 11.58780778885453 13.492691196321344 12.15052193627559
Al 9.148283633636174 10.496335978522152 13.968484990690682
Al 8.563042308454232 7.0223234341929786 10.043755341960692
Al 8.972714374035812 12.885534035834775 12.705860564878575
Al 6.96509475079679 10.751906751942709 12.351899588112975
Al 12.662039129808946 11.228725020327092 7.069277492463798
Al 10.547937129513727 10.748897628609276 8.541075257976019
Al 8.500872597196507 10.094740492158344 10.04303382897974
Al 6.344341217085296 8.625824371711472 10.736416371065923
Al 12.405222533947022 12.780039623482377 9.541266969600835
Al 9.702358311164518 7.693407183255188 7.586906819734001
Al 7.240579103556145 12.799527647476657 10.600967247767684
Al 7.002962672100315 8.225367823392745 8.165191415753743
Al 9.855320359136503 13.502323114861662 10.07179011454486
Al 10.713006870269403 9.67047788298182 5.996015568765728
Al 6.1309250052453255 10.91320814281132 8.947955546556653
Al 10.767208737517494 13.202310478830592 7.46957464168527
Al 8.27757070931855 12.491227736209403 8.11289005025147
Al 8.230259391299294 10.21591633692568 6.850502238567639
