33
Energy = -102.67823432 eV
Al 13.230329301534018 7.5617354750324886 7.841117575697832
Al 14.601380746453792 8.90669511178729 9.621619689983616
Al 12.634220850478302 7.235093932829054 10.67013116955466
Al 11.020528003171279 6.4128081878574505 8.720504339108375
Al 13.295872272003951 10.363332782751014 7.292228219333524
Al 13.828878050155415 10.860462570236047 11.213752936181404
Al 10.920805353699828 8.626009191635893 7.04652493526032
Al 11.852705823501452 9.622213122982513 9.494003856521548
Al 9.963828632907145 7.922517952178495 10.77520363495142
Al 11.838811772195184 9.320788792475748 12.260843980260548
Al 12.624774667098373 12.4197776198923 8.975101019056625
Al 12.66647104722956 11.769715912614952 13.521467795523307
Al 8.60106187902875 7.494975799032541 8.302500985925631
Al 10.780985079532751 11.28639661957658 7.007602530170545
Al 13.703694376220337 13.535335000728095 11.441017822180594
Al 11.274062417912834 11.93769534757797 11.232584714177266
Al 9.285971354190373 10.010796653406391 8.937642176191048
Al 11.296275021227679 14.518673119996397 10.216702203771556
Al 8.57696676876634 9.426391370151563 6.229328863407398
Al 7.370109693044663 8.687153666878729 10.452859288380806
Al 11.506095607548444 14.26816108187526 12.86772679958789
Al 9.639999979185674 8.169929812638799 13.485788631607837
Al 10.988292829148119 10.085844364806198 14.756811460645904
Al 9.222826232497743 10.38034677430043 11.87113147483183
Al 9.80463799826147 12.754874325478497 8.99441855134336
Al 6.550635442888077 9.545824771156607 8.042903595067799
Al 8.083756798502083 11.844718003737405 7.250172845458028
Al 9.021480454303449 13.50546914920897 11.421681674498515
Al 9.876490480330286 12.406470516663406 13.692623997563112
Al 7.380358929429929 11.614522760931777 9.924628847753429
Al 7.01178425329647 9.027694989357316 13.043738950420504
Al 8.379548624351768 10.470105976413475 14.745098404600595
Al 7.153635020155719 11.996120521326755 12.635483510467672
