37
Energy = -114.8170203 eV
Al 8.105699551999155 10.821167176513184 10.120731260912619
Al 8.48308533217131 10.459135081293699 12.826345139937581
Al 8.91498404085516 8.799992768309234 8.456634791845357
Al 9.676024978633235 8.737883820431241 11.019740604335912
Al 8.40058291536666 12.066605141620473 15.937480196451787
Al 9.03343724880284 11.43942450256332 7.292126078734947
Al 9.257468844010663 9.604874986154753 15.553912313396882
Al 8.117509729776014 13.021857217288401 13.554124618791844
Al 8.837541548735416 13.245877662039998 9.265328063292174
Al 11.934813033232412 7.216055243523921 11.691132267307125
Al 11.460160834419122 8.02811003110686 9.16497727600414
Al 10.577455514821978 8.730342396344726 13.477768824327384
Al 10.020201690633192 12.39197894202666 11.575263000447782
Al 10.798462894841832 11.749690738823507 16.9530627630511
Al 10.849133634485025 10.860170450065215 9.173659758143678
Al 11.525223787115467 11.113411195786366 6.34082641462612
Al 10.616052306517656 11.634101636687454 14.060154588687052
Al 10.277404947751057 14.04530509704978 15.299774262704515
Al 12.110595067517018 13.878073744314687 13.082984934454666
Al 12.069444747488392 9.895243974948857 15.497274192119313
Al 11.05786597882059 13.404124842276445 7.867573434805944
Al 10.786039059748315 14.880856192197099 10.539900948799934
Al 9.664463225223198 14.998870347268065 12.853483794293266
Al 13.348967385026437 8.619344601836701 13.530150501490718
Al 12.54315302505596 12.724784691025665 10.340946827193857
Al 12.320060351305791 9.964858065696577 11.244402925669503
Al 12.787526136001906 12.870119973509313 15.533383344794474
Al 13.107287945383273 9.631128275444661 7.851026049824447
Al 14.08847042341452 8.169498504124302 10.075733758264349
Al 13.328105681893174 11.417885830638086 13.461474758691434
Al 12.791910974911294 15.14181877351886 8.823103108908496
Al 13.757462806571517 15.001204375030312 11.36252339457799
Al 13.502899865931262 12.461542041366016 7.535295815669324
Al 15.113277728062661 9.839959233264473 11.992916502963485
Al 14.62447547745309 10.88995596014319 9.613586789051515
Al 15.087523927205197 12.612209658613772 11.714829481124612
Al 15.016387571165938 13.623466878476899 9.315575307529906
