35
Energy = -109.17264686 eV
Al 12.293908294529153 8.639992629347187 6.066915747464135
Al 13.195272608520378 10.966886527113587 7.287801939316446
Al 14.046401972324546 8.513753699135288 8.068730449606901
Al 10.450492898930284 10.405950407021749 6.75351048487255
Al 13.966155707906983 13.10215646945956 8.585476602050392
Al 11.090741415445088 12.616617392841343 8.049625298607426
Al 11.52937187452504 7.111088301299709 8.18062409619222
Al 9.191866689015582 8.46485829674603 8.259956310491065
Al 11.650926065229019 9.720374359919665 9.193013894802267
Al 13.198443746988769 7.373220530730303 10.258866301285202
Al 9.06839103720592 11.081182210913553 9.071988792427065
Al 12.370608798301904 12.143167045563944 10.62571867337604
Al 15.13306057311234 12.679075692807244 10.90063237646992
Al 11.986135860785927 14.665821613463875 9.426466266450962
Al 10.468888213022616 7.717948188281769 10.68864212612293
Al 14.311287285856485 10.281551134271309 10.065552349854338
Al 9.836763320475487 13.253024072046939 10.340930749283118
Al 12.370534771915837 9.231146181533594 11.883549888033741
Al 11.37437943735463 15.011644165953848 11.982950465480148
Al 8.02933903872579 9.115155992934437 10.587177845262001
Al 13.958720075113154 11.118381706124088 12.720492278320881
Al 13.784352112317187 13.866987937382117 12.895225051030685
Al 11.458154667136617 12.544378532209036 13.169153797289663
Al 7.619717934974824 11.875308319604473 11.222376702905207
Al 10.110907447165568 10.700176360519201 11.622016768249495
Al 7.436570208451316 9.651666652689796 13.040762980205951
Al 9.925590660933072 8.468069889720537 13.239615229166448
Al 8.956974641749644 13.734711413633173 12.801197783912153
Al 11.844210256591307 10.11804080998558 14.41507028581078
Al 10.720066476954075 14.920288584424595 14.572992965410771
Al 6.832064871594351 12.124886540371627 13.791844451657992
Al 13.464269184812547 12.22412877954934 15.092346785243922
Al 8.489678395811655 13.462367582465884 15.402162058376945
Al 9.319176851719568 11.08765728360278 14.266234079265706
Al 10.984652624870483 12.472003958393515 15.919908661021708
