38
Energy = -118.50515495 eV
Al 15.020720510764601 11.98831672197877 13.13035056708357
Al 13.701046129909447 13.729483401715987 10.854269363662915
Al 15.52580929311256 11.76219249396568 10.377038154850949
Al 14.819497049974435 9.416749748946575 12.342898654124937
Al 12.725005194828483 13.094723146733065 13.692685176654388
Al 13.241190599027824 12.106939785347288 8.741981016028323
Al 11.993056698710758 15.478854794718425 11.757627290079371
Al 12.82019064724317 10.274014952824166 13.936738785117743
Al 11.352718914599182 14.085618287293846 9.295824038049384
Al 13.002503988556121 11.259611013095684 11.404882996247437
Al 14.117719653616856 9.547345192169194 9.458798063390004
Al 10.426189990783774 14.540838859020372 13.894912286004883
Al 13.05543693208027 7.175257502172656 13.464092161572731
Al 10.799133131195964 12.284434316915538 7.381134172744553
Al 14.554848500591566 7.256479141881821 10.804440874848433
Al 9.459253960739296 15.058976498053342 10.9541399606502
Al 12.09516112522097 8.822586755669295 11.479588754899082
Al 10.995301533496503 12.908772865824417 11.724405976165576
Al 10.45032010442988 11.730053108371436 14.204119801817972
Al 11.079660910906448 10.40497558893452 9.463463573356087
Al 9.111472787750355 12.3198523002081 10.032564564694674
Al 12.406874349720768 10.101480640060979 7.044558460277099
Al 10.50991656337077 8.937068153486265 14.17113062765321
Al 8.119509373142208 10.267926834442934 14.057628283812178
Al 8.386826771857141 13.009419703948705 12.810477951533471
Al 9.757094746022219 10.319186855243574 11.824296041745631
Al 8.341545022903848 11.298101054358593 7.472722959415501
Al 8.397476415786993 14.251093758961396 8.204862514119984
Al 12.050754302303679 6.267979995752472 10.736754217662382
Al 6.936145185808949 14.211104644477496 10.888718480081778
Al 9.747736146692107 8.96274037550177 7.446413203987772
Al 10.157924702153196 6.942744131181009 12.457848505503348
Al 6.962196518748177 10.944594172205345 11.71878712129865
Al 12.136042922543727 7.888149466141755 8.550715759286293
Al 6.56913043503102 12.083164471455227 9.277845089590858
Al 7.839351932644807 8.260432015320402 11.928354699049505
Al 8.029261855545814 9.671418298603413 9.603604711914521
Al 9.83655656692576 7.854122701911395 9.940485679135445
