37
Energy = -115.80597313 eV
Al 14.594563449350185 8.735176337510776 9.867036554892847
Al 13.521570345951092 7.232555928623998 11.79309219735816
Al 15.620249244003535 11.129371429210169 10.591528399123689
Al 10.973417076592279 6.725519169458778 11.78133409955685
Al 14.218878922032914 9.70673830544433 12.521432416614331
Al 12.331693148424987 8.55717533900396 8.016329459604997
Al 10.186973134941773 7.526715305582887 9.166923107484227
Al 11.83006948203129 8.748999586067885 13.308784434629317
Al 14.853291312180207 12.370374859273266 13.07494726098774
Al 13.45924802574748 10.92583300757327 8.686217375668113
Al 8.424972482628482 6.431111022987606 11.184745214591931
Al 12.633556084168452 11.202072560797653 14.204662174035409
Al 11.950083555511823 9.27999401538466 10.601032697427815
Al 9.180328670369208 7.9740125693138495 13.542416145914455
Al 6.743749870142851 8.250318394467683 12.251826142733982
Al 14.975790099236635 13.240476445649628 9.084576140885746
Al 10.200921302527737 10.096840185115271 14.937284479710993
Al 9.267234916643488 9.102017105195406 11.121412478072855
Al 12.472737243914631 13.208669396686851 7.514939013712751
Al 10.683048881267801 11.134529788099533 12.23752660346282
Al 10.991943113690983 11.973247962032369 9.495591577652643
Al 13.066641053710262 11.829744758110513 11.172375928351224
Al 8.088374325005722 10.644740747951591 13.143120777155907
Al 9.194613469625335 9.996575138264495 8.53036606341912
Al 11.29407263681633 10.830242957574807 6.969695139705867
Al 10.323372896978437 12.679538499687725 14.483953246905443
Al 12.686814350988648 14.313873986722843 10.08833403790788
Al 10.299098236557288 14.0310680638654 11.224388019201125
Al 8.588181762808302 11.689764846652212 10.640419180734064
Al 6.725748927053122 9.788397002290687 10.079190657524794
Al 8.1901939121481 13.371446075454685 12.733865893349108
Al 12.433454492071458 13.762469611785072 12.965061839715693
Al 9.263043343231967 12.53827557075795 7.389873297268574
Al 6.9565900093920225 11.84637817020686 8.508587544417052
Al 10.44593980645731 14.639755620673084 8.579866388956289
Al 10.1034131470964 15.2223388505041 13.641405204405611
Al 8.034117197941026 14.071631315256795 9.67384873609937
