33
Energy = -101.79015829 eV
Al 14.170384295422407 17.0680827881853 15.235813185058346
Al 14.96091999429009 16.20799068445149 12.915501321029266
Al 14.42457822631427 10.384377337022032 12.019959850183929
Al 12.99591166570953 8.061732628786878 12.13466653809383
Al 11.409155965674618 10.987789831377135 15.183910154509359
Al 10.28363704059418 13.344455124017433 11.544064482714996
Al 11.494544102189675 14.252596661636588 18.149020913995297
Al 9.936335761382159 14.919892445249108 13.711418323128875
Al 11.24378218261529 11.585995665235645 17.874389157588993
Al 14.72881402495001 8.30515468927672 10.185316305667303
Al 9.535088543003488 12.095876113573471 13.685078188983413
Al 14.213240415283211 11.599186946989096 14.456006434625284
Al 12.232791112789437 16.33799851003919 13.318664196098998
Al 12.72640452400581 12.270973040230292 10.907686399643309
Al 10.492720287949748 16.180108522832914 11.142270730552692
Al 12.567797628181555 12.005662365813988 8.062223666890928
Al 12.142124107102278 13.254812224142208 13.591993699925442
Al 10.413535129496514 11.541858595865088 9.6079476691418
Al 11.56932151810728 10.519699756155633 12.58279877945834
Al 12.183272216259098 15.412269417127092 15.825606382593167
Al 13.175486431048 9.076042328992433 14.445592238471473
Al 10.297806861843409 13.426342689226253 15.885084044480761
Al 11.408982971788648 14.199891245183393 9.25716171109092
Al 14.984909326965797 13.037853705168358 12.257049782697129
Al 14.409473867673306 13.711778722216053 9.16564491464841
Al 13.044772478180688 14.912773624224602 11.282091783661283
Al 14.761298280432591 10.75711575398717 9.229011735185836
Al 12.286928588342864 9.712588733638668 10.093236589840057
Al 13.17901830459084 12.873759180716247 16.511268943637358
Al 14.49642943193223 14.27052746364681 14.704816702080462
Al 13.303910649400724 10.069788348981692 16.902964624008643
Al 15.046261760552403 12.24215732661326 7.071550136636872
Al 15.797758077377214 15.092553063722423 10.807021694694823
