42
Energy = -133.2444974 eV
Al 11.00634822793815 13.10484770905876 7.201089757023137
Al 10.113663257836908 10.670611113832427 8.270043566590543
Al 9.655381542380379 13.429448686368621 9.433830036557683
Al 12.390096934433794 10.780808855571701 6.761004957063856
Al 12.194162218643813 14.804795582999986 9.078356235907197
Al 8.952784285972829 8.752260150752077 9.608223877038208
Al 8.663446697650677 11.259658987411505 10.679539382428402
Al 8.142746446555337 13.721589104480605 11.664516819493404
Al 13.668132961616461 13.16092381728252 7.272451422940346
Al 13.495067382746784 9.891394797820674 9.02510541035027
Al 12.822801685614413 16.573712056623002 11.080940128118865
Al 12.076770147592718 12.091228564188567 9.49658562948136
Al 6.872148459535799 11.598516347064058 12.825481780172504
Al 7.384155922480955 9.066684225937827 11.93980022129359
Al 14.721338800193315 12.54906667848362 9.613109551741813
Al 8.160841185626596 6.6252526478985745 10.985337517404684
Al 10.701040577154627 12.390210829369336 12.19441331801575
Al 12.939303860661708 13.790633501346276 11.55262994149699
Al 11.045825202993978 9.930611635810163 10.882129289907157
Al 10.529259072923248 15.079929941134443 11.37729641351598
Al 10.904621296102503 7.154682930255319 10.663358549972019
Al 8.775981056105199 15.55902350450219 13.51644323195513
Al 8.680050452803702 12.92800705155716 14.355780718337295
Al 15.180719802653314 15.311013592171793 11.674082190077486
Al 11.02834623274998 14.270135119973968 14.161407262505682
Al 9.255921504047926 10.422190817892174 13.427067815847044
Al 15.557691320165414 10.234832761173651 10.673342946253246
Al 13.27389375501343 15.611931277186477 13.771657827533808
Al 9.537620528681586 7.789517736769314 13.03313848270755
Al 15.470293471359911 12.579838086976398 12.211012792900197
Al 13.207254150255324 11.100661820436455 11.90198909727236
Al 11.090503809391858 17.04591177963026 13.247223685582606
Al 13.328899900687729 8.408131105748549 11.36483438126666
Al 15.546260587740768 14.393033913777323 14.271934427763288
Al 13.259889880311308 12.850018575678247 14.113281404847532
Al 10.987739768898582 11.667663648379008 15.049409318523082
Al 11.665283482369519 9.3677243644717 13.534198952536403
Al 15.450559158067847 9.885762737296746 13.254748547616328
Al 11.971289629604602 6.584646197472426 13.098303765713657
Al 15.701742828689357 11.888279801998827 14.986809209564845
Al 13.414976914334117 10.439641442523701 15.275374019886138
Al 13.91599891225601 7.976019813534886 14.213569427637696
