48
Energy = -152.94094706 eV
Al 8.124409023178313 12.506749567127736 8.993185135865778
Al 10.362480621877962 11.600676575887254 7.680852413654551
Al 6.422074960966986 13.120122591673637 11.022062699390496
Al 10.611261790721075 9.076751388970907 6.875316509007572
Al 8.681492090811757 9.791099862619733 8.877213947926492
Al 7.355540045562426 10.481664370390709 11.15606252890777
Al 7.119454930697633 15.01172296953423 12.902751191941448
Al 8.934357480346254 14.211649436538409 11.078471536179828
Al 12.617218018367856 13.031951839972157 7.284719437125859
Al 10.557270461873243 13.892903642444947 9.043658260218944
Al 10.070919046163512 7.304702648478765 8.872391448209216
Al 9.29429949289212 8.477912103479227 11.17991802069414
Al 13.116201946244802 10.463411861564445 7.605296974263655
Al 9.761482679795826 15.826631192143244 13.11164139543068
Al 12.448867118387664 12.150856328766581 10.0811232821218
Al 11.70412775573485 14.656114080727233 11.55252363651606
Al 9.877913394177137 11.543429648842848 10.875819000727901
Al 7.667635594565291 12.379839283612904 13.244511651268093
Al 13.122106869413743 14.76436945247864 9.151443857617403
Al 12.690244601222682 7.70927457437297 7.934314126306358
Al 12.096399102093748 16.997843174016605 13.08287007562955
Al 11.337659449934623 9.686295752601756 9.51751356097609
Al 13.672738998452086 16.45911291703588 11.071923571380534
Al 8.718531214107038 14.404528281636265 15.15517804906518
Al 14.981343860336167 12.137238215580757 9.069784247130524
Al 14.033791144484981 9.183864745141609 9.871803422280998
Al 10.316701309059969 12.904654092683518 13.212639780201325
Al 12.003146644450531 7.5022982117177355 10.928686437078833
Al 14.099167766062227 15.242053394135423 13.617570766215962
Al 9.055563964905323 10.057740893321991 13.284580614273063
Al 11.59900841441319 14.732154131989324 14.826362233703692
Al 14.390251593078396 11.256270446594407 11.706925388788042
Al 8.957433304509845 11.785456075827451 15.508840529253748
Al 14.727038891182456 14.000970053892768 11.158675084670856
Al 11.820374823870033 10.4517178769554 12.43959503163686
Al 12.91998415804245 12.830281513025778 13.190287533484756
Al 16.86826484355182 12.482470798521634 11.1216138086383
Al 10.899655050871214 8.00095737349845 13.33053478802741
Al 13.943844024825246 8.630348152029093 12.57100270331683
Al 16.46136753145325 9.86801758456783 10.750365822299774
Al 13.790737708225983 13.519412935679119 15.804439271564297
Al 11.659091154702397 11.675369700733453 15.341633180121857
Al 10.012488317963964 9.393145600568262 15.699993281246716
Al 15.722032460169913 13.005915653499182 13.62783113440274
Al 16.335595496855635 10.169741768822023 13.391553128805732
Al 15.085541866812816 8.454731044441205 14.974117023233822
Al 12.55088826369276 8.996293822386535 15.161653014105731
Al 14.295938382136216 11.063220032716194 14.952687128338813
