43
Energy = -135.98620163 eV
Al 11.991425340466128 16.575846003065074 12.072803415530661
Al 9.652867459562136 15.722267654311699 10.88848110042213
Al 14.157822777839947 15.343440119849932 13.819057257310668
Al 11.620123171000575 15.884615518832037 14.682661307497307
Al 14.147891983883492 15.356935974448023 10.983396434842035
Al 7.25063715789293 15.355035134114255 9.827210843928485
Al 11.850849779812814 14.535690362099102 9.867853829513754
Al 9.475354920588433 14.041004762960789 8.684745598930192
Al 16.345586613507415 13.978049146331413 9.962185887009118
Al 9.661392541351935 14.72311248022003 13.378520386133843
Al 14.063556593060198 13.497531708815163 8.636544466924443
Al 12.864408988671844 14.2165898865443 16.4972422648496
Al 12.227411120048728 13.850578240639194 12.569332678577279
Al 7.64214218947273 13.69066788672271 11.942370610940483
Al 13.742610691808961 12.515993370265956 14.535736396320413
Al 10.117705496319342 12.774393640853523 11.051662453925388
Al 15.080459967113756 13.223448575530904 12.294108192881664
Al 11.648876101394668 12.36864512860924 8.233172663132555
Al 7.080248519520114 12.769514020994821 9.388282447984187
Al 10.998891517062027 13.006809991509284 14.88573196614832
Al 12.894181850197555 12.05921740607472 10.69107363699956
Al 8.924874183116481 11.958760061190027 13.523323235018767
Al 12.268413108782733 11.61667836473881 16.793564741827662
Al 11.653288596070297 11.152386608106912 12.939867764042862
Al 15.472848740876133 11.403066923788542 10.262318193843468
Al 9.092753433314705 11.280455654711208 8.544974037945286
Al 10.870902644660674 10.254062418306706 10.320013276614725
Al 7.94573638256953 10.973762391347963 11.16400608461387
Al 14.472115669215096 10.663320933468796 12.717880668217314
Al 13.37692131300139 9.723387442990656 9.226259024779877
Al 10.371048493615612 10.206985637144314 15.179035226267715
Al 13.19147857306213 9.862824400929528 14.969070579619467
Al 9.510512645969124 9.347455403297223 12.648653665985877
Al 11.083344247543355 9.820151009689114 7.508297083400309
Al 12.661769340535496 8.87649209934545 11.743756347194255
Al 8.728989708788655 8.619581753990424 9.90531746950473
Al 15.39539719478794 8.799465052136492 10.96311495567292
Al 14.489764303084328 7.964164083064383 13.522587229639917
Al 11.395507440074324 7.916444712909356 14.079956340786955
Al 13.720946425565959 6.925238795891439 10.062459111134856
Al 10.51431679773944 7.179167649310946 11.449974818022929
Al 11.439446359051303 7.676547110933348 8.97014547957325
Al 12.762089546014547 6.1471244079313205 12.470160754505866
