41
Energy = -128.67488499 eV
Al 14.352438800671235 8.387541717558245 13.055535121910658
Al 15.318897913985507 8.22969489375696 10.213835327098083
Al 13.03314904514134 6.969917620261936 10.609475962643756
Al 15.881250537416388 10.48351364198402 11.435232464222464
Al 14.121452882892092 11.143307716096347 13.329650827762503
Al 11.94225382602554 9.72593264299613 14.154591296595283
Al 11.529675697559723 7.581633839130848 12.66956725868238
Al 15.896947122175941 13.049763950686446 12.311594583736152
Al 12.412601663509227 12.312615902358724 15.133812637935184
Al 12.51451957767031 8.888436379029859 8.393131304344166
Al 12.933814149509727 9.681486773835898 11.190147052124235
Al 14.640110996928886 10.445961468937494 8.823702116493012
Al 10.665419589447515 8.3081179776849 10.13400788553237
Al 13.486516987103187 13.84745059952721 13.087794476308524
Al 16.387187712232098 12.708654165219805 9.709945036003164
Al 9.01415802304085 7.211364809338754 11.988475381394233
Al 9.273580278024106 8.790979138799273 14.430708513866392
Al 13.747490797023667 12.33650514207698 10.70354552860236
Al 9.884758225712666 11.510615741752943 14.57535275852335
Al 11.586103992167232 11.885910513843585 12.363449508938158
Al 9.581685573423949 10.066612647482708 11.98767404272959
Al 7.34617982270381 11.0721595214115 13.982707418937185
Al 14.53559968878809 14.90533534694039 10.428990150211485
Al 14.40924186925936 12.94160397324935 7.966909560052366
Al 8.218410457544742 13.746811752069874 14.48927392498098
Al 9.908938423896661 9.69736006023102 7.911903389299961
Al 12.530309716643222 11.148482365824247 6.801061204969494
Al 6.987310954684645 8.7246229094325 12.67501295621404
Al 10.798631911780262 14.08863476193648 13.776894366836114
Al 11.524732964277698 11.238518765201812 9.564896330716767
Al 8.041024517711584 8.910245376336858 9.925286741400244
Al 11.82664213807564 15.098415971194092 11.349363265702179
Al 8.952520857690168 12.66315033460137 12.067853393393932
Al 12.230133497204479 13.917395809482027 8.9524071500187
Al 6.229327369793984 13.284367031894197 12.770746343548518
Al 10.303003700384561 12.521385000625907 7.536899239461718
Al 8.675230872070252 11.553581850506987 9.517412236702336
Al 9.099837995469276 15.424698290324484 12.062660454105037
Al 6.659452374753345 11.03978563463857 11.190961852486275
Al 9.713601397864634 14.054569014636973 9.757457536257025
Al 7.0979636313377625 13.691517236368052 10.259776198055107
