48
Energy = -151.60263657 eV
Al 15.677677433533725 16.030545519385875 11.694262407190154
Al 15.58902733830524 14.19822674738591 13.683948161556135
Al 16.626746902072814 11.90157637627675 12.978198849433086
Al 15.43724258227159 13.46963514374513 11.045366915706584
Al 15.992293912229243 10.831802871006147 10.539394133396758
Al 14.146312186780294 15.15720966234362 9.402004742374364
Al 13.62719613057653 17.672573858653728 11.658480559080727
Al 13.90640952362382 16.674316290022837 14.30803379055097
Al 14.901229667978741 11.800164332584222 15.220638530475698
Al 15.10742926715486 9.81940052723645 13.103885005851504
Al 14.786514771691344 12.476492821330401 8.59019231184132
Al 13.188235462008954 14.88526769634583 12.36645443135385
Al 13.472202992312322 14.121922329214883 15.314004532414549
Al 15.192233401620667 8.329894925396447 10.844979294396733
Al 13.57971133911089 12.213574216690052 12.798886561493331
Al 13.149361966601214 10.345955277410734 10.83866894655062
Al 12.63875948545799 13.078672364095775 10.255985730949863
Al 14.48728993094294 9.597611084887003 8.474954859858542
Al 11.289608784657316 17.124900930723935 12.575408212411512
Al 11.613707338259218 15.689132760810958 10.25711822742989
Al 12.6995442888917 10.315951201728753 14.501305799157326
Al 11.176333344708748 15.29145527877149 14.435202134256327
Al 11.257543353551098 12.686091534916816 15.290188978913868
Al 12.372606788751835 11.357667937530863 8.139649923238558
Al 12.926825572658228 7.128081663955431 10.337449795763908
Al 10.230289072265364 12.854653187895481 7.827048152497829
Al 10.465561372644215 11.428357886746838 10.266587386015116
Al 10.534290542004449 10.160287447922185 16.058882626355334
Al 13.112196248031804 8.133508323643968 12.819415953562082
Al 9.322181495147218 14.477185461545169 9.646088902883646
Al 9.0851854060766 15.697771948155578 12.062898222671228
Al 11.142532380133991 6.346222740207202 12.386634370708055
Al 8.531467478791441 11.859219275370323 15.828932513926851
Al 10.822058656020095 13.564249901165798 12.141882982259496
Al 8.92334198578822 13.863769397065813 14.107602170778776
Al 7.994375693967147 11.709280516083439 9.119376728437112
Al 10.13980969622902 11.23312781643255 13.255661316238218
Al 10.870605282661927 8.995904955142054 11.338627750428856
Al 11.741554247601169 8.793035249427342 8.56309110952462
Al 10.738479048966921 8.43803179570047 14.060417720664722
Al 10.308211317268407 6.587082857122316 9.849800446948523
Al 9.859616588892585 10.310041647157194 7.461624725639478
Al 8.064162664750695 13.116134244672768 11.463689750145518
Al 8.6267196474664 7.610052284640687 12.116417755755657
Al 7.141995850541724 11.793263662126694 13.489850456216017
Al 8.245042250221227 9.483729983834278 14.202486327554888
Al 8.16774067322026 10.279089677837922 11.511880474926418
Al 8.836154567970457 8.80228570882807 9.432451164032818
