45
Energy = -142.28445914 eV
Al 13.861309447965706 14.495439617906984 8.665142272936903
Al 14.266471082137787 11.937347893276613 9.530116160032092
Al 14.332002685098894 9.347135250185456 8.62183702836736
Al 12.391889398466665 12.487503023806795 7.372385570395821
Al 12.647042020019208 9.922953679097818 6.561156182501699
Al 14.105284180105961 14.12885227349598 11.364896157669657
Al 16.19427170834291 10.27138492293781 10.452659731995618
Al 11.935132104419816 15.696152759813708 10.934767767424269
Al 11.313988298005894 15.11546063860049 8.236746792772601
Al 9.669669854467754 12.991153470614469 8.13281750858679
Al 9.964036301906667 10.564717939864043 6.975720070873737
Al 11.77293398956106 13.007034195724051 9.933353730439173
Al 13.330338709006389 9.668762063569401 11.270061019715873
Al 15.40458320521807 7.6347423993317545 10.627573672368094
Al 12.905107753240884 7.21132633835727 9.641808511138587
Al 11.782861854146887 10.430153072786819 9.146417834000115
Al 11.762272028603707 13.35442669544687 12.457276331423172
Al 9.90473519930036 15.267780655589972 13.007061840178748
Al 7.277416116072021 13.949526446623347 9.221258976202419
Al 14.848821773743854 11.729034398210922 12.280063865296354
Al 7.369856375907238 11.325127069729565 8.172721402398635
Al 15.382476950765085 9.105307580254793 12.929693256890474
Al 9.576477450963901 14.617067975688972 10.343690340952607
Al 8.978051837290602 9.388313399723307 9.275499827016183
Al 13.900507054529395 13.47489055557045 14.150306641690195
Al 8.547988880589813 11.869206980859959 10.654222400723711
Al 12.959249786068401 7.159977740817146 12.327796454393996
Al 10.904404058784346 8.117433748133575 7.927620858932999
Al 7.57879196899725 14.051181681967801 12.108027570941964
Al 13.323494544268954 8.583855625363046 14.617944275017875
Al 5.72396540160572 12.388899579463867 10.777557766318209
Al 11.407266436415773 14.06125643144092 15.02373392055763
Al 14.841278640926332 10.957805810138456 14.9420549884489
Al 10.843349614102376 8.27907683269003 10.845943445880858
Al 10.868144923374714 10.950025763195521 11.608238644183213
Al 6.566824712875182 9.850386957006707 10.466767908063305
Al 12.225925891194404 11.113867407804486 13.876806020883267
Al 8.638889033426247 9.266312753205646 12.01617874439556
Al 9.438912541405802 12.526817525326162 13.490885430490207
Al 10.821051114255585 8.618641965645619 13.466557762075963
Al 12.856888457898052 11.944793287293411 16.42782654026185
Al 7.032131074894059 11.264062103457821 12.932207035736386
Al 11.28617546070719 9.511953795584079 15.96609940420383
Al 10.14448419013173 11.93046125657461 16.268122098098186
Al 8.835611226734486 10.135671152467909 14.667366011617705
