47
Energy = -149.63610612 eV
Al 16.05222734597086 13.677775479888684 10.01339086288724
Al 15.265338037145836 11.359782080486077 8.740520700799822
Al 15.824716142615529 13.309161676165571 12.672905858293207
Al 14.028820258808238 13.719205771993904 7.937976563675782
Al 15.987775808809461 11.034700205270124 11.291089951997904
Al 15.914055548220524 8.888823285839884 9.73678224471098
Al 14.14179549407096 15.161948479804648 11.55951067374187
Al 14.811974739177227 15.98524335633787 9.08233322745341
Al 13.309888478276141 11.405502426478872 6.793315850515898
Al 15.819103750659606 13.248877859375364 15.369284743928226
Al 14.017094612051277 8.967746245363637 7.820315535731505
Al 16.003292577955033 10.912863741410591 14.05292499110865
Al 13.593011431348197 14.149330384444292 14.048119650959759
Al 14.806356506911335 8.878210632632065 12.880168738387091
Al 13.594468874775895 11.38138124108186 12.884713715457377
Al 13.552051302200187 12.696430011839228 10.503364090853406
Al 14.42265223098728 7.0275791570301855 11.037961804279865
Al 13.458112974977995 9.802007668259165 10.503177070027284
Al 11.624297312638115 14.093332007833867 12.05808010251566
Al 11.593735180934132 12.613430446270709 8.456104159153327
Al 13.611627297165283 11.780005936078496 15.684017740967692
Al 12.165164213118302 15.230343950097158 9.618359239778776
Al 11.55413249090443 9.917821395861017 8.395306493419103
Al 10.041027678353768 16.302956426178238 10.988220077710379
Al 11.305209799716579 14.635025081319753 15.192892371266954
Al 12.284972509684414 7.410394314861528 9.397397419296825
Al 11.293919227218145 11.299642622431755 11.03693134373795
Al 11.329484104131852 12.08502683964909 14.018787621942279
Al 11.208143927211193 12.510397643250398 16.82963018064053
Al 12.225301287419672 8.056446064073107 12.295469029405462
Al 9.746183247513837 13.769268766871239 9.865159368981027
Al 12.520230630089372 9.46535448559813 14.615490714723114
Al 12.185589052972462 10.001258967904402 17.288687978734945
Al 9.344098187742798 11.102966373527 9.054328680714027
Al 9.395304120498679 14.97198962312442 13.393664012924027
Al 10.209732207198028 8.646317604549157 10.471612540869053
Al 9.16031239532729 12.363362390699626 12.226196982143643
Al 10.263959090649887 9.684490276964791 13.051243963161305
Al 9.062787019776287 12.924138288782373 15.32149611387999
Al 7.763576778715162 14.785085327373952 11.27630838054466
Al 9.990671614690216 10.230408061261128 15.765271816792179
Al 7.271100137799707 12.236642991908123 10.129992074427198
Al 8.116300340691549 9.875998001990045 11.392230287854607
Al 7.12849073595588 13.401384885168232 13.623767274240583
Al 7.958731509791598 10.62463561334585 14.129554971907119
Al 5.377497630853192 13.579212742809103 11.458134586939618
Al 6.014319851543843 11.144728861782697 12.38644389178643
