42
Energy = -132.95749345 eV
Al 7.7347682324131295 13.130648835108934 14.374803627894247
Al 8.856756161828717 14.075526419457189 12.108017704246626
Al 10.429456389245646 14.021735219378536 14.193488316359431
Al 11.608858191040218 12.911379020081448 16.282637443130234
Al 9.573702294526777 11.500595347444609 15.330686903964489
Al 6.745073059487557 12.20994982455777 12.09508516490051
Al 10.978719197160197 15.902015229789736 12.104016279707457
Al 7.596041238375939 10.278683420983203 13.928008211053088
Al 13.392065578100778 13.729613865074503 14.137615790026757
Al 11.613227637012058 13.248490689669667 11.87857839856918
Al 13.65979719664093 15.37871257526774 11.970094386076216
Al 15.835746113191485 13.946587608066388 12.630490260916172
Al 9.498720516398494 11.391179215610412 12.099849727849772
Al 7.829696949677762 13.173735899714481 9.832408222279163
Al 11.846282582829325 11.443437541683243 13.87652063660706
Al 9.831926973169404 15.112266118354949 9.805742665636853
Al 13.89295560627592 11.611826766810843 15.87715814260427
Al 7.308620195069478 10.415111958958759 10.208316317286155
Al 16.10026946315738 12.5627783382876 14.878520694090753
Al 8.44897374180079 8.766351968752124 11.808952318772324
Al 10.214326457895849 9.350512287768382 13.838673053543229
Al 14.99596623567221 9.411806854779947 14.969389559596625
Al 10.539988117337277 12.403063539882027 9.56457229314487
Al 17.086094085748343 10.396093087064937 13.633595041519214
Al 12.485124490641638 14.624576520202655 9.631592146571009
Al 8.975472727442954 13.88660722245377 7.529077189417296
Al 14.422373524118072 11.329503756257358 13.026502061887953
Al 12.852515695995944 8.96129916300689 13.31303415146234
Al 14.172902331776514 12.874588299142337 10.803044221046905
Al 12.27990569097356 10.652642380778156 11.108998723762847
Al 11.010516085172924 8.110802360195768 11.517433924885056
Al 11.632990919065486 13.850444702105099 7.213789585660066
Al 8.401371032049536 11.277037710114627 7.9709573579962765
Al 10.0401596928098 9.712010329137373 9.598499285216462
Al 13.193017923554121 12.084411734734024 8.45725001779389
Al 16.6401721067166 11.67326659847174 11.356320036652292
Al 10.963180753206645 11.07910191613589 7.2298116010201765
Al 15.462175120025037 8.89425277733682 12.168857940836126
Al 14.723924118197447 10.404914421596569 9.884398316920075
Al 13.516789602699774 8.003674033892457 10.651332825954864
Al 11.31452619749916 7.174896188626238 9.008617998545516
Al 12.66921470965404 9.408233188918711 8.477626390249553
