46
Energy = -146.13635052 eV
Al 12.726445739685113 6.417314309201753 10.185698621730495
Al 14.825010477948128 7.095122457602435 11.893620322430767
Al 12.217652055604468 7.346614191477829 12.903650723987582
Al 12.138406044412882 9.268035659697137 15.087773794664596
Al 10.067553212076772 7.739691319543808 14.397144620541008
Al 14.885699906744437 7.748629369547361 9.133364181872766
Al 14.192346348996697 9.2797991368114 13.475941413439177
Al 10.450770343692097 7.939991046218039 10.527358253145213
Al 13.040960505887261 9.023810829526882 10.963167644534519
Al 12.273830850070208 8.55150573597566 8.418450793346894
Al 15.693253567769224 9.603381222106647 11.098969496390746
Al 10.828622086862486 9.809205114550483 12.616530783307848
Al 9.592594362114015 10.353710488524898 15.123025754318745
Al 11.919179366107 11.821070311115443 14.540470102283924
Al 7.531864536461266 8.512436695233328 14.738060705746724
Al 8.389674339707234 8.040730010831618 12.220396123937235
Al 15.695023293215783 11.461588660958355 13.12409678581077
Al 9.850573318511689 9.633492158063355 8.21619655981903
Al 14.222662459654977 10.455715608683294 8.944361330473663
Al 13.154455372726407 11.511238741610107 12.064471279713498
Al 8.66865557745948 10.120857525976485 10.619577199657538
Al 15.350565295361683 12.301484393301154 10.570874997269941
Al 12.076528990432438 11.195108168056606 7.608279201570547
Al 11.174534254850688 10.992962864350448 10.189733402494758
Al 9.801099397229711 11.75659247807083 6.283455183064166
Al 7.664406129242741 10.686615447347169 13.09693470800519
Al 8.778385710272026 12.108041360504247 8.708521454338895
Al 12.883269828903018 12.902629975434515 9.720241904630884
Al 14.676931048030283 14.931710418470608 10.163303820054344
Al 16.23889403521247 14.149267225344115 12.42193086557247
Al 9.384465379873383 12.985327894082264 15.493773203077817
Al 9.792829475745924 12.323192137766965 12.714136105134692
Al 11.771384765181091 14.461943033681049 15.128027881339914
Al 7.55116526130741 12.621987672357347 11.023102882982766
Al 14.045339540655782 13.39118139038015 13.96937552468517
Al 11.043781808059467 13.710701185709913 7.871895872399382
Al 11.92120754584818 14.004310581677375 12.276051097028887
Al 13.548287976216894 14.798623299085198 7.778690347863978
Al 9.991863967124912 13.784173000304605 10.452610286374075
Al 14.095615628399738 15.725852302093648 12.692404306333144
Al 7.3246879519343775 13.391322934159854 13.810722081865723
Al 11.972025744277701 15.5585636716113 9.863512131121778
Al 9.563485643668638 14.951534057656573 13.670245218572425
Al 11.754821811591926 16.56935972550183 13.582110458077779
Al 7.706973680070215 15.150531769782384 11.700329291539036
Al 10.077140343407711 16.36796739862025 11.472336262055727
