47
Energy = -149.72380413 eV
Al 12.146205239629998 9.185437805378962 7.454059024528996
Al 11.537842702829943 11.65855954181894 6.658372932599699
Al 13.995335073465045 9.101319868562785 9.495373663776636
Al 10.891295764607227 14.196589939562582 5.891336024813688
Al 9.44280465486806 12.930740719024483 7.8571970600338785
Al 11.290062778121973 8.17672420061301 9.87178156652103
Al 15.911109921161362 9.034317767088908 11.58095152449132
Al 12.945377942603288 13.982429212332114 7.611203091348697
Al 13.313657043469213 11.529220937271766 8.635289641736952
Al 10.479395588348043 10.64698109091928 8.96329707101442
Al 8.03443937258345 11.697859946017955 9.753264116518173
Al 9.48082273077022 9.690843124575084 11.258910070513654
Al 9.032521164730843 14.285969487874887 10.17832015630024
Al 13.336043240844395 8.113089995383557 11.84270091394853
Al 10.766366748157262 15.307606902917653 8.460096711863605
Al 14.764434736798375 13.819613368981345 9.487790980412294
Al 15.04034101972531 11.373294088421664 10.643975312151353
Al 9.15756431147714 10.438116839511151 14.03599604246489
Al 12.255791694603351 10.683424663740364 11.077815409274569
Al 7.200931226105511 10.79896164446312 12.137979534929396
Al 11.43699524065827 9.35250603825402 13.248498616469211
Al 11.488742818356709 13.052408082807155 9.964384423010285
Al 6.7680198274693115 13.537574881377827 11.486229006734652
Al 14.069889945516511 10.60305623644587 13.175349488426388
Al 10.489523727072465 8.101245116667023 15.376631475925576
Al 12.903691197151513 15.491226191430092 10.415848322904735
Al 7.542415672072543 12.84122596620126 13.976908817374133
Al 12.68144441185712 7.076642994751369 14.173461198906923
Al 13.530258948785896 13.155085390659854 12.046012038792695
Al 8.626888913246159 15.317934139583592 12.613891351554043
Al 9.565938080579476 12.404033240289296 12.056717163182052
Al 15.3732194075465 8.163007173236208 14.048794575927998
Al 10.386584105068014 16.7078936267336 10.819724476612864
Al 16.80617886392736 11.257414421190624 12.830521168672671
Al 11.044800028000731 10.599333568433293 16.152086076596035
Al 11.67892156770009 11.986710150933627 13.852039668343162
Al 11.248475046071436 14.514842537887846 12.261143241813775
Al 16.236182460196336 13.694059191239615 11.732360182522159
Al 13.250238523185562 9.331029923228966 15.470284095617604
Al 15.86947162953013 10.606267881853093 15.296286085352003
Al 8.956662740849168 12.250579771933625 16.21958126348541
Al 10.028889869404994 14.132794174985841 14.546499283888549
Al 14.691661625414632 15.538663826366168 12.946911550566858
Al 15.37702096648402 13.18131315760779 14.29290068108853
Al 11.463972155726616 13.268395446629466 16.672458963208875
Al 12.934120425784132 14.320230385872739 14.582994340154022
Al 13.601707622376244 11.937684113872992 15.920030368559567
