41
Energy = -129.58061893 eV
Al 8.639148482316166 11.87543976946719 14.340661221944556
Al 7.167259947131826 13.792760141998967 12.845781358297753
Al 9.721879841590356 14.317496815946582 13.585700080384509
Al 12.404537954359265 14.41853758353708 13.866815776138868
Al 7.243216099816237 9.762449036110121 15.385318677892482
Al 11.230856709439605 12.122573125925431 14.501891600552762
Al 6.424521303850921 11.125209017751292 13.118150187427025
Al 11.203568835233998 15.94931501430634 11.776657311376368
Al 8.991558636154197 14.623264936310926 10.911822500973937
Al 9.946972943423937 9.591251449766826 15.19801791832309
Al 10.036154012655055 10.19926143511921 12.525655805938651
Al 13.49733929289645 14.508364423093306 11.434623689808914
Al 13.466978762169475 12.060330622158563 12.992861314051105
Al 11.096917394680275 12.824712147293374 11.759569358041418
Al 8.49948671192127 12.006637024573589 11.363004133147525
Al 8.238321202249484 8.179788701532784 13.452666014817826
Al 12.455200498047608 9.761315496857398 14.307118389443605
Al 11.528068677168038 14.328970106371132 9.475997713133433
Al 7.4507957634339155 9.511813951644928 11.203457714702662
Al 9.199270141452772 12.787217112962141 8.91343816635584
Al 7.268111293079689 10.953008441711157 8.914595939754216
Al 9.424823177713453 7.742989241551586 10.987245357021875
Al 13.098374257710162 12.077165540472727 10.131547585022187
Al 15.47306941943759 13.543287769498361 9.964218459443787
Al 14.915641666933212 9.622908084461148 13.296287229804886
Al 11.48353294328742 12.002170943086341 7.8997833367333925
Al 10.19187165680392 10.260123567203955 9.803896043770393
Al 13.515958581364062 7.474158033366844 12.477009759223556
Al 10.928127199174243 7.647572043777407 13.230786994656816
Al 13.800114964430568 13.629727817973864 7.898909852400375
Al 12.446510541792417 9.920997826878633 11.538633126706545
Al 15.546746224232667 11.308534062856808 11.342486141339053
Al 8.21931261772589 8.45285341277495 8.683839219166913
Al 14.735828041373722 8.772881051842978 10.430361958701809
Al 15.367289484491808 11.046727623934805 8.680138215667315
Al 12.827408127241693 9.683102720972865 8.691949891310069
Al 9.266552913909424 10.478286258206062 7.145721032499946
Al 12.029138985592006 7.525604270452303 10.287703903533053
Al 11.663665719219047 9.79646016652426 6.184773247838206
Al 13.738338507709656 11.325422282976298 6.533147412680614
Al 10.744960645592588 8.116741105555226 8.045186538779536
