45
Energy = -142.23388367 eV
Al 11.037467388215523 16.368090589934717 9.351012438152306
Al 13.134140403843023 15.79368947539377 10.902319303816821
Al 12.726770650263063 14.396134854287943 8.506806757191455
Al 9.678793653550873 16.381602853818798 11.747430516695388
Al 15.190310335073034 14.961942746252513 12.37646655461447
Al 11.657745822576775 15.494595726149909 13.287973714495102
Al 9.981110975765887 14.157508620894024 8.23606638130269
Al 8.035374375176477 14.512499283713032 10.698716074321752
Al 14.62810298208145 13.149513026911729 10.06887755748075
Al 10.863384557707674 14.113610126441742 10.816035341902623
Al 12.947650584142172 13.269355627806107 12.305760922011956
Al 13.733672984416256 14.435953761614856 14.688465349730068
Al 11.722287919467925 12.574945420590739 6.811322022556352
Al 9.419827716764045 13.863847945890374 13.037058871463334
Al 13.942883249226302 11.477013364739223 7.96796413437219
Al 15.719327218046738 12.410419451188138 12.388407785308845
Al 7.291638968348384 13.336672885752707 8.431912863503003
Al 11.290558389042433 13.121855081156797 14.897716946985987
Al 15.612525053784521 10.428084556557813 10.207462190604927
Al 9.079139163755697 11.956395619254089 7.005127117028988
Al 12.059153340642478 12.027774598990385 9.82214188901177
Al 9.305623311095811 12.007942016196958 9.96180791748537
Al 10.8736574125209 10.292040497647914 8.048327015825167
Al 15.893245910346845 9.988911983520719 13.269130627943749
Al 13.45868941071988 10.678013949590504 11.943401106777806
Al 10.897444623439075 9.820575456825399 10.737515456944303
Al 6.702341721294196 11.220675297943751 10.079064256599851
Al 10.92750957164341 11.436916278371864 12.79656291855897
Al 7.256400856376803 12.498715546055426 12.367875114233305
Al 13.713460721913233 11.771131468692507 14.56875811892231
Al 8.78680639703766 11.56126557909054 14.521644964011008
Al 13.233453546353843 9.274404805330686 9.50411490399358
Al 11.409326371203909 10.456000677715792 15.386634116531857
Al 10.75354140075842 7.78180246071434 8.972027967997487
Al 13.894604569793788 9.091262619034266 14.797050740348167
Al 8.535047378841963 10.221641891017041 12.075555411205762
Al 8.417509735030356 9.181533931253313 9.435631325074128
Al 14.619688987372726 8.223041571371548 11.71161585472013
Al 11.760590114530608 8.854489954138458 13.1505420242899
Al 9.492015685249278 7.7527723069464045 11.631103947538978
Al 9.338793781810974 8.829941978130684 14.476112883469803
Al 12.229229791512259 7.06695041176817 11.095469967303261
Al 11.676762431995572 7.704788513019103 15.76844545781154
Al 13.408861538523944 6.677603860768474 13.636819860699102
Al 10.667762516536142 6.384297947350773 13.517608881642536
