48
Energy = -153.22850575 eV
Al 13.292510647528959 10.265335915100966 7.160369003561499
Al 11.500712951507234 12.765851414171394 7.179178871837134
Al 10.638595990589447 10.187172371596727 7.907647666768975
Al 14.211052688132071 12.77722890068578 7.265580640343533
Al 12.601932481053025 8.56091536552444 9.078215678865844
Al 9.864686210112135 8.057942591994436 9.519551854676912
Al 8.812139566523008 12.213299026200186 7.562161165205977
Al 15.158055419610857 10.009354677196214 9.148161325466983
Al 12.933794222105364 11.6055440590951 9.445113593921622
Al 12.560873417492939 14.387598496862608 9.095728993177646
Al 9.885655101263229 14.8212584391489 8.392882646841889
Al 8.963468090625524 8.913700723337245 12.199622161896112
Al 14.495582189531946 8.067341132815727 11.018710998196772
Al 15.740135355670226 9.575001912260529 12.921706655768514
Al 8.357976045549782 10.255245984355096 9.637062838345903
Al 10.456596917740365 7.391631249072442 13.883135003831905
Al 15.290961328296012 13.778289074839968 9.447231280787044
Al 13.396501213869 10.40829030932428 11.898003957942025
Al 10.965877739819714 10.204764763655506 10.801680153521072
Al 10.410154901998233 12.608857011207753 9.744587947476273
Al 9.685929389647743 12.086178330249123 12.236133859684754
Al 16.15565144720315 11.594686186981004 11.099667298654486
Al 7.621525808761624 12.839236353402525 9.973471060978707
Al 11.668368254029263 7.572635564339908 11.457288079656061
Al 8.441674894203736 10.97064474414626 14.432047008782092
Al 12.293976103009165 8.2585167755694 15.833578046128569
Al 13.780344365241794 13.058870915812122 11.537801333514711
Al 11.163769372010526 9.959988788730431 13.658751593912832
Al 16.157763074860654 14.22522245193895 12.016439750914483
Al 13.392938308501366 7.97656251197217 13.472390952010196
Al 8.824924074862965 15.03308863483506 10.952258826430896
Al 15.490270011415491 12.2153351792389 13.826260245278222
Al 7.39237577192575 13.4668575866087 12.767213956307428
Al 7.156953723292835 10.920551638246822 11.987183122556024
Al 11.38919230367708 14.160188078870483 11.935067825253206
Al 9.823468863093424 9.341952063407618 15.986473916403838
Al 13.961144496824629 15.739433311288714 11.041627804121376
Al 11.240961607356455 16.452186495920426 10.443912608497673
Al 12.371139397265797 12.349081122740818 13.59912366509162
Al 13.866468597801623 10.27847161570337 14.831457771537874
Al 14.214839652286944 14.677951979603824 13.899226228744968
Al 12.665570310196696 10.494694120279014 17.325112364309067
Al 9.146117318938792 13.610542761211823 14.743232262241877
Al 12.32023438084735 16.465351258610347 13.141843736212572
Al 9.725862219303421 15.86145345761883 13.37056562964843
Al 13.65322215913066 12.777831996426187 15.939183384718339
Al 10.862616954126274 11.854266987132075 15.778663135935684
Al 11.65199037567054 14.569125883540725 15.095219662236222
