40
Energy = -126.07949661 eV
Al 16.265229381192 11.635342821922322 11.337782088022713
Al 14.641406050554355 13.75368034434569 11.365718331457488
Al 14.475571888972416 11.588589922803898 9.32137546507641
Al 14.451872070278426 9.650526544870429 11.423378539194932
Al 14.542653836856672 11.918839498567086 13.392468156511436
Al 13.709785465180959 14.575631295898237 13.848842819152118
Al 11.964342726245265 11.831323640598924 8.092825032995897
Al 12.94637324196002 13.881247156736281 9.394851787425406
Al 12.532353857115137 9.477606565710754 9.459256595460177
Al 12.592082095103303 11.680739705863989 11.263442242959453
Al 11.333075567454696 9.560776401990532 6.93697698497311
Al 11.869047906076954 14.224006717251507 11.850840765691384
Al 13.91805932754032 7.178405297040862 9.967691361395355
Al 12.387310147030206 7.212623153601243 7.792184039484891
Al 12.951087021632238 9.866643994596366 13.730111637155183
Al 8.566667943857029 14.05635760026103 7.603314892786122
Al 11.93642474673877 12.458061341689145 13.957942931516497
Al 10.29753236661797 13.438610544850027 9.662979842941391
Al 9.30904072345623 11.587635060123848 7.078446800961689
Al 11.094640524001372 15.250918993269316 14.325975374443294
Al 8.862130124829653 9.162751221491337 5.9744461668355235
Al 12.86797101570283 7.516936130882514 12.3554334346496
Al 9.70776240858636 7.683982470444553 8.005037580867834
Al 10.068864081033446 10.571710828372657 9.643564794005368
Al 11.210106274922206 6.9399225773729425 10.181578087104175
Al 10.850568586720112 9.292571161686901 11.850988244721945
Al 10.303679125712344 10.451052213963052 14.43695135828409
Al 9.251916151893539 14.838747085943796 12.27785095008642
Al 9.908196871051196 11.95200903215461 11.980214504975134
Al 7.916074156967397 14.884329327120783 9.98146486774888
Al 7.717005870515444 12.234753475756632 9.368926249896287
Al 8.737680687530322 8.050313362942116 10.492208868622573
Al 7.778389901497976 9.64194791996027 8.513205841268503
Al 11.14287539750485 7.99203838711613 14.338843936174793
Al 9.907990076332368 6.442502863151364 12.493300766022427
Al 9.283053504955065 13.052439740918787 14.385708688667089
Al 8.44169810590491 8.572651875680291 13.128006097865011
Al 7.345662796819061 12.949403845688895 12.113438031650668
Al 7.665874313240409 10.345792097351076 11.187170314245494
Al 7.629053952925456 10.977688072518156 13.866365819211776
