46
Energy = -146.22893869 eV
Al 13.878079522752433 9.764474598315427 7.318616866741027
Al 11.944996712589385 8.171904401426016 8.319715053730476
Al 14.11330074924277 9.085093716245455 9.911927826503987
Al 12.359026935912933 6.885628611724143 10.60996224275804
Al 15.167368513756543 11.527896905939368 9.116912559113576
Al 14.091167791235941 12.482770872588253 6.868295022186364
Al 9.581832948036958 9.441325557642053 8.0096783618087
Al 9.898524059904656 8.05050975046925 10.289288102706095
Al 13.127393222697288 7.499560964404445 13.121717180782449
Al 9.790926321181294 12.121625771930697 8.029445671907927
Al 14.787923882777763 9.448095332804192 12.48441948203121
Al 12.211679204568453 11.09909609243078 8.882268616670752
Al 7.513317791031248 9.324819349513891 9.771146855077243
Al 10.403891159250536 6.786898021773168 12.586657097419744
Al 16.142911842836128 11.71101969566637 11.574630042787495
Al 9.85321990878075 10.83717442732798 10.48234887387458
Al 14.012208567158568 13.972263195802107 9.362998589320435
Al 11.83579582551825 13.66938367803766 7.476124321297794
Al 11.997079842751567 9.460359754574913 11.429487741103058
Al 13.472838546582231 11.862525116956887 11.250377229611278
Al 7.568482870688898 12.245625339777 9.69452868093784
Al 11.2469351613365 7.89590409701722 15.013673293038076
Al 7.851190085857908 8.087111471239622 12.130267499646422
Al 9.93603407514666 9.534640310589662 13.104491253208776
Al 14.553401810689781 11.905014698279581 13.749770695343948
Al 11.424814706573956 13.317618742459235 10.2742675834698
Al 11.687123296864103 15.833595818335327 8.965225831164995
Al 9.125235014108297 14.579605630178232 9.334246290203408
Al 8.643572888946872 7.413509940334539 14.65569883286839
Al 12.589605617484835 10.076450322738198 14.088653671291278
Al 9.034425480586398 13.27926819086807 11.744147065381219
Al 15.28303502452729 14.203058354143815 11.95410515186429
Al 11.18710768569406 11.98765062612106 12.667879903768402
Al 7.620860525109872 10.913656655504672 12.148489960269114
Al 7.650064114865924 9.947950301163864 14.647593512030591
Al 10.520346669570165 15.66479303825784 11.475892903475895
Al 10.363282283682986 10.370314763803375 15.826468526782673
Al 13.336022933664303 16.01108437290981 11.022298191186245
Al 12.730358715449837 14.203656062130543 12.913343393823027
Al 14.65986109963641 14.168479447671709 14.980957764918195
Al 11.92988852195889 12.6472643273915 15.19052099728135
Al 8.955971825223703 12.260634917680264 14.285398210648934
Al 14.44721377324403 16.36448623840577 13.524779678335763
Al 10.251565478766379 14.524906006853206 13.985535513531323
Al 11.835209878263505 16.961732805932616 13.328368650648535
Al 12.435621311799755 15.450275902947558 15.44809340575696
