47
Energy = -148.90188434 eV
Al 10.637644113534204 17.004931960102432 11.976596248045643
Al 16.080896239223424 9.113938399835403 12.762870940237866
Al 15.069919916111983 10.66718715026512 10.571983302909905
Al 13.724861363548225 10.262774287186549 12.995517217690336
Al 12.217873253778613 10.791849949361602 10.922356063924283
Al 12.768189749538784 18.532746771732988 12.025243283905692
Al 12.592197946440328 11.493793138376335 15.099607257158807
Al 9.118436572700652 14.07197986135976 8.832342173333734
Al 7.950848744631712 11.084754478567007 15.199795726547345
Al 14.107902858512066 7.409181977867915 13.440281588683652
Al 13.456896218917729 14.758365308645196 8.956004999189435
Al 13.113044756094636 12.874933321731719 12.72247188507089
Al 13.496706273250384 9.466023784994606 8.566668243130744
Al 15.184675750696293 10.17909056627017 15.246923211140134
Al 7.430992144320778 10.918733532865742 12.503005590610947
Al 12.31907186448133 16.46056914880421 14.039274920345092
Al 14.77660749051853 17.097864380188366 12.969351032319897
Al 10.840106550016012 14.294993021124027 13.199040259405955
Al 12.84610360609247 8.734578450869739 15.467826885255809
Al 10.452404888034728 9.917595030994352 15.463228259624973
Al 15.54692438183506 16.001063850739108 10.456196741676754
Al 15.994496507336555 11.881186894367689 12.852710427004297
Al 8.999795633176635 15.083190755946958 11.33404500833254
Al 12.978386513720972 15.437168982673962 11.58253847064249
Al 11.446140089597096 8.292047188332491 9.899764312155277
Al 11.569144029979233 6.473125175506103 14.21197228466304
Al 11.516560135718846 8.893244820747167 12.838289179826322
Al 10.493585617410043 11.353306620910093 8.896135535902909
Al 10.270139516963638 11.419666286189964 13.127792597443273
Al 12.427222833302048 14.157581958385137 15.394409625857381
Al 9.779536567124204 7.074813164582586 11.824200740760096
Al 10.149422666021024 12.712816149725056 15.52094253398035
Al 13.305633849110883 12.093703100560822 8.681465036217517
Al 9.512892025157191 9.79349044000535 11.003807085349154
Al 14.722063763330704 15.675496313128038 15.323585258468631
Al 13.312769849473971 17.43210026811504 9.612797272418398
Al 15.022414309951584 13.30098923775385 10.602429896323182
Al 11.433707874636806 13.620564425718214 7.423952439410558
Al 15.350359402907726 14.51600203023246 12.912569197460941
Al 11.434896331982848 13.394250451282687 10.534884417839528
Al 11.036177904200713 15.871959090094046 9.386063226016015
Al 8.824823219115066 8.913376075060407 13.615128046615883
Al 8.827347489685602 12.401471457080522 10.884045886128323
Al 12.363287970179705 6.289672130602677 11.619008013546953
Al 14.13716641968747 8.225958951522829 10.845306514581848
Al 14.905980237772507 13.006540646844039 15.106095349151214
Al 8.342807365333215 13.353241645387163 13.460000149079502
