46
Energy = -145.91048744 eV
Al 14.979625761808178 7.546884024654338 10.249984089214117
Al 12.475945550078023 6.740854886465936 9.538699050754065
Al 14.248371867371095 9.52447626042912 8.332613412962042
Al 13.3898681616821 6.7487064100857745 12.378398543711649
Al 10.8045376309699 7.227808851394819 11.549569942987633
Al 15.772350228403983 10.070998443028701 10.493441615623176
Al 14.95891159911654 8.93009299543946 12.733232856383232
Al 12.345840347242342 8.066094772096246 7.174019832992726
Al 12.901579101607094 9.169596362086253 10.833735431065831
Al 10.486698625901283 8.531568916948006 9.173038783775532
Al 8.91326377647871 7.839577165740474 13.21374088071999
Al 14.639702099978948 12.125705865081992 9.211490243507475
Al 10.355037394482991 10.121848269509373 11.708262103501498
Al 12.331639622329961 9.227690427535155 13.472454101221013
Al 16.04435567511623 11.080343996031091 13.833124612970526
Al 8.271086442014562 8.632601368719168 10.65863975137173
Al 13.723113569970272 11.514379773101663 12.106310222002072
Al 16.363342775674205 12.48024805692848 11.490729435614226
Al 10.851272850603051 10.227143721462665 6.900468975156562
Al 13.194565158728583 11.63426639021279 6.9062275124422845
Al 11.98907819348257 11.124234190428446 9.30757215130317
Al 13.504879235094824 11.237523613844349 14.95983976975615
Al 15.021156730354042 13.531118673103514 13.8638271562202
Al 14.394883404212848 14.11958863756302 11.070508810324865
Al 12.941527727932876 13.832342722513692 15.791616597917285
Al 10.289679659523626 12.789930021742897 7.531017464547342
Al 9.295117030143754 10.899450627157115 9.27757554734128
Al 10.056343017606098 9.876759215502073 14.638601095314952
Al 11.742881371966128 13.05380409604564 11.085109355234879
Al 11.357474251436361 12.067499566521937 13.469670839691243
Al 12.62904526378172 13.826396840392611 8.521560151657145
Al 7.770888251792439 10.191124955689052 13.089540100689266
Al 12.348953649090168 15.76366809669695 10.60349814119921
Al 10.943488439436583 11.964062278466068 16.200705590294696
Al 6.992706084096214 11.096231765629827 10.637022456239453
Al 12.669175918716292 14.662045917831316 13.206608617447676
Al 10.101917882041368 14.634593663606365 9.604344256552027
Al 9.016747071207991 12.694062328289546 11.731182163594264
Al 7.926711455560752 13.172233261804598 8.984990471460476
Al 8.695180800296232 12.201080984761477 14.668222476631053
Al 10.450155207794264 14.35966142865159 14.888832725093737
Al 10.249182848636702 15.225962571803397 12.244197376654785
Al 6.479525790384289 12.52150028201523 13.020743592065719
Al 5.811392686453539 13.513108506341672 10.580562065929547
Al 7.8740805254844375 15.2007885694812 11.018411339086708
Al 8.04380518540447 14.638887457447973 13.673261778264186
