48
Energy = -152.52970775 eV
Al 15.765545728011784 15.253108683598521 14.757537320040427
Al 15.938123496226767 13.376141239676352 12.620587579592726
Al 14.103474688291703 15.465643774495389 12.560191025913484
Al 14.84882284252082 12.65160853024057 14.970592976845039
Al 13.041428928645713 14.716605830394345 15.015603777514784
Al 14.55132446429224 14.05178365850741 10.325094972602145
Al 15.504571339375252 10.71045082775212 13.143439239932617
Al 16.03823665927635 11.602278000405812 10.59031778554881
Al 12.49756028851218 15.991611473737505 10.298571440889573
Al 11.511846136057104 14.712142883512108 12.713441191135322
Al 16.19296695837816 8.849365918666503 11.165789111813345
Al 13.292135161366952 12.461555457691672 12.369020360730266
Al 12.197608286962643 12.18447750662479 14.94319367938389
Al 14.057798696700962 10.122516207279718 15.553855633566585
Al 15.440860158502394 12.655930808333482 8.18454318980242
Al 10.400578425358331 14.317722664729416 15.118996445882225
Al 12.893047726253952 14.374343910726992 8.123989880693795
Al 9.85967744380695 15.675280438002549 10.762661400731957
Al 14.547249692388807 8.131649336690948 13.24394473658721
Al 9.242833062052691 16.13303387602155 13.482585676482227
Al 15.065636382849982 9.67405520341007 8.842795718882158
Al 13.283175940605584 11.820946060261402 9.568868956905016
Al 11.355818144330952 9.812176712639905 15.951188007659406
Al 13.690769698331465 9.93788168094716 11.245915310318537
Al 12.86645841167885 7.580325178234092 15.304918554068298
Al 11.366887883384965 13.35997501951663 10.353785264806747
Al 9.555811992052021 11.630480557622061 15.024216980820094
Al 8.80752556627033 13.492097217998033 13.063685204151865
Al 13.590045376458296 10.988125044020412 7.003618678844612
Al 7.325858101789433 15.266991845618795 11.704098080876403
Al 12.352170423863535 9.894036771394791 13.442459208875395
Al 10.089005230295225 14.617255743807712 8.24185310049627
Al 10.558406698913394 11.538467115126155 12.293539518633956
Al 8.62508238069317 13.332772014289684 10.185782603385032
Al 13.63712708517071 7.37497659134963 10.487832410456035
Al 11.298584143221825 12.078760358274472 7.657766608206912
Al 12.315381078514024 9.34702545710643 8.869722730863558
Al 9.780982734594868 9.013661335339714 13.780187218596522
Al 7.8118744533036555 10.976786817617361 13.250807065986942
Al 11.99062370935582 7.058245926326011 12.823554156194255
Al 6.474155363545751 12.740549536771928 11.65224888943767
Al 10.015873437048125 10.788836222968781 9.665456374609349
Al 8.614754508160111 12.223783550080055 7.741149161451277
Al 11.035454144389622 8.90778411160445 11.167707313604293
Al 7.296921523704078 11.039526039811163 9.657635635271722
Al 8.283533821768053 9.15027467373604 11.309206691991882
Al 9.41562472742806 6.885676401535969 12.153890778940388
Al 5.692712128972782 10.153221059180945 11.73409762365332
