47
Energy = -149.14132631 eV
Al 12.670278140721377 7.117209614803122 11.851439536755352
Al 14.617231999799133 8.782663912412602 7.741439154350524
Al 14.458978202939479 8.390853974877873 10.423257030539718
Al 12.337121483468371 6.996390361361583 14.580653804039025
Al 11.948002261037889 8.894930937576708 7.342293556265185
Al 10.22845436600674 7.131838407155333 12.782792623176553
Al 14.496410246557778 8.25395940162138 13.427841458577316
Al 11.629644138633259 8.819352300301945 10.073304692159699
Al 9.482409566116747 8.813129268876443 8.198721019370103
Al 15.67181129356194 11.136064586338618 7.128856795830343
Al 16.151054058120803 10.647281445019573 9.724680574088651
Al 8.990107826047117 8.266080357624194 10.841676383453093
Al 15.913894385610003 10.139823783048826 12.325275435190349
Al 6.996728548185252 8.968909605168069 9.253286770586623
Al 10.137393761359213 8.874607362850934 14.780737820653535
Al 13.024710909414235 11.249304782210933 6.582328418633613
Al 10.584772181556755 10.099286730877893 12.355971400816923
Al 13.46640611714915 10.812130900939612 9.249501459641126
Al 12.583349157094604 9.866979685594167 14.593711104136883
Al 10.899523353997552 11.12902013930267 8.501193380157376
Al 8.167088418231536 11.343470357853723 8.736587510520962
Al 7.9945646038826315 10.784197190274647 11.382586803726694
Al 13.167463730775323 10.22033221293899 11.969595336339758
Al 8.578287898362522 10.956312524710457 14.017484988581085
Al 14.696504663135068 12.461349035016298 11.306253223175604
Al 12.019895010866554 12.383596312649653 10.93135565625747
Al 14.4508199218101 11.937371214688238 13.967780546270308
Al 10.589476562583982 11.175039514916755 16.084078294184025
Al 13.237061475069135 11.796339049677803 16.34174188649755
Al 14.984872368520723 13.179341663806612 8.70027697768388
Al 9.730847634715047 12.743239008087688 12.14282902929974
Al 11.79413505706914 12.532074095968314 13.9593923229392
Al 12.328682334913417 13.39925904896587 8.122415531068416
Al 9.913819375554581 13.378078903534995 9.38199356723448
Al 7.410238621147058 13.331716894381657 10.291452873103353
Al 13.552464479628393 14.854229158858432 10.203358148735774
Al 7.164716910154106 13.06654218173991 13.083833568069345
Al 13.582250642646356 14.385294254820744 12.878367827620515
Al 9.333946074060595 13.364691351860841 14.87672357104429
Al 13.693237122659617 14.39269551168442 15.543767502511665
Al 11.366364476851246 13.75057196448304 16.648883624485222
Al 11.245067200490183 14.954839397052892 11.61478476426152
Al 11.279859093618711 15.771611910536825 8.955906182934282
Al 8.949823321646882 15.691918027106421 10.31077924413995
Al 11.298137145551223 15.253663560327611 14.361404574437378
Al 8.942583451561886 15.327833094783315 13.046259747121704
Al 6.552040421752703 15.487105015947357 11.693674293970128
