45
Energy = -142.90974065 eV
Al 13.629022995304831 12.840783773419256 7.790971795335955
Al 13.803380492627882 10.15381393779818 7.901209537522324
Al 10.996353009387514 13.01236821868983 7.182577235894901
Al 11.171149411197403 10.392291004391817 7.689543100762186
Al 14.94915859652181 11.362210123032128 10.051228917988682
Al 14.803974445225224 8.558475883097234 9.853887495246953
Al 12.157891080307332 9.037215985625808 9.886405582529715
Al 15.884887679923814 6.938859441125004 11.693873366336735
Al 14.200308352353556 13.951777058127051 10.111418446308383
Al 16.150614278250092 9.753802941043132 11.905582333174198
Al 12.204814603436448 11.767047178541567 10.080502430828078
Al 14.56431886159703 12.519391156657479 12.4215579431936
Al 8.782940530867139 14.337735887787842 8.166352975499995
Al 13.151490813090987 7.156561103778703 11.63312294816465
Al 10.498041907417509 10.209348441163243 11.934945193943305
Al 9.529410609339985 9.133175199332008 9.480570945739446
Al 9.561458594321813 11.905320403413993 9.230270636374785
Al 13.89891063224387 16.386877257769214 11.365308040238636
Al 11.338879471557906 14.26484345676498 9.526613118543398
Al 13.36135871917478 10.032291691373828 12.139813866822934
Al 10.484121585044946 7.375820476346909 11.411384788600094
Al 14.655026367165718 8.199827951052828 13.76798822011141
Al 11.204058742347662 16.63431365157113 11.099438526918073
Al 7.91102341051907 10.616669737755833 10.928489968614114
Al 9.923517352675635 12.867869796504454 11.716503570385823
Al 11.980811601361586 11.983229424462898 13.39705593021137
Al 7.2497768715784945 13.176812853624432 10.11461562761868
Al 11.849091239310816 8.149145659740272 13.850643722929203
Al 14.394539764755528 15.020211340963762 13.80271431802985
Al 10.392304389861936 10.19970379789392 14.8618960322399
Al 16.472027407883438 13.389174803560392 14.281451105064017
Al 12.265050714037367 14.234022028091164 12.06864270013129
Al 8.946818583607467 15.312493875961652 10.677847186845437
Al 5.867484257785316 11.953752880185194 12.143617293732557
Al 15.808857893894299 10.781512538432176 14.293055351945524
Al 9.096192168669692 8.356104577801286 13.504969402337007
Al 12.211200747282664 16.69459876002936 13.621473750618874
Al 14.05497202068261 12.658654791158865 15.264301232269796
Al 13.232361767879715 10.078654541311773 15.058485324404547
Al 8.03522619333883 11.000610912695418 13.564318422457518
Al 11.626232095116672 12.086552217635692 16.21322053193337
Al 7.6258266979841 13.945329287676783 12.801789185170819
Al 9.576311689555295 12.933914755979934 14.531518438883625
Al 9.7950819425665 15.397425380925643 13.242507497593474
Al 11.837544171325602 14.37322857608397 14.870140720882466
