44
Energy = -139.47199908 eV
Al 15.217627207711429 11.274418800963398 13.497406026911474
Al 14.684827311902685 9.259121399638522 15.530462372038103
Al 13.965169745472496 13.662826379790005 13.660017384383528
Al 13.056218307469804 11.395126062355278 15.058877364955181
Al 12.510958388022445 15.99208690375503 13.859332211084253
Al 12.269643303475197 9.386917025239272 16.749912487520536
Al 11.618999631314681 13.611076110423458 14.916591199255624
Al 10.60401143998071 11.490461438934634 16.451901282246137
Al 16.002043991924104 10.40624600805192 11.10998879777191
Al 14.318236246497483 12.709894130438313 11.171728793285494
Al 13.864044563295455 15.534886879966667 11.582619018542488
Al 11.380315340200145 16.438565570980757 11.368877978157993
Al 14.740279375665745 8.538496554938783 12.951855904078348
Al 16.41378280577359 12.36050500407367 9.310187908807267
Al 15.227073528517133 14.704595491001902 9.52211448403158
Al 12.956908028659402 10.477929155750253 11.959677395397918
Al 12.212154554358813 8.759333332650549 14.14802564291044
Al 11.723116970015099 13.591621248022978 12.107388414420296
Al 9.84786366490727 8.999413588895912 15.310769369258214
Al 10.810571027311722 11.076188207508824 13.628372608053855
Al 9.056268346215544 13.564597697628534 15.536958792127027
Al 9.89441258659369 15.379693348503398 13.582968232902987
Al 14.582771751341358 8.278355154802224 10.32489766710379
Al 12.306656885902056 7.775355172174248 11.742171339568877
Al 12.147906834221352 14.565900445516425 9.492463048496516
Al 14.035412059574767 12.966908721653699 7.948464403900655
Al 8.138744140761895 11.078292264526501 14.900124096889984
Al 8.917257738850827 12.884323209937621 12.887942763202018
Al 9.539778123526578 14.59773234517049 10.883615611377547
Al 12.167420092174968 11.813817466267984 9.710629204543716
Al 14.62705885335464 10.334635784471223 8.544379235344362
Al 8.877885582736026 9.075460629337845 12.869118859794321
Al 10.017798973326684 11.04468031268883 11.107648264830225
Al 12.253473234247695 9.12188367167885 9.426801234580818
Al 9.947322406223709 8.231764272911755 10.637857634376122
Al 11.669267393932582 13.364798259857837 7.027245895544447
Al 9.802466110042609 12.832109410219106 8.918843852286463
Al 12.310094798359643 10.620946647065514 7.1827900427812486
Al 6.832165556834753 10.945532143450713 12.544771280150641
Al 7.634366837915336 12.553289467900537 10.55970511933968
Al 9.92589409976222 9.925673051754005 8.550565223611256
Al 7.683718582826031 9.664709192586344 10.338627557164937
Al 9.72595564533969 11.56010875485755 6.429863180257394
Al 7.626916999225855 11.294582347425735 8.100299882481265
