49
Energy = -156.77636958 eV
Al 13.335533117708616 6.522611798682371 15.466188591953689
Al 13.64251761221719 6.829110252948735 12.679344634902062
Al 14.283231025469048 8.889925566861747 14.662243637246732
Al 14.678903100281243 9.161952845252598 11.937612089032932
Al 11.289603976187545 7.152343267688709 11.220485518200036
Al 15.379502032173706 11.176871328791478 13.977016314893554
Al 11.176440813847858 6.620440799824046 13.864985293825098
Al 14.938237605897802 9.964000879509555 9.488056635908851
Al 15.827744087486188 11.756776654680722 11.487491445195706
Al 12.40574940851827 9.437900904609345 10.251706788518021
Al 11.709423820216141 8.710670079544272 15.696727989200019
Al 15.83004983332463 12.669961389407394 9.012591753378551
Al 12.071739579529481 9.171273336441494 13.017881099288275
Al 14.084099273531237 14.63661753151044 8.340735298804177
Al 12.726202090034763 11.225442445242091 14.86006144904236
Al 11.415497665701563 7.5021589683555705 8.590967743544166
Al 8.964511544158606 7.802944522111415 9.788694180123006
Al 14.131313437774814 13.539343372433839 13.919555343742163
Al 13.11486129978873 11.546898507162123 12.06584060006316
Al 12.382441511159135 9.854030993282347 7.556598371046595
Al 9.44513453833869 8.561559368427135 13.802811439509194
Al 13.119955616864019 12.08121119818256 9.218043827872808
Al 14.833446139653239 10.963554686875026 7.08454493127429
Al 14.15147790605452 13.968756235542779 11.152001027467316
Al 10.047258927429247 10.74182523918723 15.672055156288746
Al 13.068954422735493 12.83042811105931 6.462657768939318
Al 9.966434329392703 9.824235880458724 11.370088171246033
Al 9.6106214521348 9.365774071100509 7.57186014432328
Al 10.675321387871781 11.848028396901265 13.186339099464663
Al 7.446638153979495 8.73753860856909 11.822232390302666
Al 12.557436891339462 15.889077032684204 10.143998166761781
Al 10.484964759186278 11.447548946355187 9.264034972386295
Al 11.586752013794296 13.803510592947518 14.970774138718703
Al 11.358465384515156 13.440715909215228 10.980273203656123
Al 12.322554217786838 15.37902758338752 12.835538132312122
Al 8.12945439445076 10.834516183283549 13.667071513888295
Al 10.641249869981646 11.690241238686154 6.50549434286219
Al 7.891927990784866 10.28106203391961 9.58223130133036
Al 8.946967785803613 13.053426379021738 15.215992263186818
Al 11.408538652941479 14.132070365754752 8.167783473147722
Al 8.784473620696211 12.412613644427822 11.334649933491418
Al 9.68911985279603 14.49098218440334 13.084735452612929
Al 8.265172525219384 12.009236128597808 7.526922271044585
Al 6.209356952756201 11.218862696094662 11.711936636769154
Al 9.030472354955887 14.085248545553833 9.104197060946696
Al 10.053539219078612 15.910382376559976 10.85705083496254
Al 7.036692345257269 13.358901889269662 13.350728713732313
Al 6.6253124145904385 12.867743255995634 9.554674781862031
Al 7.569033195007771 14.944975923599314 11.258824222133542
