43
Energy = -135.69940242 eV
Al 14.750745362069146 9.230239241634134 13.192247533623217
Al 13.995911758752897 6.759435571697645 12.60828583598354
Al 14.650170768391355 8.130053683758453 10.438003496041633
Al 15.338488378808965 10.814693129699394 11.114541072551265
Al 14.895056396503277 9.821440276977237 8.437749281904333
Al 12.36033861519713 9.557594676003422 14.616784443574566
Al 11.966259542981536 12.348843350815786 15.057225019087259
Al 12.221203700177334 6.567078403583106 10.594320524352424
Al 13.380707096434326 11.565934576445494 12.870902429335327
Al 12.32067498303392 9.03002889549104 11.93236486501473
Al 11.46813423874464 6.468193296506513 13.402414754819999
Al 9.94396301480598 10.57206148695546 15.588418093432812
Al 12.555053162778565 8.480510517577896 8.71315646339624
Al 15.217184718287646 12.431100576083761 8.907264975668394
Al 12.773447023183495 11.016338797307414 10.026630657743588
Al 13.715941105384717 13.462082638602359 10.962533068787877
Al 11.67636576024536 13.77291977751316 12.823139440832977
Al 10.728179838557056 11.102359134204345 12.825606814392152
Al 9.912561829316983 8.617469319054944 13.588938598038224
Al 9.41022746923229 13.000967754838245 14.366733453332229
Al 10.247898357734922 9.0292452775735 10.282097121344442
Al 9.572423420116746 6.703926263910471 11.524120134508376
Al 10.990038325236872 15.868510996995258 11.105107734599066
Al 11.381784432429242 15.52604364451895 8.44003080146744
Al 12.577238149552517 10.757150389955697 7.21295612873638
Al 12.866766440346645 13.306414085935005 8.097692217594977
Al 8.088723535062543 10.678377498647206 13.644529644231582
Al 8.845609582602103 11.775121648225397 11.136570723424652
Al 9.003471446026499 14.49208885647411 12.148237563795066
Al 10.46562193955171 6.691151060116239 8.657947716702028
Al 10.998547840141546 13.282647961794881 10.260141792229739
Al 10.376222646315338 11.239287393883654 8.827357415190287
Al 6.817834127700857 12.99791006870688 13.170419455491123
Al 10.223137320497807 9.000689404035125 7.403344505829046
Al 7.933781366456317 7.2883929186553 9.449827785733914
Al 7.849951864215266 8.9282086305003 11.657491724207777
Al 9.942967703830366 13.50098209516382 7.406669134573435
Al 7.88295963036635 9.911626671201814 9.023297044681527
Al 8.837722359438438 15.027294451085595 9.405092860118515
Al 8.901115250030303 11.186928031730115 6.582507608864463
Al 6.188062079039038 11.23082500859129 10.786672382514809
Al 6.684161952755092 13.935229892298677 10.72224292658803
Al 7.700849405325609 12.556259758427554 8.667041389363078
