44
Energy = -139.28775808 eV
Al 14.329109846065156 16.70355584481462 11.114700369068451
Al 15.700125281299098 14.392175806450563 10.65350621962028
Al 13.498331524014999 15.197565110207279 9.03055170119426
Al 13.762651924406294 14.471914377373201 12.785528810713942
Al 16.390189741953282 13.719194677236677 13.175005547771883
Al 14.053183558204221 11.21350671159923 6.690430216173326
Al 11.735167343117634 15.853645353416413 11.228823194044391
Al 12.93771919340148 13.774066925341707 15.38951474278266
Al 14.733502834718546 12.512692379461964 8.92659449739499
Al 12.362616475062891 13.288523618898264 7.609155790982778
Al 11.15676855132329 15.199293596791515 13.768540287959988
Al 9.697452198883694 13.978447882560932 11.891028275935632
Al 14.778538021483097 12.076857971367627 11.624384368837289
Al 12.492731984762592 13.17348791856204 10.62170234146322
Al 11.370149580525291 10.982543836240342 6.383751232454964
Al 10.621258173657676 14.608298689076173 16.41872516833624
Al 9.833066308263257 11.929146439989045 8.266069273638816
Al 9.192989977443915 13.38145966841213 14.464925958158934
Al 14.583510095573187 12.032377808260517 14.32579757232556
Al 11.818922826899266 12.566341416062981 13.200090965369927
Al 12.396084160705655 10.939399756981063 9.00556024386783
Al 10.388406255502856 14.38565819366401 9.35198295096635
Al 14.834899171203006 9.679796300424973 12.914180241976075
Al 14.797672149958583 9.93164230468826 9.88374116724377
Al 10.922231016132327 11.941015619978126 15.943353401232569
Al 12.588754601017516 10.485389973600627 11.669622858078057
Al 8.01611760698287 12.829191395381287 10.068751173532
Al 12.871313881818006 8.799282045468455 7.226079200846794
Al 10.279661738898223 11.557670504555015 10.9420810272372
Al 15.037849858249047 7.502135579006952 11.183164959128206
Al 12.49747126284756 10.075307048715167 14.528910585005363
Al 7.811336577342569 11.986963419807903 12.704602765720464
Al 12.603766293147297 8.283982238838068 9.893280895541423
Al 9.989195437542712 10.602838875478225 13.62607467211689
Al 10.407580708078951 9.199339717321928 8.413202530203183
Al 8.183484106407768 11.138421725554696 15.624692863576701
Al 10.425831352855973 9.367546635835454 16.270287822801208
Al 8.327611156708256 10.025534339822048 9.813656232285076
Al 12.703258973378448 7.830434747744687 12.538679731377721
Al 10.326850878453852 8.866171776984345 11.326946092847608
Al 6.0778023151603975 10.896916198951239 10.958047121787864
Al 7.846832005030508 9.266693475821134 12.515497478747793
Al 10.507960988037253 7.912620372181524 13.95625449323943
Al 8.145829937356002 8.476739594944961 15.108310830285754
