40
Energy = -126.27661487 eV
Al 14.426195342581222 16.35562314563776 10.800571526284354
Al 11.97756827345463 17.39796305671348 11.316108882334763
Al 12.702475067843118 15.995920601160345 8.734101886399635
Al 14.822261143175348 14.291812010304351 12.394089799638051
Al 14.141325422565293 13.787036688279038 9.756520043189523
Al 10.210896719005627 16.045460962170498 9.838247645965247
Al 13.164676975240035 16.292983128984062 13.40167991272596
Al 12.1032665561795 14.414652504290949 11.476459469948805
Al 13.129860116937419 12.618768338555219 7.455374175981576
Al 10.179481892598929 16.08109133910697 12.730635798276772
Al 15.826183958422904 12.303306955460554 14.086655798298631
Al 15.075428984123814 11.349028159100904 8.856452739935586
Al 15.210879699751068 11.812055869024823 11.43746675276059
Al 11.102026123146052 13.62489949308681 9.030675520672368
Al 14.289199200482432 14.498436289729211 15.11969273756254
Al 9.263564632657024 13.972815403786266 11.099690329649253
Al 11.530619669987814 14.410596217523436 14.379601602469876
Al 13.149781764057641 9.616569724628752 7.955563548182125
Al 12.564114696729828 11.628307938996022 10.154749775800417
Al 13.13686856465501 12.317189560521104 13.462881792635203
Al 10.564101597389703 12.202377286077352 12.873170386849065
Al 12.63413204541082 12.796194173291155 16.269098630387894
Al 10.875128993278704 11.126937940075187 7.851616817452257
Al 9.93991630720591 12.687919316305983 15.750526099542437
Al 8.806698523915186 14.097888049043352 13.856130401306133
Al 14.032340316745138 9.354196113858704 10.51156965855749
Al 9.677031233417884 11.486913785959844 10.158830640974266
Al 14.656918564683016 9.875590062810781 13.187701536408811
Al 14.271379763182019 10.801355027447373 15.841436093171612
Al 7.850126853951678 11.916135733406273 12.229193983836213
Al 11.98772863223279 9.932371082146842 12.4050964879128
Al 11.51491285154118 10.651193813151227 15.099621096189438
Al 8.71231726184859 10.64151834665466 14.602315021082665
Al 11.201290367035417 9.179482278934593 9.871510130812895
Al 9.265814613866374 9.580984265663531 11.970947109657315
Al 13.422794365322728 7.592704588037494 12.349732866276764
Al 13.091489761162808 8.507211665949546 14.876440605471208
Al 10.251008483229311 8.42421104477733 14.262643809984795
Al 10.669208493089684 7.334236700315219 11.759627481861465
Al 11.810919494969003 6.237994666106189 14.027504730626
