42
Energy = -133.07387957 eV
Al 12.322458308712124 7.396284309379373 13.632116834398948
Al 14.790750055195105 8.408935373014494 13.538941047356573
Al 17.383401162158464 9.486554138836418 13.343357010628187
Al 10.201091866012948 8.876620832059624 14.308661166043555
Al 8.101391958768682 8.533124885978411 12.61551013901276
Al 13.040939105799756 9.324720410175374 11.663537598724249
Al 12.749781373801344 10.137165001560392 14.391835338659167
Al 15.672331808593277 9.84146027207824 11.322479556105337
Al 15.46422418158929 10.811861966354687 14.640202479028936
Al 10.431915442232992 11.411163307369817 15.255980512042163
Al 10.576777041663085 8.21647717359154 11.626759561246011
Al 14.242102019150956 9.860491650907909 9.113518365492526
Al 11.612159625161707 9.132698914387962 9.413299018768896
Al 8.473819439409635 11.042935665545446 13.54840439408709
Al 12.306352686273772 10.50254332718704 7.1302771377041045
Al 11.02528973358628 11.040241733250037 12.38418255884095
Al 16.612224624578538 12.195210695089834 12.473342334035355
Al 14.041169051124115 12.044225256745793 16.43763251438391
Al 6.29812638074011 10.450192252789927 12.041933782407638
Al 13.82153359164024 11.77617993914411 12.45459332566443
Al 12.344206066803594 12.977770027187875 14.431690617692114
Al 8.84337477762272 10.350825282590968 10.727616896865905
Al 15.090837079050765 13.531983029822005 14.325337744907047
Al 13.484660646689736 14.648115145541906 16.334959331902912
Al 10.012876630294363 11.103284599754298 8.484300396249761
Al 12.412078337893691 11.733725552270107 9.984882541082612
Al 15.217377479143213 12.326026600993968 10.064836908040956
Al 9.788167002940787 13.438803238691035 13.39885192623755
Al 7.396945329374739 12.849369664182694 11.813669679016629
Al 11.027238048733057 15.206928699455645 15.506203923508647
Al 12.012724660082158 13.757198865600538 11.874457716057261
Al 14.077077337176522 12.566890053784734 7.628619517327085
Al 9.887464224231778 12.837050302671946 10.561617378875162
Al 14.728727064915594 14.366519897999789 11.823956953217094
Al 13.213883692724737 15.5777838284787 13.762661646498593
Al 11.319236242884775 13.345333371332268 7.977264568598333
Al 13.390045128322258 14.384837429962026 9.493578297047405
Al 10.5792666992816 16.09065800692438 13.084264122115316
Al 8.587795473599869 15.152631708528206 11.4340530804676
Al 10.6968240219349 15.28011091610338 9.654897708123443
Al 12.653919128355376 16.319322134612705 11.232878786470469
Al 9.92409527220484 17.52240433851873 10.919495385521987
