40
Energy = -125.5153055 eV
Al 12.995591766834156 15.84300708588557 11.519474692629213
Al 14.822884261927094 14.448419158457952 12.962919972249548
Al 10.22991136172741 14.234346260633684 8.216344654080483
Al 12.604130806678077 14.626539836889135 9.22457525418634
Al 11.9439390652775 14.321900453449514 13.449907559663613
Al 10.40041838182633 13.854914562198887 11.103554563698793
Al 8.7303334118024 12.351123346129674 9.31319234928721
Al 13.140229244522374 13.019080898267926 11.333410973588702
Al 12.52766072285062 13.090035144438055 6.983115383380451
Al 10.229771047818195 11.69323557118025 6.985330213432729
Al 9.480217827772739 13.18286462139473 13.679235756862989
Al 15.338662347226263 11.820100105931775 12.161920381750807
Al 14.294639467206254 12.236712864787856 8.88820382612221
Al 11.372809858472138 12.965331323076628 15.684522329716746
Al 13.9113038557257 12.546343456894235 14.538549026790625
Al 7.619659211465281 11.261317712351174 14.11130384566088
Al 11.67497814704837 11.540742518855104 13.090856739132112
Al 11.49021336077842 12.022412735183117 9.446843422358121
Al 9.25310159284756 10.99199686523901 11.75647179496331
Al 13.610208806115557 10.302289947145708 10.544742827720912
Al 12.674270800711694 10.506359689766512 15.679577724000065
Al 7.650690318917867 13.133609964558087 11.697199407541845
Al 12.654270184341517 10.271576123133272 7.802706075589167
Al 7.154989976993672 10.139963141150215 9.720089994813453
Al 7.6118605610085615 10.761372779716787 7.231800423501214
Al 10.070390482344907 9.777057377820377 8.920786801888921
Al 13.854561301979265 9.839342465572946 13.258054982973983
Al 9.44353526179569 9.425380703596113 5.808310138296793
Al 10.011622840831818 10.694363096739394 15.060331649574623
Al 11.241556711304305 9.365894353312406 11.59523552588317
Al 6.790479498287353 9.637950324118732 12.274125392299077
Al 12.461146497049011 8.067455302181529 9.479879085572186
Al 9.075222015980678 8.701014954729354 13.454771840019314
Al 11.687448526661361 8.363783911640622 14.233601201859047
Al 11.24428718612128 7.957311497457493 7.071127328700606
Al 8.713881781989434 8.283181628026947 10.878394382048938
Al 8.262596975134059 8.09243570697055 7.889239641283692
Al 13.256743170114728 7.6148868402096905 11.940037761463476
Al 10.124629593604853 6.688236686948467 9.25656155423765
Al 10.655911555707814 6.743910917352015 12.071929696985688
