46
Energy = -146.49705194 eV
Al 14.255418576999665 8.785109910049679 7.955277135587303
Al 12.811992337111676 10.967649165025774 6.796016135633851
Al 14.312077375365833 11.2588056628034 9.065034981120386
Al 14.504129509778663 8.901012596112157 10.620787982889615
Al 12.214490024862002 7.266107097819446 7.097272984597778
Al 12.669081518434016 6.992546250801509 9.738799499787248
Al 13.030021209064948 7.092631374925093 12.345968492786337
Al 14.705440130893844 9.135498522046467 13.258082240279094
Al 14.401739241347558 11.419979835026837 11.738537647807638
Al 13.36731343265018 7.518960818151039 14.985513178929777
Al 14.276460526215104 13.644817223730128 10.271412347488122
Al 11.859386795124891 9.608950817240704 9.09742147855961
Al 12.681264571063288 13.369602529250697 7.936731130717973
Al 10.632793922226645 9.378485856256095 6.543240085355127
Al 10.066940213306285 7.441099751100182 8.663807248765016
Al 12.178143279681079 9.721085137381122 12.01926688400628
Al 13.386982792507421 13.172958396538823 15.729880755284583
Al 10.529024869130566 7.58729398715976 11.31712311445649
Al 14.2558996900177 14.096952406622673 13.186744699395188
Al 11.894226408285059 12.069375878352679 10.429990593948169
Al 14.349126274385558 16.011716051291078 11.359682359377626
Al 10.925639078209194 8.076341820708757 13.951490172038337
Al 14.969298572787899 11.681910910742854 14.321028878488766
Al 12.56759333918728 10.131913172646298 14.85984259053243
Al 12.11506117009388 12.3259370075756 13.217270999326336
Al 12.50001009435317 15.614798092091554 9.355609279471475
Al 8.025958250777334 7.909401015529016 10.289921290570172
Al 10.405663427425232 11.741495032007649 7.940729419457849
Al 9.660336265806627 10.228644342422664 10.719101003979704
Al 10.960331663364878 12.084971766515988 15.868558916392516
Al 11.942450671585268 14.799352372550775 11.821721791673896
Al 9.969290512165264 10.7242863568568 13.69982381842781
Al 8.593312211693231 9.77218907658094 8.16846575257875
Al 8.545323980401793 8.606453037653212 12.91568553828466
Al 10.303520705938437 14.017749184087933 9.30846351385761
Al 9.71601812239728 12.989835664327622 11.828734772264163
Al 6.06198072999178 8.806813322499126 12.029228190274473
Al 11.587668165988728 14.69777565463834 14.516159655016867
Al 9.109750732523693 13.349110538546602 14.583758678986106
Al 10.173182595389502 16.49824377150581 10.391384109698983
Al 6.67376536818545 10.252637394414801 9.906145099583316
Al 8.184422437505546 12.347561042122265 9.505031932133633
Al 7.585452670850316 11.241934696226673 12.293596189460196
Al 9.551968945227843 15.603294879122114 12.891120271887042
Al 7.983984686418509 14.868993540346649 10.409014094789079
Al 7.30398683810991 13.985640975423037 12.849446998882355
