40
Energy = -126.30099264 eV
Al 17.385674754782116 12.298153154868672 11.001758994238461
Al 15.667216623643727 12.105700552786567 13.102154126796698
Al 15.714251177969988 10.066384776175411 11.301876364569312
Al 15.581053496954238 14.31921869772276 11.204003142321035
Al 15.123565027814761 14.614263479980618 13.985826573327797
Al 15.178308177142931 12.053732511144366 9.44933970791962
Al 13.902329249626142 10.086837539381413 13.32325195757313
Al 14.106530301294734 7.969184589989817 11.568681982908194
Al 13.374322563199076 12.281474201214087 11.538503926531511
Al 13.334437944215022 12.455341123385502 14.314272001637711
Al 13.263078947783592 10.081553122252485 9.973743476262513
Al 12.054040470514522 8.126023874132695 13.427126373426349
Al 13.484168394453254 14.282738690725772 9.518846647606882
Al 12.456061532599207 14.922023457385729 14.889613606832977
Al 13.009803710703649 12.02860291507056 7.995004754955862
Al 13.14734885413097 14.925260839230333 12.198036074716825
Al 12.386898606714649 5.857642742649141 11.89262426730243
Al 11.635612248792 10.356698920806691 14.7195699985441
Al 11.347616045803466 10.41932959426187 11.937904880617644
Al 11.574134670496262 8.00682959892584 10.485486843946864
Al 9.37711158962179 10.570846907947162 16.19398635411934
Al 9.866749063064667 6.91517178195961 12.350161225256054
Al 11.103734536848627 12.24672022853705 9.933358273646942
Al 11.124644999602111 13.215259300961014 12.885472814056733
Al 11.025532962000216 12.768895062510392 15.733539239751927
Al 11.217449513529264 14.291871579822795 8.035386654756476
Al 10.856925958315733 9.687542913023556 8.692695110427405
Al 11.008706290650277 14.980880513358697 10.685272793219179
Al 10.569337883675926 11.700773851966016 7.07046195881232
Al 10.911378992346883 16.284733508504207 13.044042004145805
Al 7.422854787721735 7.768145216919286 12.491274738985675
Al 9.163848007434618 9.5095281635779 13.590296613898328
Al 8.985051210662421 11.771397360310914 11.638773499545612
Al 9.575174457730514 15.042620307264306 15.08312327817517
Al 8.912286837667978 9.115142585261314 10.708431300825918
Al 8.8898616020861 12.291517069866192 14.164575608978481
Al 8.751362976198482 13.86816670720325 9.83202622214602
Al 8.645741645985117 11.261484481907722 9.002419497330608
Al 8.77349529131801 14.489629991850526 12.424299773421831
Al 8.686853995539767 13.557233485791308 7.207332737097805
