45
Energy = -142.63132305 eV
Al 10.519234467086948 16.074605832092875 16.490306138611647
Al 7.760306946381387 12.489388186285273 11.130227890718485
Al 10.15478301976598 16.1724621348248 13.840675398723258
Al 7.276771528946899 10.054780213274766 12.164676885425724
Al 9.823265466806964 16.74283644799144 11.285950896820749
Al 8.703495874575554 14.435136089497789 12.530310515784278
Al 8.080595025904474 12.138485099021413 13.885805079241738
Al 8.869596608317181 14.17039609950585 15.315707905364915
Al 12.501065957816108 15.016895004037526 14.598665331173514
Al 9.347726636726712 14.549390483438975 9.934996927535554
Al 6.728798867303127 10.606615657096635 9.49308916442557
Al 8.318016559471594 9.495382285077893 14.56318421382959
Al 11.259182645043744 13.499629711336867 16.578627549256115
Al 13.948355210128137 15.954327121203328 12.521083587832992
Al 8.91315554106861 12.232655231353215 8.64341272294704
Al 9.238349431613912 10.034915120159578 10.190895638428337
Al 11.939688743501227 13.958683597754153 9.089523239943759
Al 10.390560867392724 11.16711785602443 15.544460353815948
Al 12.431455596680488 16.506677997590344 10.220879719126156
Al 11.598998077060946 14.650241442548067 11.886225554280513
Al 10.655766612561136 12.304569583978992 11.040657442701436
Al 10.890826433147637 12.953111824356032 13.67230928111311
Al 13.194951787624827 12.356917866403183 15.308271446494626
Al 14.242906367307398 14.432434786831402 10.31709601789217
Al 10.1059585992956 10.30534152748588 12.74643361231563
Al 13.422638939498615 11.693890167603092 10.49754609094829
Al 12.775892578669012 10.939254173004628 12.962180506911688
Al 11.487915879711238 11.392241078582947 8.406680388782808
Al 14.36161459888242 13.159352668754623 12.948501262660988
Al 10.759627006124179 8.59543552836675 14.78465844962896
Al 13.268219677581179 9.488166001272292 15.263863936962183
Al 11.738116679127527 9.544135552525638 10.574058846024839
Al 14.284389616238585 12.509946850043326 8.152301164875885
Al 16.231432457422894 12.703322925918874 10.358589710146207
Al 16.34800566601319 14.820230945423097 12.084280734620243
Al 15.426332587304989 10.606589555334969 11.991814267863317
Al 15.42325243499824 11.113710506372334 14.623071789553546
Al 12.510557597414268 8.21130932176221 12.824521708916377
Al 13.51760348206169 9.714828453476331 8.256764253440132
Al 15.110091197156166 8.488190433960021 13.531439408773798
Al 17.135067372611463 12.45496103382667 13.017217207984064
Al 14.214597960230659 8.46341766856132 10.621693424895106
Al 15.893534071934587 10.279829421453465 9.264029063992991
Al 17.972374724406276 10.698738256031666 11.052098113028519
Al 16.733201969002074 8.327731626472586 11.299496524105258
