49
Energy = -156.1310927 eV
Al 12.094225678077047 14.981839314214714 16.15684829897358
Al 12.380007861974773 15.654202390358344 13.631849801392397
Al 10.343637903134224 15.035887970307968 11.715770756664972
Al 12.621602531371176 16.359208231249994 11.11031928503599
Al 14.056685337699896 13.62737639779695 17.57415613305719
Al 10.196964930958753 13.23439340943427 16.860146445617534
Al 12.73881693394333 16.637901152232207 8.523552387631954
Al 10.190900154108936 14.250208242475855 14.283932082880957
Al 12.369621366988824 12.47578622239941 14.959344951662493
Al 14.717550090991061 15.113664749392248 9.713197966123131
Al 12.307274651989113 11.566815217101743 17.50610303097077
Al 14.528810523334212 14.241682457238237 14.959015701597437
Al 8.13838490358707 12.480583046472477 15.160117266125628
Al 14.651168933357857 14.75748583146606 12.33541538332256
Al 8.22713711124422 14.50718452934831 10.037322611137371
Al 12.265704528794775 13.120180065006766 12.346695798983637
Al 12.147299480910084 14.001351633433394 9.780994757549045
Al 8.058914348069976 13.66387628723449 12.662642192806915
Al 14.86198202843259 11.616870627105403 15.928808091147411
Al 14.715545353510075 15.565364387872753 7.00891253243076
Al 9.9235257062991 13.458796491942513 8.113493356209997
Al 10.232929924030408 10.624998277593217 15.989592030706898
Al 12.195233187325995 14.347031717466567 7.090213016547231
Al 10.155035142682165 11.675367704429759 13.384245866377492
Al 7.626909920108634 12.071416593562864 9.079159473379162
Al 8.22850787303981 9.913088911341555 14.237339967921844
Al 14.775835278402484 12.203449279355793 13.246340944725903
Al 9.962966542475417 12.381207006491167 10.782126787830421
Al 14.638745081294841 13.084346220435966 7.872217854450861
Al 9.970351023215375 10.734682280575269 8.565296657300548
Al 7.422582635018793 11.151814379539397 11.908252976402494
Al 12.790758208607476 9.7016067810837 15.663969758004436
Al 12.238468886813942 11.754042165202211 7.681924556165002
Al 14.418141701806755 12.584307726196057 10.579789761957183
Al 15.202185004060903 9.662952048730753 14.104482280543369
Al 12.780099685255754 10.3495675867098 12.927821928472024
Al 12.177988947952588 10.685408002471554 10.333885930632125
Al 10.724982145691659 8.800937154056802 14.060648029014098
Al 7.791177482242647 9.469514442729901 9.702690714265382
Al 9.698606157992662 9.676156896437503 11.669234554162
Al 15.286888181359672 10.221232466044404 11.421985618043125
Al 13.187951427254344 7.659680212955241 14.01580173576637
Al 14.600070852856012 10.576399911810709 8.645656849696028
Al 12.316568740548366 9.13724707593537 7.967479390076102
Al 14.130590422007092 8.287280802580497 9.923194423593815
Al 10.145362681547535 8.206841661356082 9.465157706039816
Al 11.972716623033227 8.131851100374565 11.577092725437687
Al 15.255196718612666 7.649849368768607 12.301002583696967
Al 12.247766341141299 6.617440746837361 9.145134222626181
