41
Energy = -129.92186904 eV
Al 10.45446010669215 14.212962413374386 8.38829107556939
Al 14.853340030504713 12.390123600703282 8.407574710680015
Al 15.627547142465186 14.843066216898277 9.392445987366884
Al 17.48816516444773 12.959909607487491 9.185158004687118
Al 12.30049631607382 11.996015762240868 8.062451840550217
Al 13.07621030141755 14.544047908519419 8.792125488153793
Al 9.539163320148443 11.680635816519366 7.856117708785154
Al 8.899456447658125 14.78658931299595 10.499684960508251
Al 13.786290890542489 10.021812882549272 9.547435979956527
Al 11.245559758635162 9.74600840082481 9.06070145282567
Al 13.330202391944182 12.57752078316319 10.781337855956181
Al 16.343605208403602 10.796549114568512 10.0634337954294
Al 14.178326424569832 15.188737613151313 11.532384463685341
Al 8.6941584313656 9.887927411285176 9.739821748092178
Al 16.07027722176236 13.094597041214566 11.543687412732929
Al 10.456919289743022 12.240886489684781 10.431979643602425
Al 11.539158108880049 14.788783767517856 10.99692698652215
Al 7.715633491041132 12.52552400231815 9.838626794422073
Al 13.284751444493503 7.995828971686992 11.761905647482491
Al 9.88398374140096 15.288238012969176 13.049016786733768
Al 15.66152598329667 8.444314363485075 10.867052977957172
Al 12.54040091779869 15.286981708190362 13.558466315560164
Al 12.023104460867843 10.40238459475708 11.721212288438053
Al 8.635844530682352 12.96140817612348 12.505530266972634
Al 11.393853849925517 12.778489966686678 13.013586283762335
Al 14.803510529939699 10.647459629130292 12.274012907405904
Al 10.527433768829944 8.14508350260012 11.079135120435806
Al 14.342948298346837 13.171722534981694 13.48390792219576
Al 9.575157939101866 10.218856786393534 12.742310120252048
Al 7.070166593621678 10.907428454103117 11.86503247605841
Al 7.758722103496136 8.376130544040397 11.640289900655638
Al 11.658914724505058 6.305891285477327 12.815689167122523
Al 11.110968401555047 15.635990141825628 15.77204677797551
Al 13.176386590284975 10.902465855083099 14.27864768839174
Al 9.629058405770735 13.52893510077252 15.07035933670307
Al 12.477173448028992 13.261300184198868 15.588907744701416
Al 11.622795083324318 8.764218459006718 14.000276613870506
Al 10.827111772624205 11.05471849715364 15.486032091367909
Al 8.098537094163786 11.43391336658816 14.67401380562653
Al 9.290867225936127 7.269279948234608 13.452254191845578
Al 9.158614196283 9.088062922068344 15.330928809532105
