48
Energy = -153.10901853 eV
Al 9.677819508635856 7.990344692166533 13.775519377808303
Al 11.591400514346681 9.118559014868268 15.44269084063935
Al 8.933435042065813 13.23562013496586 15.664612509850322
Al 9.348413738768059 10.524539682445933 14.75060650832698
Al 14.725609097646878 9.170967228636533 14.692542301760012
Al 7.301230411121532 12.165994177734266 13.897392079146902
Al 11.166471006210005 11.868398797484037 16.27223531638669
Al 10.794105885375947 6.3157561070559565 11.988420778350322
Al 9.105122124228732 8.101873769991876 10.919152959619217
Al 7.780669849685893 9.67278499671219 12.70560341832992
Al 10.55125515864546 15.169722045147592 14.75347073627914
Al 12.57165203637646 8.15956047758215 13.082489345294569
Al 10.63441907407256 10.137825720753893 12.344903114254263
Al 8.447748723448914 14.622739323428434 13.202216698371195
Al 13.531716638577079 10.668421756953187 16.6358695160548
Al 10.556915768188528 12.6843610398754 13.509460978168692
Al 6.148395262665667 13.947985506122087 11.921317560633629
Al 12.771057289696937 11.100382334814016 14.019801872870366
Al 14.59693853505761 8.118536393901023 9.570976118176748
Al 15.10953816417772 12.353497531502546 15.25113209952763
Al 11.931672778719708 8.179046446058072 10.42898794213632
Al 15.226899336333847 8.605445069164631 12.149158794578469
Al 7.56320036081351 10.129748109974708 9.89437087121564
Al 5.81876496340251 11.247607052843254 11.739530704820995
Al 8.504477763847754 12.18909482224726 11.53234156137555
Al 15.625671016530264 11.226518115488487 12.920433673564172
Al 13.197149682414205 10.481571085380526 11.48933519291464
Al 6.318463849037624 12.673011529751967 9.509186649332554
Al 10.31582122485092 10.287382379610195 9.66864357540926
Al 15.647614982196961 10.582902536860491 10.291239811623381
Al 12.806054520933884 13.756481175157845 15.079767650240846
Al 12.925751579172807 10.144429582485996 8.757772892842365
Al 11.167149309043308 12.553658873677684 10.912159962030145
Al 11.115111380608248 14.999498951735983 12.155379443023211
Al 8.936322890066057 12.50641179654512 8.874321012536905
Al 8.297470898429198 14.662819849372223 10.399468218760084
Al 13.540445852886915 13.15949660022461 12.549109319770448
Al 15.355255089820316 9.795156662548626 7.645179440979993
Al 13.699984238443884 12.595573472199021 9.745399775758786
Al 16.00544909576482 13.193943486949028 11.122170984508685
Al 11.418981949803515 12.291042324517905 8.097887873007416
Al 10.718563940111036 14.759132964084465 9.377647833067044
Al 13.4103363191428 15.13315611163802 10.764398858774637
Al 16.085601876570955 12.40774864340485 8.420559238845671
Al 13.79699986778004 11.931496840885961 6.844461431574086
Al 12.983416234315316 14.631433792951253 7.994604094280852
Al 15.565188894226607 15.040798499760971 9.171193507232635
Al 15.206557448867924 14.235813665466514 6.593166729075423
