47
Energy = -149.61084714 eV
Al 15.9539269464756 10.381061941173442 10.569696777001788
Al 15.596637889931786 11.746206634159714 7.882727945887044
Al 11.686348690723479 15.621265871789834 9.368345805369131
Al 13.868374035424393 13.903907668297517 8.444228977846649
Al 13.846768794786744 16.708695188232607 8.212568605306412
Al 15.015149724250962 9.12635145582857 8.433142458522745
Al 13.463292232955755 8.847838486168037 10.890742272229444
Al 12.467154738322561 8.67075216347835 8.276884288874767
Al 15.670873743153765 12.982880118961415 10.313674043867818
Al 10.650951833203868 10.646507254079335 8.342285491179332
Al 11.469553821148999 12.96859958272971 9.572506854408473
Al 15.49500902518514 15.627763707549795 10.038665734089232
Al 13.327158734599037 17.13838563082045 10.933047861659018
Al 13.807439687505777 11.342258692198563 12.036298151521
Al 10.673381925572906 8.124649636778678 10.134410169798274
Al 14.007788028371305 13.395335111921533 13.805176026165729
Al 11.340449935226575 8.197038846704833 12.73699457583432
Al 16.038440951847864 14.809073962553033 12.490913560361285
Al 8.986761627513477 12.092133175495734 9.974702744224768
Al 11.242871022315702 16.09197784330046 12.188957438607728
Al 9.520775025940697 14.628441917432045 10.595234220462856
Al 13.367642104243295 14.28618159911785 11.212095983524318
Al 13.386085882563112 11.162044891804653 9.298922947207826
Al 7.374962090908796 13.567657188488123 11.704902882951274
Al 13.824734342460017 16.07360375536448 13.329131134745694
Al 7.026586597406055 10.76558917016233 11.239450230338013
Al 16.425372258004387 9.382675565149864 13.010048724122836
Al 16.417357110458543 12.146589522748547 12.795862354606504
Al 8.412267286823583 9.504148837822434 9.333294190704574
Al 11.487056687502585 13.005966198246375 12.532655119476154
Al 12.76008827230365 12.547947725523796 16.064171879443972
Al 9.206591161392085 11.658386740892256 12.764828090798439
Al 5.493799442797389 12.09792101745559 13.010735316315857
Al 9.363669251393713 14.594898773716238 13.371472530426287
Al 11.805931012750905 14.733209914549107 14.680513710023432
Al 8.851379363220191 8.9636737929737 12.096212684902184
Al 12.043595866599336 10.742944628041377 14.118998511331062
Al 14.88126635984149 11.047224529279992 14.678219111494434
Al 11.233800069314546 10.639119002002273 11.14871351058295
Al 13.88385733500944 8.726641924929938 13.576524852298935
Al 7.262082288933918 10.239309766336069 13.998240801337397
Al 10.093231516041948 12.529769307507737 15.261369455060747
Al 7.591901303729525 13.005392510074769 14.525932840053132
Al 9.65260025329163 9.456118799173796 14.672369648393152
Al 11.007531261761535 10.539035930414538 16.86226877089296
Al 11.89564936607225 8.139181755594723 15.326554843435428
Al 13.5612678056458 9.833056967901731 16.584720577239715
