48
Energy = -152.7165175 eV
Al 14.993707148391023 13.455218882887952 10.468455204205087
Al 15.937543061028219 11.204785768006397 9.229059414981444
Al 11.380478333939081 14.089189282432047 7.629935059981024
Al 13.469273126845389 12.22340028318559 8.489377981952513
Al 15.829786302961262 13.863380008452081 13.072124474100203
Al 13.954256417655362 15.566220543576982 12.000050122090865
Al 16.153374754959724 11.435820222791627 11.993857293576966
Al 12.608347508487759 14.57327575115468 9.903579520466039
Al 14.567172249025283 13.661372632718246 15.367123547967532
Al 11.832585117834581 11.670383953567981 6.472791134342721
Al 15.866156822987346 8.95194145266507 10.961443820302316
Al 13.731677596714704 10.876909266385741 10.77540782081824
Al 14.43215558067127 8.841360311682761 8.774008618193216
Al 9.90478831234598 14.507999535150775 10.099039554568863
Al 8.830662445466082 13.131880200931096 7.937051533936557
Al 14.739377785497005 11.243931388724214 14.352874411372623
Al 10.818956379585975 12.068752856194935 9.48055586228259
Al 12.409677764828308 14.95615762669632 14.681583095164177
Al 13.233845931925467 13.061291170861507 12.704038241179076
Al 13.35714513855409 9.500212172408073 6.467385460517174
Al 11.218007914366728 15.233250902212042 12.326872643652198
Al 14.349525023010795 8.800034498883473 13.143913551925007
Al 12.302153296828518 10.631555094101081 12.911814514694376
Al 12.31248444514927 12.187107173190144 15.336556856515465
Al 12.742629097806676 9.44947094603891 15.305368061233809
Al 10.910644539227853 8.360772332532424 6.539580316629978
Al 12.794547058344962 8.283008771147658 10.967453927965545
Al 10.53767708601909 12.472423720272616 12.167449076427589
Al 9.50941496441137 10.621627812257438 7.080439029667652
Al 11.82627651178209 9.817309628951405 8.750185326134286
Al 10.076109019623946 10.728097880124881 14.50664351152181
Al 11.742547626929642 7.084627119009486 8.782989467943082
Al 10.100355184373642 13.647731788172965 14.760467793223862
Al 8.119128468555905 10.803667111773827 9.297568066016172
Al 11.48980600190199 8.099753078747685 13.34788464649857
Al 10.314666292512985 9.932087142946907 11.157412423718498
Al 9.24168828862272 8.344184703210338 8.63554756903211
Al 8.60220070985202 14.314923819696968 12.568757613675949
Al 7.548713931448083 13.209442315808932 10.32913899913261
Al 8.099908055986182 11.103677893699324 12.361210782015554
Al 10.149999353145068 7.1838514559287825 11.10129721481167
Al 7.561434588954744 9.968021030108172 14.930220267167078
Al 7.664302236870665 12.582051390228541 14.7421074756377
Al 7.74470186413982 8.596690288215695 10.77970067906629
Al 5.900641774887768 10.963404505152058 10.740768868383578
Al 8.845509593615938 8.424653376692937 13.237675480318137
Al 6.104503704970552 13.059615432007856 12.573935523028316
Al 6.091587575347884 9.18497879222689 12.809258550136281
