49
Energy = -156.33486319 eV
Al 8.909805293968395 7.249029038415785 13.745087619227347
Al 11.695631650175374 7.575136723790814 14.089974733682942
Al 8.35293165449682 7.332280970526325 10.986549152552644
Al 10.54456372578028 5.938287557493935 12.033571175347282
Al 7.94263587609376 9.602256805786038 12.770623714770364
Al 12.571458812349581 9.853990149124229 15.7731790675879
Al 9.973909380668896 9.620763053650611 14.563971870742936
Al 15.456387183594364 9.876992292037365 15.960179474260572
Al 10.494091347195859 8.751937875114576 11.832851067404436
Al 14.281882277873171 8.36561694152677 13.96817007620738
Al 11.120839973376663 7.09638682889532 9.638118330712887
Al 12.913816694171638 7.474696186647994 11.654585996258817
Al 12.537233724506065 10.142235029442478 12.936494399184028
Al 10.356188242780652 11.414897294834105 11.984285433952534
Al 8.932499210978591 12.14976541558137 14.329471396954581
Al 8.680151352510897 10.080044753186963 10.175376741454215
Al 14.28525871790841 11.891184568753085 14.668526135063756
Al 11.62831067531133 12.177591142592933 14.607649430639656
Al 11.298573774536319 9.319795430657036 8.01839609256541
Al 16.14692514551619 10.388998503620462 13.288441637981997
Al 7.501618450025909 11.990206131486131 11.77973487449538
Al 8.946069875295493 8.043665021911092 8.401827638363159
Al 12.632652089727921 10.33597382480162 10.248355940339948
Al 13.58277023559741 8.029032475114969 8.96142174409329
Al 14.858267545889012 9.14004926708632 11.243181200289253
Al 10.220849589102054 11.195238084582199 16.70686090317348
Al 7.6605921327991995 12.37365668587588 8.91243647248805
Al 10.62474362878103 11.703159203238258 9.164254298252054
Al 6.62563279868785 14.177017942389991 10.583550323806314
Al 8.73519732204348 10.462360862282372 7.386494551784045
Al 14.337887818962217 11.957732727956387 11.9461517330136
Al 8.08675954839892 14.435263050532246 13.018535041713852
Al 12.302059166799497 13.28069920960229 10.841390403361473
Al 13.40323154295983 14.033623686428003 13.422254903785365
Al 10.764481800128024 14.08089161073092 13.029800846372698
Al 15.452065623034239 9.970895097095044 8.607092639396601
Al 13.331673878544755 10.97914719307514 7.423493912076193
Al 10.944939282008542 11.71101849479113 6.383648700438929
Al 9.421955426901757 13.722734762268788 10.622649058838137
Al 16.61114653612313 11.179178759424248 10.728989467829114
Al 8.566534723343128 15.8581213029013 9.226967702349134
Al 9.631149272942237 13.813179410511934 7.707766154672791
Al 7.289805915656451 16.60995822691069 11.561571258992775
Al 13.91344288349763 15.248114327920842 9.465024354108994
Al 9.958776500827849 16.250968522598175 11.657508068472858
Al 12.418846562422313 13.50522510808247 7.934474685389707
Al 12.623370837971624 15.936705546050465 11.7238210800145
Al 14.608677003113586 12.57730573115607 9.371482725677183
Al 11.232089092229133 15.502968694359232 9.317834039927494
