44
Energy = -139.65771229 eV
Al 9.76332148382627 14.578744320548454 12.037225323273152
Al 11.490202294719818 15.561906126029104 14.050607073571038
Al 12.711941407563176 15.170364674341668 8.892090580003309
Al 9.811079112612921 15.387633794694906 9.23113754071523
Al 13.582493277060935 16.77237634487878 12.724952434065791
Al 14.721014708658636 15.582297649121545 10.6164833741294
Al 10.926179626637477 13.673169914580406 7.403545528792492
Al 11.547229712165896 16.4736542186305 11.027784155669647
Al 8.125200934427564 12.486972397751378 12.672271339428441
Al 8.316301595925033 13.276185585620452 9.989341307930726
Al 13.725906798030662 13.348034706631065 7.04709815442806
Al 9.696426473291368 13.633068038807883 14.680450240107753
Al 12.519699213929849 13.345564291498425 15.218564272929362
Al 13.972626394491483 12.922713156801047 9.730815892676656
Al 11.081741217433203 12.25265368368082 12.815467581113076
Al 6.845501560105341 11.157342068404573 10.697803539319425
Al 11.09801031079084 12.984873868381689 10.064363795334883
Al 14.590793985488936 14.587908778329211 13.93058994862676
Al 9.414731239617002 11.460750978545867 8.07429629339917
Al 12.25078086325209 11.309113041714207 8.059878704503243
Al 15.694771734275298 13.342738574221586 11.782297743540036
Al 7.812976135802962 9.586332862462921 12.589227001957397
Al 13.839129859624913 11.986336975305557 13.107522664132603
Al 8.107198932257537 9.266754053437332 9.078058313463178
Al 9.29892183461781 10.916288807501978 14.48070654214013
Al 9.556741753988167 10.829415946374917 10.8138759019227
Al 10.70917161969049 11.990207286198393 16.714211957842288
Al 12.755671307883594 14.161445816854304 11.889282422835853
Al 12.451697184732465 10.765866866501728 10.829947054939185
Al 15.090953031792418 11.25030843553464 7.966073317687686
Al 13.673832003710132 9.14918098509703 8.902824479249592
Al 10.836987676671253 9.455197003137403 12.734924174900167
Al 12.31181519247657 10.707562982617286 14.832244163920187
Al 10.850081397845655 9.236740630019026 8.881700938643565
Al 15.264698089506288 10.760086351108745 10.893221146371648
Al 9.266256549455838 7.831181608714278 11.02351774666635
Al 9.107783541462595 7.963210746975668 14.319788089726853
Al 10.510610099828309 9.334262487604526 16.287387032209363
Al 13.709216607246708 9.366439044206826 12.866055203168068
Al 12.204398325098785 7.971628429980589 10.869965220470773
Al 15.071457032838165 8.007100044579413 10.938852009744082
Al 10.838488253762314 6.5481005980640665 12.719745442677693
Al 12.179866897854941 7.974897402768533 14.669058266701988
Al 13.650634480944696 6.617930175138849 12.829287838467252
