48
Energy = -153.58805749 eV
Al 15.536117662548852 9.410419451959108 11.493825505184022
Al 16.096314738276067 11.787307038887283 10.113519106846041
Al 15.54480508445704 11.894837836726685 12.850501190280823
Al 13.994750029419611 7.881374963743519 9.884702168198237
Al 13.299824008881657 7.674851392097393 12.475288662504713
Al 14.22528950537275 9.742328902907486 13.984535178261618
Al 15.954258800984327 14.163642721309559 11.367588035220392
Al 12.108869186079547 8.154294001128665 14.936160675831628
Al 14.647861658908582 10.157114985601682 8.560080337838615
Al 12.935273173032238 10.082588953895598 11.076805369987714
Al 13.684222627454918 12.815119417499577 10.906931728490385
Al 10.820281255366767 6.673480644874618 12.964452649574946
Al 11.305956183510105 7.589086206186158 10.478317724873328
Al 14.117025131551113 14.237005459868412 13.476269599493651
Al 12.962167968309126 11.139995482541519 6.549509855153611
Al 12.27884799180553 11.66892857329656 9.020722411390073
Al 12.16565476499151 8.945053967365654 8.119329673572745
Al 14.518343371500794 13.081685775442779 8.137360725523246
Al 10.708530507695963 9.418710183590555 12.974341461982492
Al 13.706072526993882 15.733752631924018 11.174304769254775
Al 9.961438796974914 6.5644812978072 15.614289413438826
Al 12.399146618530368 11.769791711854317 13.060335759037683
Al 11.898415952575771 10.820277670019605 15.576022300489003
Al 14.129371942848158 12.181806216212713 15.220924492586219
Al 9.679986584838547 9.362624519229978 15.597055113761053
Al 12.015385313001811 15.988935814998753 13.515556793473015
Al 10.343563131161035 10.283168762829666 10.264407528731626
Al 12.404513307105095 14.638264009155646 9.056113828187996
Al 8.459498249447027 7.73906664224058 13.743273756082422
Al 11.839061921709282 13.663331206266125 15.064858640350561
Al 9.510631737081056 8.341516946417888 8.562463284070853
Al 11.236709067937197 13.321558996965264 7.026376292753884
Al 11.48153754957483 13.997611293216336 11.875975720238396
Al 10.069613238686175 12.88953282345968 9.790979565485458
Al 9.455778015803498 12.187251432007601 15.073765388783956
Al 10.270417605977004 10.709026156974216 7.23372898333115
Al 9.7310242923476 12.03063991391777 12.289514322791172
Al 8.566076244088247 8.374576124612998 11.176679724588695
Al 11.064185569149398 16.45363797789029 10.82583983723861
Al 7.973090814601597 10.349748166183694 13.721962599796809
Al 7.950408517432397 10.546592647563124 8.729512150611729
Al 9.647541688259814 15.281569704611153 8.655608457019172
Al 9.589051563549084 14.68694988722922 13.914377318872127
Al 8.55914106937235 12.92450315636514 7.586860251578561
Al 8.729142247013185 14.996675198248226 11.410830919949714
Al 7.388308230676509 13.035077310070896 13.107797626862874
Al 7.216089380917214 10.877272272232245 11.251464557611254
Al 7.324603280406084 13.237131658778445 10.013076651020228
