49
Energy = -155.97419508 eV
Al 11.411942271628025 9.76557132421703 15.711039424303827
Al 11.488488104268818 12.458085408672728 15.751338634793601
Al 9.76181365076264 14.025241149105524 14.455991379913913
Al 9.260137841293387 11.211319340541314 14.58320695462851
Al 13.351019911269358 10.916259194208065 17.113298010225325
Al 7.6391678344966225 13.012951544872474 13.188286505704387
Al 11.031058142709236 15.898141868959636 13.040298536014705
Al 7.018400949892908 9.694016660712409 13.94481467556467
Al 8.94302671849527 14.852243002783293 11.669627647039178
Al 14.158287092639354 12.527211009926122 15.132733475156542
Al 6.615462719804882 11.119570345575793 11.577467582450263
Al 12.410443529428438 7.934732425583085 13.880147346651766
Al 9.612059042607301 8.464775190113674 14.421217553809196
Al 12.325583916726357 13.386833711646748 13.291120864088333
Al 11.723453241519133 10.558053021195608 13.076679724193758
Al 10.025218965466019 12.309747315191583 11.980216476044241
Al 7.86050825952814 12.931207667945701 10.160000432649955
Al 10.665395472680546 16.47388210558829 10.337321337021999
Al 14.067977124007744 9.822008475198613 14.634423788653594
Al 9.003524056353394 9.714490249927312 12.119599169304786
Al 13.513321927289882 15.728435959767856 12.103606111805545
Al 6.702782475002036 8.597898513315938 10.969486844066537
Al 11.717223031681874 13.96807664406063 10.73183958074842
Al 8.028744619290379 7.148229868086381 12.712935667227498
Al 13.013039032346295 11.506773967875084 10.041755076769828
Al 10.666379631266162 7.223051898440289 12.0885419638575
Al 13.521868025248128 8.832231378218996 11.524583388255808
Al 15.20327640228173 13.981901779145598 13.11862908933579
Al 11.112345426429025 9.737402641090199 10.53417759927435
Al 16.555689840778264 11.77334608415079 14.010895479235579
Al 14.200365974065576 11.557919931806728 12.393156639024978
Al 8.398402527058748 10.298937077726594 9.37916845774754
Al 13.176338507990417 16.004820153886474 9.469162732118571
Al 9.645671073820333 14.558433779458722 8.835879662064404
Al 8.250438054717762 12.524481198134424 7.53415828314434
Al 14.550757555552014 13.775390119122237 10.373362687124507
Al 9.117772185313797 7.717337900758835 9.955226310711167
Al 15.97016115668423 9.502564938672213 12.612586523839141
Al 11.922801154132742 7.220996439755007 9.639615196796937
Al 10.511985878744378 11.940410669109273 9.079747573573586
Al 13.571709422508833 9.092809333826951 8.623638268564896
Al 16.642966195283762 12.351052992713937 11.336766195298361
Al 15.582016212011707 10.083650629161374 10.095051421487149
Al 10.648045605155573 8.951050316296078 8.008152674813742
Al 14.938519184578457 11.699202302232505 8.069995801624655
Al 12.96454042193711 13.681574376300913 8.16723812242958
Al 9.84519963895417 10.727723049654111 6.2293142465084745
Al 10.815824388532375 13.255138339114398 6.699002256060291
Al 12.423473456897835 11.04695020755908 7.172216383134672
