44
Energy = -141.02314569 eV
Al 13.426861736984119 8.804693481824772 9.769489213858252
Al 11.053984353436277 12.898243086099173 8.218286331850832
Al 6.5138689277608455 11.88027275111228 9.867280370731399
Al 13.268150693349996 15.935681113865162 11.161800546714927
Al 13.458643654248906 11.258374816838971 13.86537681240419
Al 8.95445732763314 8.69326577189208 9.875339402198762
Al 6.59865267298026 9.42645948266642 11.256115936127461
Al 8.82794884242208 15.825253041822203 11.259249154333359
Al 11.178821934916497 7.939306351657712 8.43925329012376
Al 11.03372972176971 15.130260152277474 9.738707572924213
Al 8.909647296835196 13.446258989624772 12.67166952461674
Al 13.35279727703228 8.89760891928354 7.0046698542677035
Al 11.28011849441327 10.414977167109507 15.313703993516462
Al 11.12509302351012 12.731985617074505 11.17753704178966
Al 9.016024727775351 8.672035616630259 12.513274967340696
Al 8.867762189371911 11.199291264095933 8.460326664551172
Al 6.5880049252540225 14.196187589355539 11.294377283378362
Al 11.19174678622482 12.842598497378953 14.139775918766576
Al 15.804813580454837 9.652567883702847 11.038469083473258
Al 13.303334235652077 13.584036145097587 9.699444501906978
Al 15.773692123852287 12.081449422937828 12.473254412403884
Al 11.214665308766463 10.358882061097065 12.517898091823152
Al 8.883630977718779 11.102838553794939 11.215219833348513
Al 13.442024034129057 11.215742154339306 11.109367363117387
Al 11.100077632708292 15.101766793360838 12.667187473941151
Al 11.245714326241165 7.745785684825226 11.133212675118976
Al 8.84378608528325 13.471565578753191 9.799736342573171
Al 6.578888442560044 11.857973614842825 12.685803221272645
Al 13.548776841550724 8.824590334986636 15.174223134446418
Al 13.36907109180198 13.555333179612703 12.571020068411146
Al 11.150341709399568 10.381891970955088 9.791417714159438
Al 13.48934710774017 8.780917699140723 12.406402465552281
Al 15.58638369514601 14.418914731887899 11.093233045914483
Al 11.084168602939846 10.489393021308503 6.998318873185048
Al 13.328172963121409 11.311316583203666 8.358162105051731
Al 8.996381043269626 11.151536981071434 13.968969323671702
Al 8.89730153300879 8.786567643283194 7.108451939835058
Al 6.63437660471787 9.511691558094581 8.536202453518133
Al 15.641721368786568 9.737486736815454 8.324767554385563
Al 15.707712321914638 12.10999809755512 9.65524486476905
Al 11.30528822952208 7.896475665946993 13.83091425472015
Al 15.772642126964929 9.684418653275428 13.758262961630905
Al 6.759271772936863 9.46922911704262 13.972443136610435
Al 9.086871653893363 8.719646422459162 15.280909225664459
