42
Energy = -132.21179623 eV
Al 12.61719794433578 14.665426264465808 8.502865865549172
Al 12.914175895425013 11.8323273560548 7.325467264377435
Al 15.077879641063467 15.226011034937391 9.595293473901231
Al 7.571932248970344 11.958335738292508 8.364405972565097
Al 10.495923008922622 13.098015319563748 7.891197497612953
Al 8.891546380853997 9.595174295329455 8.160254101561893
Al 12.747746868885866 15.353003722403809 11.329436673422705
Al 10.323259639061085 14.334537056127134 10.321411967162646
Al 14.965983563273921 12.41298835266204 8.984779347032312
Al 15.596076534113314 15.399416488871768 12.227324590463693
Al 13.939575735257243 10.038920828221606 9.56478891077634
Al 7.743632390755422 12.664605634167449 11.050793663100887
Al 16.881112151964746 13.329030592043026 10.677032406820146
Al 12.32774839444134 12.35265877462288 9.920817785002358
Al 7.443790766945741 9.90750899571338 10.431631427661507
Al 14.251538209957133 13.160798060591715 11.505822488923092
Al 11.482104061480268 9.840906104573932 8.601897139674962
Al 8.819978570108013 14.67531026230108 12.518545495147547
Al 9.82681761746326 11.466654658345927 9.989186453355886
Al 9.913874930287541 8.565560140190355 10.556372768536267
Al 15.87971746541862 10.93585305009174 11.454545797854282
Al 11.2956284226629 12.69344012022787 12.408249378426838
Al 9.35906675751853 10.66272642602111 12.423131674548285
Al 16.334244880863807 12.886295069524392 13.307735514561596
Al 11.95064986285247 10.141119545685786 11.61596525900685
Al 14.406286131262032 8.858233598446141 11.984651208716183
Al 12.561878906799144 7.802362705092743 10.338907894375621
Al 13.799886487773469 14.410526152045776 13.926178825625062
Al 11.172765175171339 15.185477770395403 13.490511221620359
Al 6.741947672909794 10.81893970919717 12.918427627173399
Al 6.8045509333211935 13.398353273661682 13.56229809035605
Al 13.528748294039529 11.45594590714878 13.418927536686896
Al 7.85535088441365 8.208065282289025 12.607408308949193
Al 10.51670981410027 8.251623993961228 13.199603010743639
Al 15.620359345332583 9.981476837278423 14.343978396482928
Al 9.24517182005603 12.615654081362115 14.405506584401069
Al 15.039264453565982 12.494784091562146 15.599597686177162
Al 8.456677251787923 9.775319179081144 14.81306044432299
Al 12.94140727446587 8.758824965607701 14.176892229020897
Al 11.890676921783552 13.022257063913345 15.21305665209175
Al 10.96949546453841 10.578647557974104 14.636242882912548
Al 13.249628449029508 10.640237836003609 16.053831367476477
