49
Energy = -156.58495548 eV
Al 8.759116417576 14.33145872732573 13.873681111306777
Al 12.168318952747708 7.756014240948364 14.080112112324452
Al 10.748068415226028 10.332012074724373 13.452862960330881
Al 10.017655961854809 8.726257927375658 15.493285193263427
Al 10.799785253180843 15.547036575377641 12.598512637055098
Al 10.135062231585122 9.973983887477125 10.81252072601785
Al 10.362549308254604 7.534085774653146 12.119512820870746
Al 8.067120133885924 8.12116225963181 10.764126962406575
Al 8.236283826350048 11.620689992270934 14.193392858994237
Al 8.346557050850715 9.041351492243683 13.358875496389604
Al 7.458919658723806 10.751049527910643 11.457756902157533
Al 9.658946427273392 12.431249627258449 11.888473535687577
Al 11.234074895520328 13.826636510472524 10.126543772962833
Al 6.929279948118642 13.20482795005367 12.237888669770808
Al 8.184865997167728 12.615470723981382 9.570314665359168
Al 10.958860052883528 9.14078487223183 8.134106863259914
Al 8.37162346123913 9.957465815195844 8.801035353483885
Al 9.604946174027855 14.525216635562503 8.088196976686525
Al 10.287334261169713 16.652412755743715 9.949865060272176
Al 8.693666017748688 14.835614565282858 10.993545583612354
Al 12.19962377396314 15.746517771722987 8.195392727010118
Al 10.18088779259064 11.792672956303342 7.724937087821206
Al 12.144038231514484 11.267791493649089 9.553395073783651
Al 12.811663200374676 10.58564484761401 6.897670934288968
Al 11.09835753490668 12.961597987542113 13.971154564355551
Al 10.235781257675997 11.459680698152134 16.123360682726165
Al 10.441089392951808 14.227547613572915 16.221309893870853
Al 12.821628965983486 16.06724262396673 10.861414263491003
Al 14.74887116460234 11.681670340642366 8.430144655817054
Al 14.174120884644394 14.079989446169478 9.574735975966473
Al 13.027393014029037 13.725910803590365 12.219709348199132
Al 14.929114671926792 13.57794613296829 14.369622772125922
Al 15.845973443995687 13.739447190419572 11.7092704839024
Al 12.776885653737693 12.713802255406074 16.13233592832347
Al 12.57940554322435 15.167410503013594 14.655772522776013
Al 16.122457493834983 11.237221398518072 13.070683109146756
Al 14.57690281740387 15.860039535049003 12.934159774182202
Al 13.228530402325816 11.411190265286319 13.53342832490201
Al 13.89311956030439 9.10046455057928 9.06468333006455
Al 14.222513335591927 11.560468672360352 11.075254092218447
Al 14.993904479394216 11.05982401836405 15.592496228785759
Al 15.575443647764489 9.110677478192565 11.277845094981508
Al 16.777219621517112 11.398296312651125 10.368086236408475
Al 12.665540133008465 9.456467072055233 11.694890029752463
Al 14.607437331328686 8.930944193267425 13.889753120171298
Al 11.91596964591786 7.462954190546944 9.947537448979677
Al 13.813347797374936 7.054416344947841 11.963530236790126
Al 12.466509623478165 13.198928467109155 7.6131325187273795
Al 12.529533062047797 9.864750874882978 15.765981278219282
