42
Energy = -131.93219118 eV
Al 7.067084245876044 7.1223959314999705 12.028857329154768
Al 6.93558789514669 9.761488614983081 13.210026297325529
Al 8.515902601916084 7.836675513791521 14.274273658923558
Al 6.8466257139045705 9.471091119174002 10.504836342367572
Al 8.513263336519591 7.403845448875645 9.524974799435169
Al 9.589870917970705 6.061273416869483 11.937326981358373
Al 6.251952001674611 12.03783425090016 11.64798320824188
Al 8.213371936190823 12.952846363849567 13.352496089296471
Al 9.340857907680707 8.71638834277323 11.744149614386815
Al 8.672619439911482 9.966186269412171 8.52454025351614
Al 9.41805416465312 10.587612370188848 14.105225981498291
Al 11.00411953350134 6.107576767171206 9.313296147373181
Al 11.096929291778883 8.424258480708795 13.95761950044066
Al 9.839265949563218 7.9484048601673924 7.238002215498298
Al 10.048446498986866 12.127929787702499 9.258462856682309
Al 11.25510215459698 8.881070410860971 9.39682002504289
Al 8.816720481452837 11.226036346957246 11.359679847885074
Al 8.770072124982788 14.077225996187845 10.922778486643638
Al 12.022945914389549 7.442197697729316 11.629043524164123
Al 7.342803097331658 12.321933834410698 9.184075831886133
Al 10.914109661901819 12.796402329336052 11.996070006618085
Al 10.303374577995218 13.027348440395205 15.18992717682439
Al 12.085438613926023 11.17475300764768 14.26314513664112
Al 13.653950806025343 9.12084824145208 13.213209580867849
Al 13.563011151550441 7.054653369526341 9.501000525634678
Al 12.331894718821887 6.987296169360088 7.083900542202815
Al 8.907897703338104 12.15671461469695 6.648906979649269
Al 8.977413720267315 14.473908181835407 8.230057788224535
Al 11.311689988195193 14.46063706397199 9.694339788402905
Al 11.479668009433968 10.178358777922416 11.728896605608975
Al 12.550197119473689 11.588874180454573 9.489260030473089
Al 11.117458384353199 10.49888950824652 7.2199857442208195
Al 9.9452538990053 15.07854480989765 13.402064929147588
Al 14.094944812717106 9.491950755495582 10.538419497117324
Al 12.52025668099536 13.91250431752327 13.732652982551397
Al 11.544577295822988 13.216852130240948 7.2422064189003885
Al 13.65003000193682 11.66939637864802 12.124228076218866
Al 13.598728461581963 9.269094059811252 7.807081140214706
Al 13.9164506822504 14.140767035816816 8.42606674383978
Al 15.126938541930425 12.069820376521161 9.85700567564555
Al 13.550272820024768 14.093241544901833 11.148467320688544
Al 14.012937710260802 11.797683669073244 7.089409395052425
