44
Energy = -138.22470107 eV
Al 12.07675332 14.085413689657914 12.07675332
Al 12.07675332 17.75178844524301 12.07675332
Al 14.105522245602678 14.105522245602678 14.105522245602678
Al 12.07675332 16.018254323798093 14.113951220467632
Al 12.07675332 12.07675332 14.085413689657914
Al 12.07675332 10.068092950342086 12.07675332
Al 12.07675332 12.07675332 10.068092950342086
Al 14.085413689657914 12.07675332 12.07675332
Al 10.068092950342086 12.07675332 12.07675332
Al 12.07675332 12.07675332 17.75178844524301
Al 12.07675332 6.401718194756816 12.07675332
Al 12.07675332 12.07675332 6.401718194756816
Al 17.75178844524301 12.07675332 12.07675332
Al 6.401718194756816 12.07675332 12.07675332
Al 14.105522245602678 10.047984394397321 14.105522245602678
Al 14.105522245602678 10.047984394397321 10.047984394397321
Al 14.105522245602678 14.105522245602678 10.047984394397321
Al 10.047984394397321 14.105522245602678 10.047984394397321
Al 10.047984394397321 14.105522245602678 14.105522245602678
Al 10.047984394397321 10.047984394397321 14.105522245602678
Al 10.047984394397321 10.047984394397321 10.047984394397321
Al 12.07675332 10.03955541953237 16.018254323798093
Al 12.07675332 8.135252316201907 10.03955541953237
Al 12.07675332 14.113951220467632 8.135252316201907
Al 14.113951220467632 12.07675332 16.018254323798093
Al 16.018254323798093 12.07675332 10.03955541953237
Al 10.03955541953237 12.07675332 8.135252316201907
Al 8.135252316201907 12.07675332 14.113951220467632
Al 14.113951220467632 8.135252316201907 12.07675332
Al 16.018254323798093 14.113951220467632 12.07675332
Al 10.03955541953237 16.018254323798093 12.07675332
Al 8.135252316201907 10.03955541953237 12.07675332
Al 14.113951220467632 12.07675332 8.135252316201907
Al 16.018254323798093 12.07675332 14.113951220467632
Al 10.03955541953237 12.07675332 16.018254323798093
Al 8.135252316201907 12.07675332 10.03955541953237
Al 14.113951220467632 16.018254323798093 12.07675332
Al 16.018254323798093 10.03955541953237 12.07675332
Al 10.03955541953237 8.135252316201907 12.07675332
Al 8.135252316201907 14.113951220467632 12.07675332
Al 12.07675332 14.113951220467632 16.018254323798093
Al 12.07675332 16.018254323798093 10.03955541953237
Al 12.07675332 10.03955541953237 8.135252316201907
Al 12.07675332 8.135252316201907 14.113951220467632
