46
Energy = -145.11770718 eV
Al 6.328794804275771 11.556377679369087 9.933800466518106
Al 10.105587779227834 10.104841910665165 6.23997324776622
Al 10.956516156500472 7.778069534780747 7.244571898016365
Al 8.413549834747144 10.430124449514478 8.166939635587848
Al 6.494681940177128 10.054723611086231 12.241885406642922
Al 6.783556883394472 8.864499570446538 9.632068577267647
Al 7.601965337968589 12.633375207433875 12.111329955459482
Al 10.496032945618573 12.421341950276153 7.592979196545379
Al 8.5744533759759 12.975287976045816 9.422577929732377
Al 9.489572355363597 8.069315412451056 9.435908844782324
Al 13.488773749992182 8.499532324467072 7.360901073441589
Al 12.61107934765005 10.981341942858009 6.198567431254264
Al 8.854262174913059 10.423622540929216 10.819360902220001
Al 12.436684940093466 7.729197021410938 9.822934190961176
Al 11.205447134818597 14.530085476932074 9.141360314519476
Al 11.440089582151462 10.062691264722877 8.692536950780056
Al 7.1913234454427 8.438570767102112 14.342509186810275
Al 8.054466149204474 11.054688693304355 14.50576954620744
Al 7.9392233154926455 7.663212912836799 11.731583015927187
Al 9.73098337564625 14.280200243879223 11.506303196111544
Al 11.164185266979251 12.167967092669697 10.360596992347016
Al 13.149462791045536 12.398026687925755 8.397155480187886
Al 12.060666350612077 16.204363549348844 11.11224994014152
Al 10.654784756271201 7.068881015754625 11.69030183669109
Al 9.506592988995632 9.262910610959732 13.173598102023385
Al 10.723743785870393 15.656056934175457 13.615870583055779
Al 13.885551831869973 14.368089473522092 10.084645630016851
Al 14.450768575188704 9.861016954177916 9.396116907674347
Al 10.249304146175989 11.842255815528043 12.838883030303853
Al 11.505891964283952 9.756637554178686 11.395731696808266
Al 12.37074030501941 13.738598800575652 12.365077825502368
Al 9.4179268034028 6.73804754060868 14.042089660367427
Al 8.888006079591692 13.780117748762502 14.189584618398433
Al 15.667262675961457 12.490565712605065 9.202457648212683
Al 13.784284282470612 11.716068249773407 11.25300942326529
Al 13.149307567732464 15.380364014485162 14.666097861939026
Al 10.691177575404314 10.593180755356794 15.301858309566258
Al 14.46933381375205 15.642397096351907 12.381086527779896
Al 11.96920036976724 8.292515208018946 13.853659523712594
Al 12.837274567764933 10.979009370539744 13.740796062539532
Al 14.063307128016602 9.049296825559123 12.087629437656535
Al 11.606405758756328 13.136358808103886 14.988101960640503
Al 15.881889607077825 13.332606905444312 11.808641582471703
Al 16.470227430149595 10.646711554385895 11.042971090888372
Al 14.397908757013441 13.158330986751434 14.148561321108227
Al 15.569540904751705 10.940613880381743 13.471832883510986
