40
Energy = -126.43743947 eV
Al 15.071829044485368 9.504369294193568 8.19556897830008
Al 15.82102750413405 8.170592242450214 10.334272565052453
Al 12.550223993121822 9.996848880360798 7.54103296979188
Al 12.16468385423707 12.569636681012819 6.6222048930645245
Al 14.239080278647453 12.090580158074404 8.433227354631672
Al 15.0187821479242 10.741220003228054 10.698640045951858
Al 13.180793728696838 8.592590395668687 10.003639446782616
Al 10.691647215891766 8.947405252420873 9.140323496223642
Al 15.781748589551508 9.336187854231024 12.93261723914302
Al 10.314172690557509 11.499693252603622 8.323987841189656
Al 12.2090891923159 13.703079100105933 9.158894809518662
Al 14.09423929136668 7.315238908975679 12.286067061014796
Al 12.274132031176334 11.131208314320492 10.249359621275934
Al 11.43598423448086 7.6756071596671 12.061885559004786
Al 14.234341604378942 13.314077199008198 10.91293672292788
Al 9.054719903796789 7.822139885930192 10.785276281742604
Al 8.533784470278428 10.426366316256525 9.894963067403289
Al 10.058766488390528 14.026363393878395 7.4601162650853725
Al 14.84849879972188 11.821819256697347 13.299813497325971
Al 12.98677964432506 9.86852806309646 12.606885382148793
Al 10.110259061608456 10.173561391945245 12.078100680719922
Al 7.238876005254604 9.263266598126213 12.053345543348193
Al 10.105357146476925 15.39296729292783 9.80501783802689
Al 6.106747002351037 11.202830994757479 10.699058100722059
Al 12.14518442937924 12.448720746129604 12.728398638491186
Al 14.013311094703122 14.444297994418715 13.307393160558474
Al 10.212362116418431 12.756566995728592 10.861375622082907
Al 8.081437282032958 13.106753089458426 9.193248285030545
Al 9.003221117415329 7.386055265122988 13.490774275463842
Al 12.080213090720616 14.98511405181769 11.586884718115552
Al 11.01663354650136 9.138085866924627 14.44502595136074
Al 12.636622757002085 11.168328007567807 15.085288750783565
Al 8.197774399845972 15.175736542210123 11.594674546972348
Al 14.33739814190498 13.219589453527572 15.705930258833199
Al 8.122502862179214 12.149192897462234 12.496284992830256
Al 10.046302575666425 11.900013484042661 14.561013532559897
Al 11.787608142104585 13.871717948671312 15.09426099625689
Al 6.179615750470869 13.687948836498194 11.010744310892482
Al 9.962638988839396 14.344943559827012 13.271955555508898
Al 8.38448798127364 9.96363557028368 14.322389343489773
