49
Energy = -155.81510931 eV
Al 8.505271749103052 12.449705551673112 7.9345789739261665
Al 9.41739689808024 15.00998602327029 7.964898892098642
Al 7.698594448252335 14.027818891940603 10.045901995375432
Al 6.542157935630284 11.541998815318175 9.789349247562066
Al 10.984405482482721 12.868808140195842 7.00002433557095
Al 6.970603101688251 10.552727569448638 6.815321981741673
Al 9.857529306752406 10.34997692236971 6.640692740539743
Al 6.061160390733296 8.89161715783862 8.797222885968711
Al 10.36646521420154 13.338472548596608 9.883588427309729
Al 8.887369013001512 13.923389108344836 12.427715902238768
Al 7.128700445472067 9.248031295618077 11.234308314798525
Al 9.106878224839447 11.416592340022474 11.088117701088088
Al 12.158642006413057 15.039684249385532 8.780954181249735
Al 8.623051433053304 9.885543144232406 8.986923589796355
Al 8.142078424017855 8.082427261993141 6.940905742419281
Al 13.364167236462292 12.364789843963104 7.921256210175959
Al 11.208066524944503 10.93496973419889 9.066832798782738
Al 14.97416649601568 14.161879990768238 8.978502660204542
Al 9.31447821033851 11.954406529417142 14.336605526769995
Al 8.489001898492017 7.189919882051448 9.473316316341203
Al 13.7954018680109 15.845179680027275 10.865140586811489
Al 11.333964595796179 12.447614398048849 12.549402062485237
Al 7.012082696907122 11.755618299927598 12.709643505033352
Al 11.242817915589338 15.206210045244113 11.58991536292549
Al 12.96025485203816 13.12791914441067 10.58410747264292
Al 13.318270545713176 14.520969527392355 13.12205571545281
Al 10.745497277493 8.293723928330511 8.220998652890218
Al 8.832308125866673 9.608375945906584 13.212330052591588
Al 10.51808041805293 9.12887836330544 11.079969406965796
Al 12.947277570449636 8.848029646912279 9.507346586171412
Al 10.776973392290532 14.431990218801012 14.326403634603036
Al 11.514129970311949 9.999843470505883 13.86210422264414
Al 15.433113903900944 13.6567484605026 11.647400392322671
Al 8.465818989121331 7.00351715360676 12.063605822866217
Al 11.414086862500938 11.957837146939966 15.934410535616175
Al 15.047952308091661 11.475062211968536 9.84918060824447
Al 13.582857519773828 11.864792578187622 14.033284730997105
Al 12.897982913369018 7.815108516939994 12.056332976135831
Al 13.070988938570153 10.629238783749205 11.608263237853656
Al 11.047563139329633 6.548920978254233 10.525896252544168
Al 10.571256490281831 7.446284749946724 13.410053808773972
Al 15.683842734310998 13.604172069813057 14.443689633085658
Al 13.194435104898572 13.990684920556046 15.729186818939864
Al 12.685483197976858 7.693825552595498 14.879038484400663
Al 13.276295608101055 10.047098319976056 16.12884348445814
Al 15.230835079877393 9.027573342304478 10.954594738585497
Al 15.952681115599274 11.160151141926187 12.576787836952109
Al 15.783979319438904 10.976459974190794 15.342613146303226
Al 14.467137606182341 9.242502460567339 13.682674027437942
