44
Energy = -139.56295506 eV
Al 11.720529815922362 9.864063980857487 17.654739502377915
Al 10.631820296298333 12.012985257757025 16.30792302250079
Al 13.334274160617946 11.729330075052632 16.479328936929335
Al 10.127917859065166 14.114982220848622 14.668325087956523
Al 10.039447713641698 9.391993000113024 15.517899794859925
Al 12.261123155731072 14.306228368534988 16.506402772554797
Al 12.704750142161199 9.463114797937077 15.137289435393432
Al 9.473576452710207 11.54729397585865 13.96766478912939
Al 8.318431510011868 13.73668645609057 12.76563175470241
Al 14.594027305242149 13.721649731660426 15.052177960356012
Al 12.131666452090759 12.33855664779302 14.001559608367053
Al 8.554955076542205 8.90912269175245 13.409932367807212
Al 11.194228441651434 14.13310113771915 11.894634632772425
Al 7.292498848060001 11.120367637497585 12.531338430221348
Al 11.127221778416581 9.586826071849439 12.818722678579622
Al 12.50126931793428 15.329386883249363 14.009227570650307
Al 14.575218967038964 11.046639344969828 14.139136714698678
Al 6.940411083636638 12.632160306010634 10.380531795445641
Al 8.915628528484753 14.424725531150273 10.236506109863507
Al 9.714071884368387 11.894428390775731 11.284929941476191
Al 16.30994068832787 15.038715341655404 13.507771959447606
Al 11.878215199977353 16.80896931192611 11.75729131611466
Al 14.40811769482876 16.407849984043885 12.3251176205788
Al 18.25649678942916 13.966025684170633 11.902771589436655
Al 14.009977851675057 13.403018404712126 12.36399971963524
Al 9.535545072695298 8.100115712606781 11.015328275274682
Al 12.369780331303453 11.444245316987052 11.42166208848739
Al 11.025880926572546 15.877819069590736 9.452699534126307
Al 8.044121430872872 10.108239923266868 10.000915766232488
Al 13.446626559091968 15.177990076426063 10.031699947702997
Al 13.75671439031224 8.620269253510934 12.89924721696658
Al 16.59210951643408 12.339938606658366 13.205829658470003
Al 9.026786507412803 12.181467094422985 8.579950075841753
Al 11.6022178258032 13.012953112329205 9.224321846010803
Al 14.951101403995862 10.635611378582999 11.557905046187477
Al 12.138651695544311 8.152234528057603 10.66272624883673
Al 15.900076908538727 14.603314584858106 10.7416839787791
Al 10.683780595707606 10.200654992120787 9.399260693356355
Al 14.29953962203128 12.637440229442817 9.608317546666092
Al 9.817866684918686 14.479089060456968 7.6231522283828745
Al 13.284723260699925 10.173609541559347 9.119262674634738
Al 16.936962782786743 12.14182243764488 10.439830363154265
Al 14.791458183152665 8.101250646420379 10.434254253747152
Al 15.885169861579561 10.188643774389686 9.066028018604598
