41
Energy = -129.49365883 eV
Al 12.2871964244249 6.692672933707043 13.574671511209559
Al 13.659411825318776 8.198586049231341 11.83526407685668
Al 10.744051181652997 7.688848669312618 11.546459321509339
Al 11.861959488339325 9.387798739478171 9.881955748656674
Al 9.130027200314954 8.633913205518008 9.575001712490156
Al 14.512579518902134 10.038363126837684 10.209088967328219
Al 13.256869916149926 9.098558556043262 14.50120209073518
Al 10.253665493654118 10.516339409822558 8.072271734121719
Al 14.870082042695621 10.674734223743831 12.81389348684206
Al 12.850376596386672 11.432721115509427 8.585062987845156
Al 10.567269026371356 8.871843802124467 13.936372153713174
Al 12.203131519944947 10.51326423863653 12.307570010160958
Al 11.321404487520496 12.255286168570242 6.40214642475226
Al 9.527234711112197 10.139745965502161 11.78553685188757
Al 15.488688194544668 12.193253205432775 9.031010592996079
Al 16.593237546275486 11.986325668406282 14.330019884031344
Al 16.423137992787716 12.96668622474642 11.665595345894369
Al 13.901784922253519 13.12642373112493 6.843969903328222
Al 10.920708559810908 12.163600833684622 10.42064458217494
Al 8.208731400956296 11.498429245932101 9.810516430572015
Al 8.704664930933005 10.792500572640716 14.349548503364682
Al 9.088880196935262 13.097546449054299 7.730034821154627
Al 14.260401472573387 11.341769584419872 15.587951462059694
Al 9.58014435037831 11.58714335543007 16.773882332938022
Al 13.641980549520982 12.634272030928864 11.038615579730637
Al 14.140129355682879 14.578673263057139 9.077767562554508
Al 11.612067659298932 14.042104093789918 8.369215307405664
Al 11.455666252343239 11.244351590449455 14.814400705633481
Al 12.26739280854335 11.81490940281008 17.344023511564956
Al 8.693639090182058 12.689057705122272 12.155639823695067
Al 14.824663714646555 15.20701258066014 11.480236800073053
Al 9.615421458694547 13.343209807179973 14.610993622909213
Al 11.716616761734333 13.113701779776783 12.887360168707769
Al 14.519520497738224 13.451702199212146 13.604590988990022
Al 9.37805670142048 14.500681119163728 9.99456269742722
Al 12.078938688079456 14.971981415087097 10.792056509490989
Al 10.507978383196399 14.155110069875661 17.03729329788123
Al 12.866340636820063 15.620184592120939 13.297649493694411
Al 12.611694948048463 13.730599450808551 15.417769726081605
Al 10.81093068029217 15.748395579747232 14.94400838401091
Al 9.96230304171155 15.176678473493148 12.483125111717419
