48
Energy = -151.97479465 eV
Al 13.69055114418184 15.561891067571583 8.997325272375914
Al 13.974861533335464 13.296827450899466 7.398328058228578
Al 15.280444624227737 11.12822550323623 8.186052312604923
Al 15.078012155511551 13.590998701931918 10.234414892072197
Al 12.522461649354108 15.378959583745935 6.52531779548142
Al 14.388255447651815 15.13212879692213 12.670104342498592
Al 16.014392598407316 12.880908531599388 12.833895418021141
Al 12.030324807532626 15.129463824747976 11.082978977698941
Al 15.315063674816246 10.916219517706752 10.889439060526552
Al 10.925858842162452 16.224304979115125 8.571018248868258
Al 11.201662395905618 13.107084745069725 5.859062421207659
Al 11.497214460555638 13.537781104195869 8.600607933631885
Al 12.505017254899759 10.99049608353945 7.05878315533131
Al 13.920740213047038 12.762191502946342 14.730048294516248
Al 13.06966433656288 11.750700538366269 9.616855667651048
Al 11.94552939427868 14.473604093457949 13.730721734817829
Al 13.340102662951628 12.629293246012526 12.100825563531684
Al 9.055817770496873 14.046238481477893 7.639742829869498
Al 14.594107183917117 10.415706846083069 13.4076293539764
Al 9.634646422023591 15.586320967179173 12.860149332165312
Al 13.68289761547604 9.147128617210868 9.086124066367006
Al 14.458270912437728 8.293536170193 11.507581470646667
Al 10.897538743158723 12.383221430923832 11.074353436268986
Al 11.773789441778252 12.74398155403773 16.307289022078592
Al 12.963730728987603 10.236060807550967 15.51073107499661
Al 11.086111063278551 9.805475352103914 9.12354486709784
Al 9.727509900354889 11.416839949220327 7.290971599714097
Al 12.321555793181062 10.05670938239262 11.682585040445332
Al 9.490272763254719 14.675628278414392 10.283528629985687
Al 11.292578348397807 11.775000542037587 13.727406766691105
Al 11.555795879891631 7.507544877844147 11.457688200793346
Al 9.579367290489124 13.624897409876967 14.861397357437044
Al 13.073479115027256 7.938942163585951 13.703671423970798
Al 9.487407682081486 9.738308091173181 11.324109435229593
Al 8.355415224617659 9.623774904535367 8.689060894361484
Al 8.63651604064498 13.054145367355888 12.367717558318079
Al 11.652146513554763 7.882744397730552 16.07775475239867
Al 10.310989129540644 10.458017790664353 16.22117530578452
Al 10.604795581246432 9.20676526164884 13.738284356858898
Al 8.578695584790841 12.11528196209088 9.748534920216061
Al 9.690212039681382 7.460720257285561 9.525682340953418
Al 7.029068157859457 10.919841690000034 11.816185830862722
Al 10.662160941970207 6.537989377804421 13.947560255838233
Al 8.616319597337224 11.090599969064337 14.18658194472577
Al 8.877041137277814 6.793841612417098 11.92764230390263
Al 7.053418326854197 8.314276606101691 10.683639397833367
Al 8.974636256552111 8.052437374326026 15.770519313264082
Al 7.675862377729885 8.756970918068768 13.400197838423942
