46
Energy = -145.7077344 eV
Al 12.677390435647837 11.202947455643379 7.064630661160512
Al 10.19645489796213 11.333541553525315 8.390273634020987
Al 13.96495762128344 8.937453542720267 7.7123682003411025
Al 11.329269557105652 13.4873667156391 7.188494703488927
Al 10.477193049154986 6.688254215970186 9.591313394705624
Al 13.088457299864332 7.635555911092468 9.895705749041024
Al 11.29474429680039 8.914235798151822 8.372959197141716
Al 15.352842537650458 11.270386828116235 8.289396225629485
Al 15.24219207513273 9.342121612153013 10.190863976240736
Al 13.595366729589179 13.368530377943928 8.848088097264851
Al 11.099027334955649 13.42188660801286 9.934739218652313
Al 8.878608388182533 13.869261063899806 8.42897250934223
Al 8.902722666615107 9.186001474626247 9.779032160789466
Al 12.350514232375112 6.077539249089104 12.006192720888764
Al 10.929310638342137 8.48217526723949 11.559849543717021
Al 12.903524824515664 10.79568018446293 9.73382791590877
Al 7.934782908339502 11.758673094169467 9.856333253811643
Al 12.300551537774837 15.82954919952731 10.476590250414041
Al 9.761473180530913 5.738448685428585 11.967590644696964
Al 14.307198743464516 7.797606647853593 12.319073906770374
Al 10.588188713065454 11.091152362579976 11.035771619339348
Al 14.900623116946898 15.075962335307711 10.531097557546959
Al 15.046768906808486 12.032634353535125 11.010685602236583
Al 9.59973942946939 15.688018804357903 10.317873459000843
Al 12.830453652487364 13.346090507544687 11.906994395262712
Al 9.414272215829236 7.669807173476984 13.732088598499809
Al 16.014605112258728 9.919749001624218 12.668102142588477
Al 8.66049448362442 10.00454311304836 12.5686688137418
Al 6.951790181831387 14.29705333421801 10.726721416689943
Al 9.104787290821994 13.397119747922108 12.001086622664639
Al 12.010708837655052 8.204308184847303 14.03209218227024
Al 15.48294623984296 14.083636519742571 12.882178768925236
Al 14.325579110514749 9.364924027995416 14.591327665839707
Al 13.49334398566602 15.848135784539915 12.98599958819668
Al 8.306071351645853 16.064404636563204 12.643293122577093
Al 10.68440596658189 11.934460526651952 13.486087557182769
Al 12.885875062574055 10.311602265137383 12.374884200497018
Al 10.898787027285026 15.471039912160316 12.74183930105587
Al 14.384701695772307 12.004964671623862 13.900794347383561
Al 6.755968307134282 11.919183334543526 12.185347583821082
Al 9.830795750210527 9.879233085380777 15.132659876318186
Al 12.242373821571345 13.840603232119701 14.594077883950272
Al 6.8262596981611825 14.147065818861869 13.708915276932792
Al 8.115158101275247 11.920027291414542 14.582822310714707
Al 9.550209569294257 14.209611259650583 14.641825894803302
Al 12.272143040552688 10.963122139605414 15.34536586568006
