48
Energy = -152.74780565 eV
Al 11.382455020958863 12.887466393351147 12.990837208851719
Al 8.978292178743155 14.269497817648086 13.645943127130783
Al 9.103007475042638 15.183123346187124 10.881265167641349
Al 7.581693636079985 11.90749946410295 13.649955420928489
Al 9.990508736193876 14.974512614575435 8.242552414973927
Al 11.38365107757388 13.581724830346998 10.179517612201062
Al 11.384732104709842 16.5803807498958 10.023943460982665
Al 11.383108303703422 15.65723536018998 12.646329367242368
Al 11.381999338717966 14.547066347553328 15.138691953722287
Al 13.5171613029917 12.507526083074797 11.418520748844376
Al 13.664436101149002 15.182355300121328 10.878558666775117
Al 13.786839490436142 14.270804459026897 13.64591769218277
Al 15.859116035759843 13.807487994646529 11.811107372847859
Al 14.808591164040516 13.230442989246647 9.11531636969724
Al 12.772752533699476 14.97006126724945 8.238332433990582
Al 12.8945340877444 12.250589936678784 15.395225175553836
Al 11.38341389029611 9.852047356030907 15.59103311306294
Al 9.871075217087734 12.249697070960913 15.394912094443523
Al 14.18907296635349 9.822235870353012 15.215901085698604
Al 15.184884968099832 11.910362881502454 13.652746983109617
Al 9.250592533504143 12.5066727745839 11.415976815860725
Al 6.907593148526685 13.806161538662671 11.80927128874646
Al 6.883010716904336 11.223566445282668 10.691009199610134
Al 10.07998343150476 12.415466976921522 7.282346092527729
Al 7.466382414705817 9.199393515996372 12.687754050393774
Al 8.516477879743235 10.474767405631429 8.172069790775769
Al 9.26831809495536 9.977258567452813 10.702920536339144
Al 9.056011210743069 7.269231257897041 11.348734807764503
Al 7.1651573107983335 8.601537668618535 9.776919302333745
Al 7.957529449330068 13.23154365662231 9.114040498373864
Al 10.008307464538895 8.260262773718377 8.724210329379343
Al 11.378453365538995 9.95883545500324 6.917733554527367
Al 11.383865362964693 8.653908359017368 11.605798231901996
Al 8.577626034870649 9.8213468819524 15.21491356352717
Al 11.38322371821557 10.929212929340133 9.43471247167579
Al 12.689657055991878 12.408799799719032 7.280807510684475
Al 12.75707486977496 8.262336202664077 8.722521565630299
Al 13.497860269951794 9.978978025720767 10.702793379720458
Al 11.384415918418346 6.357429731662306 10.170866564687092
Al 15.603803378977808 8.601808618712951 9.7808754790796
Al 14.255383191418497 10.472780980052773 8.17275212187448
Al 10.027706938598177 7.778675321338677 13.968583534500038
Al 12.723969171423516 10.54789147227311 13.124492364625898
Al 13.71135180608757 7.270211726842712 11.348653227348866
Al 12.739459826776095 7.779595802848362 13.968369087195292
Al 15.300320790873757 9.201216818734572 12.689194097188542
Al 15.884352055497875 11.225129421291202 10.692944757011626
Al 10.043362934248332 10.546437764429832 13.124704281100753
