44
Energy = -138.94123712 eV
Al 13.984821374688531 13.658087563260754 14.306482923780942
Al 11.25436042286895 8.989500566922212 14.872780023125362
Al 13.429328586594087 10.827431652489365 14.086925884597708
Al 13.623882832400223 7.856721445789835 14.349167817234203
Al 15.834946456039923 12.048638941067173 13.370493623427265
Al 11.66073393055637 12.426624023080036 15.329863769111169
Al 15.713465287334794 9.457845521042348 13.584922160522783
Al 11.588827189371738 14.74662551929982 13.963800173598775
Al 13.693712247949966 15.502734149204645 12.267815010922702
Al 9.320918784222457 10.92109649759684 15.370193933076528
Al 10.427881851818032 7.136874982905908 12.947308283774966
Al 14.727643107278531 10.630941967556632 11.278123321370787
Al 12.806715289202296 12.711680925388636 11.901647264820042
Al 12.843647068193722 6.3599267598767595 12.101184600589148
Al 9.238890697921155 13.345148759274359 14.190544467500485
Al 12.465587071182533 9.00728836682763 12.108007933460394
Al 10.871489797045696 10.988528153371998 13.154069098192542
Al 15.411272512727512 13.6274331848479 11.27957936080463
Al 8.96169222224248 15.676488624040575 12.929898685818946
Al 11.273267731708682 16.99403207324951 12.630204438711328
Al 15.047482151180722 7.793997997312609 11.667019138079835
Al 8.628249429366873 8.897078347559214 13.737995602218655
Al 11.254019224421347 7.24521507317485 10.085536681842598
Al 12.355656921594008 16.95124038467646 10.230754707634038
Al 12.24055887505537 10.655111134858966 10.014566174227234
Al 10.32973873521499 12.212617351498418 10.907914850925597
Al 11.095873234867527 14.69402141266667 11.119076569681164
Al 13.736380875102844 8.568379357502797 9.477458138654997
Al 8.634641456379962 7.022247830504838 10.902539725478155
Al 14.368701942709057 12.202812261485658 9.168649295739977
Al 7.137768377339414 9.192388486805806 11.323671436369448
Al 13.558403263469495 14.670733376374256 9.605069470309692
Al 9.923609512438517 9.489925829472359 11.099974069968109
Al 8.967150999002742 16.14406730759226 10.177842688173495
Al 8.21379797053799 11.382339533312807 12.621170509416997
Al 8.033891248872656 13.709229739556356 11.299078471714516
Al 11.049410754331392 15.611689491004844 8.349005378435152
Al 12.03802499203606 13.180376031242837 7.908948568732203
Al 11.498498039749084 8.66003412598552 7.811552172249627
Al 12.965580801299032 10.739974592448108 7.382909664844508
Al 9.266836485670996 13.613293206614939 8.797466033803166
Al 8.9002078815629 8.540457857203865 8.686573767649476
Al 7.920700101468361 11.3579445383987 9.799309908907983
Al 10.221601093826822 11.074863748060991 8.321385484839944
