42
Energy = -131.13528636 eV
Al 13.977488668077214 8.005887938346019 11.222162770787975
Al 15.018126998570363 9.010278085128121 8.778283045739878
Al 12.84200852299395 7.266464253017678 13.600172205079417
Al 14.143584043552073 9.796722081895377 13.685401503446887
Al 14.78417103063831 10.570979028096069 11.147166734153542
Al 12.663378326277053 7.165612953802115 8.941242159720371
Al 13.56757583622266 11.46363167744864 15.751570859220926
Al 11.195401975280824 7.195898898960719 11.171860647824975
Al 14.29765032407152 12.687734641955542 13.25618149937619
Al 11.790259272482961 9.232587880899686 15.110867702618451
Al 14.36913801033979 11.86131027319543 8.807281308163644
Al 11.874534448066791 8.252874949224362 6.619215267172917
Al 11.8546623125407 9.694487782255594 12.052053071851315
Al 12.581496297741058 9.80885008324777 9.292740414969105
Al 12.694837026509216 12.214736396596313 10.995506825893855
Al 10.002738613777652 7.934504555103448 13.436707925697153
Al 11.870244920132423 11.674039549168851 13.790429772643469
Al 13.434100511380905 10.43541402899784 6.697466450224037
Al 10.142666031787254 8.429601933790964 8.925686395039737
Al 12.218015145626278 13.91445431109445 15.365517431170058
Al 10.748326486725894 11.769078536005214 16.388473207677432
Al 9.413878862949474 10.434748632393685 14.378848905184975
Al 10.320516889861851 10.39701830418033 6.888817466597431
Al 9.582584702917513 13.325938972601575 14.40305080215415
Al 10.057079174433113 12.030178556895757 12.00606895279836
Al 13.18805327829182 14.329566666576714 9.144018980043496
Al 9.228951399995209 9.584138242343862 11.316262254937588
Al 12.0024146705957 12.576219681934672 7.446263944787077
Al 11.841369832463805 14.33317668059103 12.63134309398492
Al 7.315474295345715 7.976848729999949 10.32804179730937
Al 8.074317510503501 10.288661952446528 8.753180090399047
Al 7.37736389155785 9.012188118007895 13.132493983456097
Al 10.458821639229829 11.141383162248893 9.557332585098726
Al 10.65964372610101 13.648102832035391 10.027846155111643
Al 7.582202119256761 11.969527594823369 12.995751473710955
Al 10.928845352152097 15.1412045507186 7.781409198543833
Al 11.452943691379817 16.11707454191235 10.547140821175033
Al 8.927332852424348 14.616244740604083 12.000213675058038
Al 6.382320656642851 10.504943447561887 10.95691354989931
Al 9.180428146470414 12.771983775562267 7.784957018172461
Al 7.899907278130769 12.728130070665342 10.238055822431022
Al 8.675801807818544 15.338939916367579 9.287598154430784
