45
Energy = -142.53808357 eV
Al 13.200060578806736 12.554816907059873 10.462841031434111
Al 15.366543048537883 14.21817714922726 10.842893946721947
Al 14.892989460053649 12.768139236502702 13.103804643268248
Al 12.643795079533879 11.164165947417253 12.711300170982957
Al 10.01275457864811 11.086402073924052 12.968411001412498
Al 12.469289867457107 13.407555747394952 14.572270239752557
Al 13.94338528820097 11.200606162425665 15.126412004874608
Al 9.754368917796333 13.3732419334998 14.62235078884129
Al 13.458884409100751 15.22114124848515 12.768475788156358
Al 10.93879883190559 16.243544425900485 11.65074777144215
Al 12.934196888584285 15.31619042019163 10.105953638017668
Al 7.36992717951099 12.370590377339267 13.324664594106538
Al 12.722441014793635 8.845869899682912 14.408649630697774
Al 9.946028526980413 8.719189360688498 14.479929975226607
Al 8.588322306001306 10.964410601805994 15.309580613842144
Al 11.300031959501316 11.011063397549924 15.42615112183427
Al 8.932971180951498 12.47349320100563 10.938937771329881
Al 11.398373318444127 6.618752329281106 13.350521998812829
Al 11.228626965901192 13.443658636134789 12.066101120827371
Al 7.5426142441204 9.518494423134328 13.188660283709352
Al 10.377560579593927 14.414017054118121 9.566152571891584
Al 6.632428600521755 13.8017315580876 11.12098649811984
Al 8.75418646792078 14.80228758844812 12.53945059456556
Al 10.468384889041307 9.984728960937515 7.087264963989294
Al 11.087600147462204 8.372415316844242 9.233972467820534
Al 11.32231132273007 8.915002310513255 11.922473751722354
Al 12.582956308195207 13.827058284459783 7.947033849770911
Al 8.571466024708247 8.315897401148728 8.39553052921018
Al 13.085415116578538 8.618575956405248 7.483520066349362
Al 15.094333034957268 9.848372669367732 13.111325233246669
Al 13.696671941011008 7.555860878703918 12.161180969672316
Al 13.276047916802636 9.704560623172139 10.268673205566765
Al 10.94096610447483 11.400384055664103 9.606492235232324
Al 15.76794283218231 8.581528530389381 10.766371895648472
Al 12.856334572451614 11.248878213144899 7.68707449006803
Al 15.729371624067428 11.376204622599388 10.938870527786836
Al 15.290924118576628 9.968609226094648 8.508526820424976
Al 15.165762037553627 12.748395959100906 8.558596386522295
Al 8.230529784942004 10.982704224729776 8.488956487986766
Al 9.131863535966746 9.708150633064019 10.740255498659435
Al 10.220930599634459 12.692497808516379 7.273568885400224
Al 7.967334073873691 13.600049172078522 8.696601981818349
Al 6.64932748169761 10.950337573488635 10.925609985311583
Al 6.948958675239828 8.208566369683096 10.691516353508165
Al 8.953326116453562 7.301018953388072 12.298673062947525
