41
Energy = -129.05704922 eV
Al 15.674828328171369 8.878596422992588 9.851685950915426
Al 16.424975648290015 11.396810237512724 9.216492262190725
Al 13.916554389763279 8.943327433570733 7.803408137713324
Al 16.193229636437657 11.513850122173853 12.010882485334372
Al 14.627981042695888 9.192084864877128 12.34137694894472
Al 12.476298444223278 10.44908241606451 6.126875763993188
Al 12.911499204815868 8.388713238253992 10.196952393423091
Al 14.168994788947098 11.84219819579587 7.736215935566296
Al 14.373798438913624 13.472764330106317 11.685288796359815
Al 11.17910674994076 8.27103452187317 7.647708155978784
Al 14.001440783755376 10.96303496866007 10.358233339475719
Al 13.56403537768005 9.688410208828003 14.677019040886407
Al 14.617543994381178 12.316414021982009 14.17183247199569
Al 11.748446803847493 10.584880222365143 8.835054146973846
Al 9.960129305678953 10.98411429829983 6.618868904444856
Al 11.872773288975992 8.782662311007476 12.612924466958106
Al 11.66731745444687 13.052553579003689 7.271261121010258
Al 12.271165558309052 15.312769205908229 11.299003908151292
Al 12.58283378566068 11.40740791773737 12.553032944609901
Al 12.525677151573634 14.031916177794754 13.69635290853319
Al 12.514930569759745 13.020667774055015 9.79621445821328
Al 8.9404319874785 9.775609251670067 8.648173835812715
Al 12.07998686694596 11.908151546691823 15.214675404094628
Al 9.942992608760049 15.567195883076915 12.743200424479491
Al 9.720494845026368 12.457340147181418 9.038166849321282
Al 10.932299218314672 9.330613785544411 15.163657281761374
Al 9.181150519723218 8.687380851575266 12.925646556001642
Al 10.22030931253237 10.599497234118886 11.11377373131365
Al 10.757573490760587 14.994985014725533 9.085016641364641
Al 10.255491154891516 8.001334915733516 10.374302042822501
Al 9.746100841810222 11.318445201492564 13.712745046120286
Al 8.433204966687665 14.637856397510761 10.453497894678774
Al 10.485984099584899 13.146462555003115 11.716506570601773
Al 10.016797426108141 13.778520686417792 14.789180106686183
Al 7.606357647208891 9.343216562672328 10.807401331960119
Al 7.641441052709859 12.069041139513695 10.578957207156634
Al 9.79630636995611 11.53954822625642 16.49044519886398
Al 7.139969579872018 10.797545639682419 12.999544892691606
Al 8.127147482877978 9.578626575745064 15.303568818884063
Al 8.040007020391613 13.471880381248528 12.895034181280788
Al 7.489753280613022 12.293010760825041 15.26177587238146
