46
Energy = -146.24483937 eV
Al 15.783244736501656 13.160017974144237 11.142830958920776
Al 14.782063187253806 14.159157382365546 8.866410313107169
Al 15.03719897903138 10.581647929759397 10.936333754320431
Al 13.946751027809892 11.164431643967099 8.50262053092833
Al 15.35472243544921 8.801686532027636 8.7865200597121
Al 13.835117677446151 8.127269743308318 10.910922563207224
Al 14.041516838447732 15.360309419103986 11.423294576330907
Al 15.763016110744234 11.515073130842522 13.532376879882554
Al 15.844715035674561 14.429522283746108 13.464112030191036
Al 12.646374758240253 13.502009308880398 7.418976535128705
Al 13.360649362045226 9.983027913956102 12.952557625340322
Al 13.050177025154175 12.76958134197106 10.450414127700162
Al 12.04393296443002 10.301310360714645 10.533840055825042
Al 11.520115642766104 11.027257539022353 7.326539356813446
Al 12.67219548461315 8.709652690716199 8.30092478547564
Al 13.214897000778397 15.689783404647129 13.939075344260681
Al 14.296785204241052 13.665909893092133 15.497278953570731
Al 11.42774958856537 14.5308451332429 12.024305790901375
Al 12.284559739773618 15.316184815999229 9.451726550615515
Al 12.280459362623395 7.412883588031262 13.003848893381354
Al 13.517383895222068 12.99652540484483 12.98976522304053
Al 12.907768583267519 11.486444797242186 15.194840575521948
Al 10.680782452273016 12.881035649773063 9.4425419800329
Al 9.72315687880949 15.635970813763885 10.074436365808682
Al 11.108236166279408 11.645512623820466 12.825681530867296
Al 11.412788742034234 9.404078570479054 14.812702667774316
Al 11.272034890447593 7.487994678067455 10.493317755800915
Al 9.966848513011353 5.978461967616238 12.336809110155443
Al 10.312580261796532 14.93209223645776 7.502021006974489
Al 11.455640315784951 13.855481860457994 14.675433148338977
Al 8.94249237576046 11.418092914296764 7.73090134781232
Al 10.072319020854502 11.724334079344873 15.545351311689553
Al 10.039388308469803 8.91294567033193 12.55674150235708
Al 10.114072066910538 7.082544511252729 14.840933292642372
Al 9.411470866611703 10.916884632559132 10.830823217103484
Al 8.958449001084247 13.62599781014654 11.668110005716109
Al 8.152507113283319 13.763103750908968 8.989522688620664
Al 10.098744757021253 9.183256868166518 8.829098129842242
Al 8.66008784106773 9.460107691871839 14.86209957057376
Al 8.548062771890923 7.691619569669914 10.639204545597634
Al 8.376317343505422 11.747086025326757 13.346509325502327
Al 6.321114854639433 11.965299205988345 8.147176303396794
Al 7.394657008461417 9.724705001509724 9.336652105681933
Al 7.803568103009755 7.272892459602457 13.362249641467644
Al 7.247352122998808 9.614346735318673 12.185517403008223
Al 6.899165234296473 11.968854092024038 10.899882209439722
