49
Energy = -156.70209538 eV
Al 15.240905139719294 14.523065508097595 10.810316805196832
Al 16.197867935539296 11.971825264543934 11.226006168164991
Al 16.06941862501796 10.567666173621742 8.852609015358766
Al 14.380110513330912 17.206061924445233 10.431580489568491
Al 15.710330900094961 10.57109390843926 13.45879677215137
Al 14.22608186177172 12.527727934510047 9.28553549147122
Al 15.539091925143909 9.142966452549496 11.020440010770223
Al 14.665059622515725 13.171800664649922 13.080695164755928
Al 13.414314999699805 15.139394956070317 8.872205877217272
Al 13.80524295691358 15.732253416449211 12.73707930322948
Al 14.4218791991757 11.971731995620553 15.547132958122312
Al 14.753511078042107 7.853310986948921 13.152629442882242
Al 14.344818136351918 11.108908988516403 6.934116522268814
Al 13.471394460662951 9.738940784797165 9.094136587402563
Al 13.29956124492991 14.474776763578022 15.052587936895689
Al 13.486692407223225 10.926454703028385 11.668400225283966
Al 12.54679281893479 13.13677599130238 7.243663725088845
Al 11.453663356437856 11.598523363202942 9.637921503655543
Al 12.45067220518781 13.553850146935961 11.268004938989755
Al 11.824818717740948 16.245730813978025 10.856968459073766
Al 13.41174020740547 9.595728389279765 14.527647409967184
Al 12.561349232731185 13.33484120643458 17.337873899827873
Al 12.87658028325747 8.12462494785052 11.09115671511784
Al 12.194481355714371 12.13780709360489 13.763366480150983
Al 10.825995467525384 14.443866338828844 9.03732915371882
Al 11.61732403083622 10.379293946721473 7.093708231575338
Al 9.947862658112596 12.597768298179531 7.3062223313660875
Al 11.92382436206301 10.952050127334733 16.36873967666929
Al 11.04860603518436 8.630528840322071 9.057427947340972
Al 9.49343116699867 10.16487911950511 10.839891556298621
Al 11.312728678865215 9.75145796003025 12.68875701238981
Al 12.102086546377814 7.0805218610191165 13.470214885822852
Al 8.688007724583317 10.447396889078432 8.20151964591416
Al 10.437191339040801 13.542085168621012 15.513200437347813
Al 11.244077954464569 15.042767984068039 13.344213207101484
Al 9.89857519673907 12.693510342347325 12.646945972559193
Al 9.433683331397432 15.115196475663831 11.317071295413463
Al 8.946584836231251 12.764687744468592 9.899542919520957
Al 10.996840867636788 8.608204887064705 15.303170432277344
Al 10.232647087227345 7.393944568343673 11.395303418481292
Al 8.485050196928766 7.936072470150323 9.177892379062085
Al 9.700118520270337 10.953245060289213 14.771242639978388
Al 6.9120061684794845 11.063392360649672 10.26127031142583
Al 7.759154734231532 12.803969345946738 14.854404833563024
Al 8.984680782564391 8.538224265295007 13.564747195909964
Al 7.3537696556456815 13.492282263964148 12.017258113775437
Al 8.675784889118239 15.115553935254589 13.927417979192672
Al 7.7301804499607005 10.914093351871319 12.914525267584184
Al 7.315138619159373 8.63087449971186 11.488841736284197
