48
Energy = -153.15036579 eV
Al 10.797992431005786 10.867605325467597 6.970875211676434
Al 9.140729759192505 7.157684160774765 11.646538633525303
Al 8.565289261584827 11.908461547465851 8.064868676060783
Al 9.343532612073222 9.337685364931671 8.873167072427602
Al 7.7123696050571064 9.446350707496563 11.006635464121029
Al 6.871749171535919 11.95347586628248 10.245114844129779
Al 12.892123733624425 9.745158661929608 5.670695041670523
Al 11.485336587286378 8.234727472825572 7.460811996710495
Al 11.055514854501352 7.202500217923937 9.856000783620145
Al 8.83737979909868 8.852425319328097 13.658662389747585
Al 11.15024695235901 12.91396590661925 8.600233706224554
Al 7.899646451893964 13.627357661639627 12.05853519971604
Al 8.942116286838878 14.145173508877418 9.490269298165416
Al 9.631962301368452 11.689326346003917 10.589097086688632
Al 10.489515831868788 9.489300227227787 11.615548581721116
Al 11.797268774656882 7.291863597325406 12.575174116989492
Al 8.928345517125022 15.605845335067652 13.719367015835326
Al 11.985311194240259 10.059785643288496 9.444130247872621
Al 13.42606781424363 11.638440096210125 7.725877153398082
Al 7.452375476719895 11.17853793180716 13.132456625448176
Al 13.671201499500373 7.857242574686756 10.254965898383803
Al 14.181209102657913 8.94031890012184 7.888798327661346
Al 11.48624416692284 15.573415744108141 9.689262403253073
Al 8.339994737806247 13.172034377809968 14.795501748440955
Al 9.216472611893188 16.263229931467933 11.025809545258255
Al 10.776366540965416 13.848272654952721 11.799249420165607
Al 12.848682665288194 12.274789643968141 10.667848210365808
Al 8.951600533364093 10.677650295995745 15.586389860816801
Al 13.003073109596077 10.06776876926201 12.24017339385951
Al 13.616444848985463 14.142322639651095 8.79982407551116
Al 11.374676092343929 9.454565821069654 14.407462750826639
Al 10.214769188203864 11.6916366283685 13.283552920595191
Al 13.7873014449187 8.050954190803143 14.226554677855729
Al 11.345891234675126 16.411008291105336 12.794431555972213
Al 15.365482048581772 8.680292956921317 12.119839055936371
Al 14.922697945500804 10.449344676099523 9.968493130538366
Al 12.920375242911952 12.666721461769582 13.313957391757347
Al 13.446498022058584 14.82541499627701 11.456714626201004
Al 11.00110204464806 14.190814076778967 14.71250149342741
Al 11.336150635983527 11.786965637349835 15.89064556790972
Al 15.473623993981928 13.150245926005708 10.379968155723718
Al 15.490854898969465 11.318531594369935 12.52195616455081
Al 13.739993625039036 10.60951658182854 15.017064306008765
Al 13.44749142806342 15.430987794271472 14.112634479413952
Al 13.380781837658558 13.440023759815478 15.949288564054315
Al 15.553868763464589 14.085257335312262 12.908292573230742
Al 15.7131254656547 12.355436545306961 14.993993139478647
Al 15.724524192306244 14.974937634247677 15.52613975527251
