43
Energy = -135.92601754 eV
Al 15.149017016995598 13.48481785365458 13.484825602925836
Al 14.619762993546294 13.711955104013422 10.743929107128661
Al 15.37204542561829 11.30838331513687 11.671446655527259
Al 14.275345343387594 10.989936567873444 14.176131041233464
Al 13.263917520493079 15.203810794071982 12.621153700948865
Al 12.704185911106313 13.326558121384183 14.893045648277084
Al 13.432934108797165 11.49885086248214 9.870776827755904
Al 12.570274093896954 12.446595683239154 12.312601844874006
Al 12.078061640595278 14.053279151459815 9.999716431976402
Al 14.737050207216976 9.002835060161988 10.003209298037245
Al 15.675645364461186 8.90666865159942 12.770687877151456
Al 11.714836838084501 10.801393054730504 14.566055140799563
Al 10.158078943725634 12.809375266002544 13.901853097430504
Al 11.424760806542011 12.047721369519858 8.300703175154032
Al 10.676832775456358 14.786886771213991 12.256960336601171
Al 12.845795008955228 9.506198104932128 8.115507411672208
Al 10.958785714874496 10.031103403183058 10.147730080480176
Al 13.910855622845517 7.071565486452152 11.86980851876503
Al 12.941214045133252 9.756818494978546 12.017836231203058
Al 9.906066786571843 12.616877247058227 6.128671157294725
Al 10.523752407667967 14.591439234503861 7.808145207723197
Al 13.312769578917603 8.40975837143602 14.362499863499252
Al 9.361364640728723 7.865983549966338 10.732395378573012
Al 11.031341594495993 10.216074448750637 6.2648863496868765
Al 9.013929375795916 10.928099791283628 8.396543446417956
Al 12.133273024150625 7.49053816469792 9.906754752961659
Al 9.887023280166188 12.29344501545403 10.905670049138775
Al 9.87031904428371 10.000367072752441 12.590547043983097
Al 7.407525297391266 11.608295480075217 6.186464015775127
Al 9.100082537791 14.76357749637774 10.095157882210204
Al 11.376868305218734 7.4267429041590045 12.521498499067333
Al 8.93532638020229 10.649136592973331 15.08544502886196
Al 7.93315080689086 13.530241833308338 7.978055981093967
Al 7.824106362468721 12.007662152998124 12.868877851766694
Al 10.311532994856199 8.218825325951908 8.125236063102415
Al 10.686472895969667 8.396940647447359 15.049329512944293
Al 8.542939025934833 9.15929426289087 6.275495692890146
Al 7.5633907380816705 8.535864997501328 8.689488955346494
Al 7.628925894919002 10.113116657309769 10.86243301891071
Al 6.314038165349362 11.089540571736222 8.593240908298629
Al 7.1893193871422225 12.808099358937223 10.452406685727887
Al 8.870279740129725 7.439724864976132 13.364803282780086
Al 7.1521435093181065 9.479681441372032 13.437524118630142
