43
Energy = -136.63590769 eV
Al 8.815778694986433 8.654517666568912 15.251168563382432
Al 10.911890413957849 10.21349046740814 14.74161028024017
Al 11.219898994753402 7.368455710303831 15.131223941658419
Al 8.401706879605422 11.39102424522279 14.4753125879504
Al 10.130524833224289 8.338965450512395 12.77947372254147
Al 7.5775606812045195 9.253420744376726 12.979399086048135
Al 13.12735032056665 11.650784118711998 14.48277800590785
Al 10.656382504560558 12.9076859337826 14.543200697053702
Al 12.641142405033667 7.131682868780773 12.711826065669584
Al 13.378516277414912 8.892565580087185 14.764275553436454
Al 15.429108639989897 13.088835181859695 14.216030130294518
Al 9.905795443858645 11.048351915454873 12.104785497469042
Al 12.954257369463487 14.344830163850578 14.367354244435342
Al 8.371852348488584 13.525041683469698 12.889525361536005
Al 15.63173900983174 10.38723440445474 14.452719774793783
Al 13.949252840138323 7.189744122386273 10.344129091008071
Al 7.222251050992997 11.400950635723397 11.553712323510531
Al 12.421867381970804 9.982739917131624 12.262215707333604
Al 8.699903883492613 9.022334348540452 10.565821267303178
Al 11.388832750184287 8.267368189556027 10.41040049073142
Al 14.896319259866274 8.734590962418013 12.372044576432458
Al 8.749496792025026 11.31183492590817 9.228661376093592
Al 12.23742016286479 12.7174519085924 12.088272644370003
Al 14.746895631387865 11.528005114809352 12.028435332756576
Al 10.722752553507403 14.898578776853483 12.746937738727116
Al 10.043424087560402 9.158859373004386 8.212881694696156
Al 14.115736725821252 10.001222654849018 9.918110902625077
Al 10.113729861776743 13.371209852934042 10.452212941165987
Al 13.052169114086498 16.35591029932979 12.542745519178242
Al 8.587507607639857 15.64273378098521 11.263321653505818
Al 11.499261021825001 10.994028049170442 9.695381634268056
Al 14.60425307568498 14.237934734003694 11.887947373402735
Al 12.668988633413868 8.621555711619134 7.989110766082664
Al 7.369031241572795 13.620664705379792 9.93223396320577
Al 15.281190119523785 8.198183511636993 8.307920567467534
Al 10.850711893339861 17.08962765140535 11.047668760876428
Al 13.927745462838384 12.710030533227181 9.674889689834012
Al 12.43166577943014 14.869759349401585 10.32706912004321
Al 9.005794577544302 13.573268975513 7.728955481278417
Al 13.18773407245921 11.28317525819791 7.477381808983882
Al 10.517677075232594 11.43871610408885 6.83210434872346
Al 10.330053820949104 15.63838535789157 8.814349209743051
Al 11.857169899480981 13.576590254147133 8.03674169778536
