42
Energy = -133.08362425 eV
Al 9.678149828966468 12.533556652546837 7.0969958907172535
Al 9.380329956834043 9.84987890298647 7.5401081236955365
Al 11.98237906999063 13.787120952502688 7.905874512418849
Al 9.418441200370058 14.182285356772734 9.292680088549343
Al 11.132229018886576 16.163729150067724 9.047744386523874
Al 11.617601147702658 11.03910506824774 8.484696266626118
Al 9.120411204115499 11.550532759561987 9.72532470051565
Al 11.225888628788054 8.270692849714989 8.905275861585647
Al 8.745121796662353 8.871526457463988 10.001751945891327
Al 13.978386894152615 12.266380483678168 9.137388161570554
Al 11.535799561639578 12.861041538775936 10.628364587044715
Al 13.484646424430064 14.82555591014547 9.83864289753892
Al 8.831212822084256 13.09282851543316 11.91207883884297
Al 10.34615653124038 15.219721993029623 11.595846364393902
Al 12.41193989301438 16.91000797188743 11.349311050670547
Al 13.466986188268262 9.550230960382354 9.674194675573588
Al 11.141575453431809 10.16755911690564 11.117108188094813
Al 8.652297752958226 10.46138204795462 12.173078088166983
Al 9.856431001482871 6.4901777728010766 10.648464320950167
Al 7.428233359973113 7.7331197052359935 12.03215609384973
Al 15.798210891574929 10.723541345354203 10.370200784711383
Al 10.025235804831633 8.17522827092022 12.85059765145347
Al 15.39243514324033 13.52915635661745 11.277875940473882
Al 9.614009192825495 14.43056220807649 14.207818477570841
Al 12.209606429731338 7.476455953151863 11.403634473223777
Al 14.893996595838898 16.049013601560034 11.811943362887527
Al 11.151699929497715 12.10846053032814 13.3210157532456
Al 14.464766238255253 8.624924786683742 12.022023111684742
Al 13.576230342940027 11.417950364164149 11.993740379467733
Al 8.446054797846607 11.967890627941733 14.38239061746321
Al 16.502292525728766 11.854268452457928 12.89513700367019
Al 12.882304711799911 14.304763002334864 12.540728612984466
Al 7.865140387421574 9.18108589030641 14.440635309550583
Al 12.312738385246387 9.41170907228261 13.50933173869209
Al 11.472817822194324 16.34283409126093 13.806342826869827
Al 10.31581611008193 12.651717451898701 16.268630362444107
Al 14.791383239365357 10.190531606624646 14.203850209106655
Al 16.96516837431196 9.334654048423923 12.394817733161624
Al 12.323969843628435 14.07807202051537 15.178849384452166
Al 14.469197885808061 12.917412103544274 14.220132824266924
Al 10.291444820321386 10.0269454707569 15.132301695443788
Al 12.641823478581433 11.216949264763414 15.501477390017884
