43
Energy = -136.148166 eV
Al 9.148945268361745 12.80543243079485 15.09071096111986
Al 8.142311797686013 14.087616307326446 12.945066387363582
Al 8.779481440231699 11.420454844527843 12.711144804319922
Al 9.112448662471767 16.54443078187729 12.132126088499072
Al 8.0710768565962 12.805628533575408 10.491750678001832
Al 8.713337181057307 8.667947533492246 12.836140248913727
Al 8.606427398762092 10.143631316671941 10.371661950800537
Al 9.61500161813586 10.187392815746966 14.947881184321142
Al 11.596899545036576 13.762559835141595 15.806072473644102
Al 10.522110970850882 15.28330417422339 13.947094550687813
Al 10.305305998970727 16.42638520962409 9.684334369164736
Al 11.313502152790363 12.432354547968304 13.393970555486824
Al 9.777884456998027 13.780473954136369 8.726390194102834
Al 12.02123680374375 16.4281396043107 11.824760961111382
Al 10.447641120878018 11.188793728075149 8.113332299284817
Al 10.357423687538992 14.26268059277057 11.352911782414395
Al 9.244132671298008 8.802852385302755 8.164204071107427
Al 10.754328866838403 11.79982712793578 10.70624697274378
Al 9.52941007381948 7.468707148051947 10.472812593244559
Al 9.473349836862448 6.042752986808281 12.722695990991346
Al 10.823432359467468 7.757567691105765 14.392874544266002
Al 11.225836328255127 9.744443842646051 12.423978445602195
Al 13.117832117311533 14.67233495562124 13.573490015548474
Al 11.144985472132257 15.652949290257169 7.264325505707478
Al 11.412560029371484 9.154526815705788 9.682028855788595
Al 13.813305799915039 12.523692493633328 15.051837903258738
Al 12.235027921909788 10.224447313802916 15.07652933314348
Al 12.32801001097622 13.319886776295876 7.779292336110045
Al 12.959596622891098 13.242466688031628 11.179295201324694
Al 13.61360697210669 10.99112664934099 12.802028595173004
Al 11.933060847137567 6.979078759084875 11.874136316542439
Al 12.79119828013213 15.473310868969277 9.389827366715105
Al 14.679491891328942 15.388305267931262 11.227472482785936
Al 13.10171288229647 11.195602580256162 9.273043372182741
Al 13.639352533373511 9.008932154854337 10.954139133141839
Al 13.459339472493753 8.133127468083142 13.935999758734287
Al 15.271617040903884 13.211134129438092 12.830549486803383
Al 15.014062298687909 10.09802962482568 15.07236733066112
Al 14.718677230378008 13.472377728405592 9.09030566145481
Al 15.403163979278823 11.330930811031298 10.799464404197488
Al 14.62824586101311 6.705305063593445 11.996721750465571
Al 16.876564828241822 13.689987625084543 10.728903114956141
Al 15.719967956472015 9.131974688644167 12.60298511311593
