44
Energy = -139.89975473 eV
Al 6.5809007523983185 11.84335718172879 13.098574152465055
Al 6.658934570804249 11.945892072946567 10.403334785898554
Al 8.606944583752488 10.461434209681308 14.428648729451037
Al 8.444280433912386 13.39712197764988 14.352228025771053
Al 8.42588552792491 10.31070536683043 11.685391675406548
Al 9.243571993759387 12.071872046917983 16.536996231634763
Al 8.478013640628207 13.429519860292357 11.62624704652704
Al 8.299978804612682 10.553031023974853 8.89303628068844
Al 8.343852541099121 13.470826067759699 8.73371293103985
Al 10.429027332337169 9.060902776836382 13.007376394013134
Al 10.448386839553814 11.958546641669836 12.854236431649428
Al 10.245420694981984 15.016262178217028 12.882579187079498
Al 10.156062338098248 9.064291422587305 10.227819324101391
Al 11.220123391947885 10.74625938302131 15.159342155034386
Al 11.11878435044293 13.57714616633575 14.94525699332523
Al 10.11182027805544 14.998313443456606 10.044113112259357
Al 10.274292897775187 11.967348249106928 10.130043245106473
Al 12.31862732222647 7.888062590051376 11.500893830587527
Al 10.07826428645496 9.240264652551053 7.411682687219288
Al 11.802104830308378 12.50908429135601 17.418538113775213
Al 10.014840331564438 11.974319158266097 7.143213302751075
Al 12.389130081416104 10.632164706048266 11.24800358057468
Al 13.438069085433911 14.270320362786292 16.075267066345063
Al 11.859582280371656 16.437898751226676 11.339410433389622
Al 12.001209505923418 7.8805999356702685 8.720478424126224
Al 11.725524966810996 13.590071754823535 8.302916469105075
Al 15.155165397857909 11.151560675113435 11.3947024077737
Al 13.064470400965538 9.563858817156973 13.73750630878248
Al 13.746103362887844 11.496197569153427 15.904044942528342
Al 13.098547001677346 15.074761930603174 13.449109693788449
Al 14.932922553982126 8.489237205321555 12.242604722154558
Al 13.666947094399173 15.025552538357424 9.382462255534616
Al 13.15006423882917 12.310607651578685 13.33682155185198
Al 12.224776079065782 13.64186019450932 11.204376551734248
Al 12.091218654417402 10.738858550326583 8.481180679345211
Al 14.50631738509222 16.533706133931354 11.45295233826615
Al 15.374472524840181 13.4153780516746 14.614225281037728
Al 17.342698030928293 10.011501441300146 12.456502345988246
Al 14.119620898045305 9.292520158293057 9.578798960625054
Al 15.517780915464408 10.623406651853756 14.215413450083151
Al 16.674616697293114 8.94724320823561 10.154953500052665
Al 14.959026568429763 13.87287332947778 11.610513622042129
Al 14.069504290107888 12.355037943861165 9.302301987532571
Al 17.07825051880198 12.646357953141269 12.798325067234588
