40
Energy = -126.41808411 eV
Al 12.163109846595203 16.95111849975625 13.088726130596905
Al 14.004743075046726 11.503113691983538 17.004080033465453
Al 12.964520199636958 14.367303908499355 13.285601674994508
Al 10.98049797992837 15.460980056127523 14.967755607306152
Al 14.762228510069201 12.906378935620388 14.745169719417536
Al 12.456194796298016 13.484002839587715 15.917366629609832
Al 8.561932522616713 14.480437260384456 14.584805311558595
Al 12.516553517658561 15.580282962411102 10.883336705841678
Al 14.502760032439472 10.21247450243699 14.605556286935384
Al 10.09030943165944 15.371654218081211 12.347505184688556
Al 15.967429506354414 11.938767295790996 12.710306499386109
Al 14.195095253606725 13.419890217030266 10.954433728873681
Al 11.979922080086823 10.767623323983683 15.429550347634375
Al 11.295175179135482 13.090500973752201 11.310593369688887
Al 9.654105869402043 9.917633071668705 14.562545266925225
Al 8.556503116958863 13.235350896475792 12.209000365600806
Al 13.150970216459617 11.678102712208714 12.77858674366259
Al 10.633487158532018 12.676489369943612 13.955207604986658
Al 7.955223105028349 11.962330793316124 14.56777463737817
Al 14.100006567413722 15.029115284588121 8.735465605673438
Al 10.047298600048538 10.81997197758843 11.96389001031456
Al 14.138067225962669 12.432156462887667 8.449985423393773
Al 15.936144564595452 9.173287719006334 12.603841547103723
Al 9.30672952969133 14.398763179739205 9.778820103549783
Al 8.86897792610525 8.340081436357414 12.582379241664915
Al 13.82312288425208 8.457030796739517 11.201825336681544
Al 12.135153098602972 9.271281175935492 13.196968193856854
Al 7.674258489541375 12.098982181744729 10.053203627959174
Al 12.312970267337125 10.663758297427458 10.351687940147622
Al 15.026227603843997 10.841353949486557 10.56561126241665
Al 11.71153359344201 13.838275155884023 8.688494091927687
Al 7.303540427938168 10.582197598329437 12.361052929288194
Al 10.084527941191741 11.732437516727927 9.182119528942053
Al 14.235255588902033 9.679650503915484 8.329456849058126
Al 8.54251881247659 9.511409009242575 10.121693514649797
Al 10.984516163082324 8.189334395018733 11.03328877713643
Al 12.009696027823903 11.13175255913749 7.453229629168286
Al 12.67683087020951 7.575888006061471 8.979144026150175
Al 10.589626692347565 9.098719014773259 8.460098774528943
Al 12.583610682290779 8.611493204962672 6.4812166924492995
