49
Energy = -156.25440623 eV
Al 15.541054594320636 11.573681642571543 16.371250176699636
Al 15.869799661425825 10.131721971486858 13.994372774874442
Al 16.387581067190737 13.440725353534896 11.709677530009865
Al 14.916835410106854 8.894455165316552 16.47849903184552
Al 15.00965315862624 12.908165557395511 14.09719834750879
Al 13.117483851033338 10.607664651056874 17.686105931125304
Al 16.013776374137908 10.84512988250152 11.43787048865546
Al 14.722211433072777 15.22862588166222 12.685916456090231
Al 13.081297959480622 12.935865755886406 16.396008298425002
Al 15.627243531410414 12.420574471234069 9.070823939947358
Al 14.106847310765778 8.051421210582594 14.020688887310028
Al 13.394025518247302 10.69076733204171 14.921975918959028
Al 13.781359593344822 12.56719778640116 11.346822159370522
Al 13.18804794043514 15.000888381214487 14.906977297928945
Al 13.59207572002826 17.10661267880832 10.56400636740404
Al 12.135585495625076 8.58802428994645 16.00553025266409
Al 14.910524167485951 8.281313816947602 11.473762998436428
Al 12.857383471234055 17.09148487826166 13.40284710375569
Al 14.590508318941245 14.769214076870517 9.931369588133753
Al 10.936340413379892 11.152239008413364 16.005161626732946
Al 14.041921093498985 10.287554372050295 9.658632862177555
Al 13.15433610640415 10.207903657285673 12.332455488622042
Al 12.724770614146905 19.22532851913786 11.891044442992158
Al 12.203296359653933 12.797116789465703 13.559940658759341
Al 12.15249714181777 14.714841757410055 11.470439190708017
Al 11.596964602563911 7.987523187089465 13.145354775056555
Al 10.679494529126663 15.41276495708019 13.685664379661244
Al 10.936851764883167 17.303097066141174 11.402224761295319
Al 12.251478164737467 8.2772737020218 10.479183909745743
Al 10.54320119000089 10.641692108055945 13.088347785413648
Al 11.731468629433545 15.692063711434063 8.959353281024859
Al 12.788541064830687 13.067621478354724 8.755429091903197
Al 9.649918673652602 13.04410798290285 14.663968276607884
Al 11.411570754825183 11.142649293604068 10.278326979676583
Al 12.35521059022276 9.133139213415589 7.977543697253573
Al 13.778814497475325 11.217714090921696 7.035472471959925
Al 9.734258484699971 8.892507764069107 14.991770611633477
Al 10.055545036951269 12.997645325001992 11.849803594786431
Al 8.12109325247859 14.743554103169703 13.026463313054519
Al 9.528727228811075 8.216386759857464 11.383133475542476
Al 9.353603030268522 15.413687469952782 10.637488702997418
Al 8.017210162239023 9.506458418237367 13.157481641198025
Al 10.175383811042927 13.429187430954544 9.073216151477936
Al 11.004440973961202 11.414119008333401 7.4474927555918855
Al 9.869154722255308 9.216550495908589 8.943101296149466
Al 8.681868338354416 10.778974626214136 10.880438023242702
Al 7.6478511631912465 12.136737905189126 12.998229135524607
Al 7.613430297817905 13.329130248808049 10.370189225427445
Al 8.408807897356043 11.478239932792428 8.342290011634915
