47
Energy = -149.49561702 eV
Al 12.901418509613896 15.245637015721629 10.641810106822323
Al 10.82564333620413 16.58990602827855 11.669778778359133
Al 8.459618155507991 15.760977095768522 11.183409237322342
Al 12.823334270287758 16.279992116920113 13.369366808832911
Al 15.093795377734875 15.106140584796199 12.542103448377128
Al 10.659435462769002 15.657140945412445 9.1206234272045
Al 15.39055831578999 14.745315215274983 9.866916729507631
Al 8.037822963609084 13.780107003668206 13.097656577513092
Al 13.028576741290655 14.208124975911375 8.126693371200915
Al 12.671328012574191 13.510785985068672 12.694304229632328
Al 10.191480732382347 13.844015695573088 7.144171982055533
Al 12.866212883768918 14.475578899432383 15.258228741359517
Al 15.048638126346018 12.326111078335947 8.851419228452073
Al 8.335341793143488 13.999801887005512 9.062270217757078
Al 12.5317386580961 12.432822012114647 10.23373915034875
Al 10.349789532518512 13.80214164924444 11.15903257179528
Al 6.336683267089289 14.11577389569867 10.936449160143592
Al 14.348649313048625 12.3857855924197 6.282667018303188
Al 8.337050883840236 12.29122459239446 15.264805335216888
Al 15.04305059347867 12.59733401954191 11.529649066592395
Al 10.432756497873113 14.748407340460078 13.849608227555054
Al 9.957960305173481 11.915995575567077 9.194502640749363
Al 11.937406946025465 11.814841547148124 7.400632401704297
Al 13.989607051623276 10.033618055825748 7.709777411222812
Al 15.013318462273746 12.941624332547098 14.316472002463906
Al 10.80919389223855 12.832394157720227 16.145840340295237
Al 10.266134485661617 11.945716490305731 13.099482999022833
Al 11.676912446989427 9.934612247850735 9.393043674688238
Al 13.811707868937587 12.682410572594728 16.989315377662074
Al 14.297428686738733 10.302955055971703 10.473210382757957
Al 12.587896160758888 11.562050097601807 14.528199415196424
Al 14.72585658295723 10.413107140793516 13.133488715685045
Al 9.604008267105568 9.888450604156343 11.09351628554594
Al 8.005652414364995 11.992339996456021 11.089854297186355
Al 12.119798868084365 9.991330939808863 12.261066317762689
Al 8.070975812025353 10.29871145117434 13.403499236933847
Al 14.850573768999176 10.441559300124732 15.817454725300102
Al 10.084477474787576 10.213107036257817 15.39725924505256
Al 13.470169057876943 7.95113994575674 9.353227163888233
Al 12.205814495104004 10.51778371003444 17.083781148347178
Al 10.03708898927291 8.384001309960532 13.365785555183908
Al 10.975304872993833 7.660426161515723 10.809379473666858
Al 15.009436080800846 8.002918130864114 14.522120178087812
Al 14.445357247112128 8.017417708858531 11.914070593169473
Al 12.448903631173177 8.913884726262859 14.913141889595373
Al 12.290320787507591 7.004901121268082 13.170282043098018
Al 12.958328037219085 5.802135075305976 10.899449192155245
