55
Energy = -173.71879349 eV
Al 20.456524376033826 13.853770608867412 10.523707881959009
Al 18.096349844250597 15.338489739223624 10.039699867382414
Al 15.563688810977814 16.405168945359183 10.484272156625627
Al 15.741195697614614 13.828262314979046 9.760809082235676
Al 18.115029151966482 12.670423641587664 10.346518914983017
Al 16.135204383251327 10.939458737508982 9.790142403935741
Al 13.906846457706543 14.702737620095643 11.880556760082545
Al 13.995610639288945 12.202695478588232 10.915868698445319
Al 13.324696056755784 17.422501464293838 11.438743754624241
Al 19.46819259613452 15.196815909301664 12.543275921974882
Al 11.564435733126068 13.017272663623139 11.457754036866033
Al 9.648831676700459 11.236124109183327 11.988282664065219
Al 15.413320768199526 17.048033045757652 13.231974648227329
Al 19.532914617131144 12.482162948073952 12.800488635570167
Al 11.367272962570386 15.705220137081733 11.967224709051306
Al 16.578972885513075 14.356236192298631 12.311799475488248
Al 14.774668933132912 10.034796014497173 12.107289235347134
Al 17.789875349224474 17.23224724121892 11.936604270777924
Al 12.869268318331573 16.97104095099767 14.067053076293531
Al 14.462996413276294 12.36042578251312 13.617750095156628
Al 17.60854361044273 18.60991527860177 14.19627272798054
Al 11.388144379276262 11.484111456567923 13.986088397020989
Al 10.262189565983855 15.739400886229571 14.529001003691073
Al 9.54631514419328 13.56560595173987 13.207176569647514
Al 16.99269830231863 11.40984118252551 12.400593476864541
Al 15.23472583971082 8.004010241646968 13.629943430665417
Al 12.387320471787707 14.101083372456179 14.042139324270268
Al 19.749350221886843 14.08565398687191 15.067675595001116
Al 10.328036811965173 13.333170326010219 15.89504176963582
Al 16.007357591556108 17.005146239347923 16.092632819221894
Al 14.997998781678756 8.049192047689058 16.166607121733712
Al 10.910895373497718 17.87480066833996 15.819225363140172
Al 16.06012526353355 10.402031198359813 14.859161470854813
Al 12.52795738189351 19.58489344238561 14.61445882674395
Al 12.857895893652634 12.333419782743462 16.158472604589118
Al 13.401212990253967 9.905285791290765 14.696189185637362
Al 17.73745999991895 15.891460230893035 14.36984417473016
Al 17.36602556681439 12.941362119040908 14.47811143626407
Al 14.966073881941284 14.806612601533896 14.792227946553771
Al 15.179229383853208 19.385866137002818 14.739873487845317
Al 12.621481163232437 15.461177090584572 16.33406914876825
Al 9.187976371811654 13.372552682541247 18.24470287038455
Al 14.218747379921217 20.80105671292793 16.68238892865623
Al 10.047098952636052 15.780597286591147 17.50719143582264
Al 17.578815705762096 14.593265484934964 16.667365529237834
Al 11.797617362423887 13.815965246017054 18.474972738881227
Al 15.661872693951668 12.613318328902269 16.44452016546353
Al 14.47294491777636 10.322128527113492 17.25288053306933
Al 14.112107129464988 12.418323672408198 18.649952021430114
Al 11.78649530604554 20.111341436284835 17.148784543290873
Al 15.11169879174594 14.94826906428996 17.74322713955252
Al 12.960735892315316 16.323134092789058 18.881412426372226
Al 13.585447875316426 18.051103912783162 16.829333433530138
Al 11.08530026446008 18.07082701699993 18.533260977105833
Al 14.081548742621207 14.425533635337084 20.280725764081343
