54
Energy = -172.10761757 eV
Al 13.639431265034208 7.882358062802618 8.906646444827807
Al 12.575160617344793 6.048036729756112 10.770996369269062
Al 10.572029648317876 7.551423400692224 9.591614082411246
Al 14.134415838899027 8.029169540114514 11.717829148887322
Al 11.438701482611913 9.105379998809987 7.6303006226540395
Al 12.769804464110102 6.382481966456154 13.539552798513983
Al 13.766162968211104 10.598146454182633 7.898504676042882
Al 15.110853788832907 9.96663645220815 10.124901316707207
Al 9.948991754915172 5.837579877142209 11.590605676044584
Al 16.016169192854722 9.823091111205127 12.71778398758879
Al 17.387816684124104 11.474395311011737 10.900799076195444
Al 12.164881269288138 9.785961894158023 10.18829848406725
Al 8.536066089882596 8.158270660366734 11.315817186134788
Al 14.014879599060881 8.704845075070972 14.397211756138006
Al 11.176836690764665 8.178631729007218 12.251035227151407
Al 11.292644169241646 11.703831883362229 8.053151380798605
Al 9.536080598537469 10.173298912470012 9.517729823509965
Al 11.316777951151563 8.554894551966195 14.900811129426032
Al 15.706042212197552 12.435922380179893 9.044872560524077
Al 13.488474212557596 13.413438155808523 7.737472414485659
Al 17.4006089593809 12.299093772016665 13.492248398424612
Al 13.354860455584209 10.535893705411793 12.36627836982101
Al 13.118832831249412 12.233545648593905 10.16808153585379
Al 15.080683635420128 12.545953976204492 12.087577522174493
Al 15.07087898178478 11.296123444180562 14.82097210282638
Al 9.873104962645913 13.845472767089074 7.844684316889443
Al 17.08168658956354 14.162081259616796 11.198811372179394
Al 12.38346003452525 11.82504591605114 14.34532320868119
Al 8.844832521127982 9.16846979012857 13.770655179642997
Al 10.650090723250276 10.771757484008523 12.4560237351782
Al 14.532896111407121 14.684109221002867 10.068754959470736
Al 7.8348906930306965 12.477619172282072 9.342752753000893
Al 14.225719589113812 13.81851414383415 14.789729623164815
Al 10.332341423990934 12.697630782512352 10.599569367418654
Al 12.833012012668068 10.184422374410811 16.409620051518544
Al 7.8825000632025075 10.7652527862204 11.532954457773984
Al 11.780846813395428 14.870753790860004 9.518516002675792
Al 12.660100498583311 13.706968821651097 12.287598439296673
Al 10.214383036623579 10.980115694230818 15.579962799238539
Al 15.03762039599066 15.266828325668879 12.726703198907659
Al 10.110090467713357 13.163324837362671 13.600698813937539
Al 11.695795623001109 13.965724757184166 15.826793185337285
Al 8.71400135691956 15.12063467055196 9.883829566417456
Al 7.919196518349083 13.472575322738503 11.896906830810243
Al 7.858789196327445 11.7058445791339 14.071623557719672
Al 10.476974774777293 15.213783615939453 11.989895299498498
Al 12.8252612587945 16.535721833861228 11.36474237062263
Al 9.9780435616911 17.420176283857124 10.44200625756969
Al 12.509763754923238 15.897862552953297 13.936915637533502
Al 9.082266731917988 13.406726501909619 16.322191201781813
Al 7.530195511481443 14.364128343523777 14.382939399179296
Al 9.8880149014733 15.714152311750103 14.698074467098566
Al 8.123598296193393 16.448184348544835 12.541730265917577
Al 10.657075533270245 17.805297349593662 13.055099961696987
