52
Energy = -166.58688423 eV
Al 12.543537949938791 12.305302015590595 16.25516684245345
Al 12.649713109083914 14.326377115766684 18.378547312181283
Al 16.135818388913556 9.902111205795494 14.245927795671935
Al 14.330145232219875 14.362203910417247 16.234218796209877
Al 12.739223911515012 6.890751550793721 14.652386948871825
Al 13.322007025871974 9.733058467872693 15.195218305279433
Al 14.972610757112514 12.035188574530034 15.189763309763165
Al 10.181309080728955 11.024722412345499 16.138370681089086
Al 10.238212751333275 13.392364185467562 17.34595508318917
Al 10.522172135727521 8.809110821510526 14.808655992772614
Al 14.800284458641434 7.9786790502356855 12.995189259248939
Al 12.86057563503774 13.757881849551458 13.836786064379469
Al 12.973853734079007 6.188615543221069 11.929090268409547
Al 11.834147793090898 15.428386315756114 16.10302858017089
Al 10.504644419039046 6.741095365149554 12.98179807064522
Al 15.629145281654628 14.466792053030437 13.891632055901777
Al 13.92020186120361 10.972876283264675 12.70222452484525
Al 12.243361175725843 8.844353744643072 12.72331328107365
Al 7.965838713749174 12.91964558191221 15.735103749123647
Al 8.710958957942932 11.0490126901458 13.917389409614339
Al 16.501621106598304 12.128314472381659 12.863819985222342
Al 16.05023212401328 9.825600302673998 11.303673194028027
Al 11.454561959431881 11.34344729067361 13.714648740020941
Al 10.287537256313001 13.748965652450208 14.654545317125923
Al 9.540386612998802 9.177332143657065 12.177510287922367
Al 13.776721291468526 8.577880904362251 10.479392261625577
Al 11.476550762612847 10.909935314669742 10.979734989959862
Al 16.634207938573905 12.140091395215727 10.114423322032543
Al 8.739980533630863 11.606887323248092 11.212942493020316
Al 13.920889518048304 16.445977353428514 13.410092483719604
Al 11.181777934082124 7.705085018479123 10.376026186985177
Al 10.74828648535553 13.377493739041343 11.94300738746028
Al 14.27282087833022 13.418491612823313 11.55952670217448
Al 11.290958038240642 16.323036050606692 13.780271865205314
Al 14.011036481832873 11.199613524028516 9.91424113232698
Al 16.848298702780127 14.412343762217814 11.476178986546493
Al 8.168729810239984 13.634476613950294 12.960334124906908
Al 12.01460819562325 9.646249433937596 8.607768669041626
Al 9.401024574828666 9.652284433042873 9.442571539175548
Al 12.32334059481245 15.506071302003281 11.429481125190785
Al 12.239756827770305 13.28118393662012 9.769446436863674
Al 14.892370841871806 16.028374516476067 10.73865441307198
Al 9.433577897827721 15.939652504735434 11.983397321661851
Al 12.949513721609096 11.842148508094999 7.460030920917018
Al 9.981029929424134 12.15453724297809 8.68332278061435
Al 8.411945783113854 14.072222957902925 10.269148206788051
Al 14.799023199430673 13.535989992128604 8.677147561646063
Al 10.476716687339971 15.763774995520798 9.533646716515973
Al 13.083619280049522 15.77485698961203 8.696438908642541
Al 11.515387441903448 13.948894812684076 7.193752954532078
Al 8.939589563280737 14.52946291495229 7.668834270325548
Al 10.8441857898878 16.50884438433622 6.954272519768893
