51
Energy = -163.00254426 eV
Al 6.733121304606048 10.304012197548307 12.68986300989036
Al 7.92015610762857 10.040891087878753 15.094624695141405
Al 8.238309918318073 12.569747677381683 13.579711713679888
Al 6.735926697550944 12.4527194689828 11.118540055950628
Al 6.52066694498013 14.688397971779384 9.456704501774912
Al 7.968879166972376 14.677871259581323 11.83951218129142
Al 9.851796566061907 11.67576921154355 15.762885967442077
Al 8.185062033868922 8.082051492107324 11.962519484318415
Al 9.270614393250163 7.842351668712295 14.336445745356249
Al 8.311120414748626 10.351867162793368 10.430129428521166
Al 9.674271529219846 7.990164035826888 9.749562028646286
Al 9.712793944737223 10.371645144815414 12.94305890415621
Al 9.562566465420883 15.000532961465884 13.918229845622408
Al 8.30929603580622 12.649069307529807 8.768081601520633
Al 8.524473602582058 9.734146177903687 7.843217481242416
Al 9.680800692548628 12.57506310132717 11.087059674043944
Al 9.160673887754074 15.37787818916162 9.493163862485206
Al 11.0277851589468 14.04893234588855 15.955120726500258
Al 11.091659284758853 8.102703863607108 12.348151347879007
Al 12.384494748762743 7.8295887667960455 9.924837717882589
Al 12.503858922230732 11.576917586966461 15.546338207500744
Al 9.56429703342422 16.912343014070206 11.931764065691231
Al 11.247972339577098 9.290727536948403 15.178558456901316
Al 11.015752890108793 10.32804856516901 10.354638502357915
Al 11.130797604091129 12.77957664724624 13.418500160855217
Al 12.47226379913334 10.51981414598523 12.888637552881775
Al 11.143827253195248 9.265601865942134 7.767228100974741
Al 11.122509219285895 14.880332196426897 11.265349922836856
Al 10.175155117679198 11.753224227082153 7.055836324581395
Al 13.823671158552745 10.246667075357276 10.38056412203671
Al 13.72329501208114 14.003275040653428 15.601206881944622
Al 11.023022317682923 13.843219170072434 8.516013683574284
Al 13.891022624043028 9.103719191746654 14.855272902081026
Al 13.797103411762224 7.996842210991502 12.336246197701517
Al 12.230630213547158 15.397687226644816 13.650623756820043
Al 12.490111836345845 11.579334582003083 8.231172914701917
Al 12.422253018858877 12.570704857284928 10.849219043175836
Al 15.112782006167274 7.85652713774153 10.03396602759864
Al 13.798057280988864 9.139601980498915 7.842112304482208
Al 14.069384025884764 12.971864363272436 13.089481104749543
Al 13.797089607576371 15.035038207990684 11.199505633801023
Al 16.419173089758573 13.888477069719292 14.877934296201188
Al 15.17369208150034 11.51415019955952 15.143850690321141
Al 13.741501458761196 14.015494593278076 8.650599254327544
Al 15.23075127652826 10.26529259536411 12.704921028397116
Al 16.59071586731314 10.476294798657053 10.393707498052368
Al 15.142109388849088 11.617075477367703 8.18057236967355
Al 14.876563042898434 15.631346766961215 13.564254563637894
Al 15.190882104566839 12.76637439767129 10.629505790052182
Al 16.48813984069944 9.165280601822943 8.020386257805747
Al 16.854359130231153 12.370956448718447 12.667825282782971
