5
Energy = -10.56294632 eV
Al 5.519970040239149 6.0129945205591895 4.831242347348739
Al 7.9519366665153655 5.065913444494166 4.792032945204334
Al 4.738661882540813 7.129351521711501 6.913048397564671
Al 7.4845213941790165 6.622279690310183 6.708363084043089
Al 6.438097365745588 7.30445843575693 8.886866175377898
