5
Energy = -10.12953619 eV
Al 9.829800623132284 9.023235920988483 8.503095523569735
Al 8.285202978556478 6.747567460228167 8.760135784439276
Al 7.531624940980729 9.253985491249326 9.624399642060661
Al 7.5755847405805 8.886264051949032 6.897494884250484
Al 7.070304914165041 6.381465272999681 6.507392363094644
