52
Energy = -166.52038262 eV
Al 18.336380215732735 12.028519322211002 14.3216082018137
Al 16.10954264990065 13.652768972738203 14.315486697453343
Al 15.934591321558583 11.098878806438298 15.200850588139797
Al 17.348513107819088 12.739393988009873 11.914250688302884
Al 17.09798377586673 10.082239135636003 12.893908910303905
Al 13.937156565096776 15.232460765893011 14.311214343120021
Al 13.6576901351118 10.125144550743764 16.136538909887882
Al 13.563706135150428 12.584651275714785 14.918909480509406
Al 15.368511854584547 14.55702002983509 11.902080211856768
Al 14.797473273686615 11.677510404303547 12.689254855093367
Al 14.807611128371608 9.057915995244693 13.798291223753825
Al 11.625701955751408 16.651129500297355 14.3357507363015
Al 11.217041840359615 13.969305661973538 14.774996089467686
Al 15.536101663072793 12.22404952218184 10.056598781930266
Al 11.477378694355066 9.02401918085136 17.242670182840822
Al 11.382652730442748 11.563093584708493 16.189584720006113
Al 13.302449213994269 16.162152385515103 11.921918953794004
Al 15.3345824773126 9.54595716828394 11.015017209791266
Al 12.412574694966704 8.219635399117346 14.75330295443271
Al 12.735777619800848 13.403615580721603 12.399671721113922
Al 12.03270059375926 10.721452850289952 13.411366564970589
Al 14.798630120828268 10.128715153924807 8.454430539943434
Al 13.848957559675156 14.339011515998386 9.784447705295998
Al 13.062573447320132 8.394625111080812 11.963838645141973
Al 11.16470170026759 17.76948542465803 11.844900390218065
Al 12.906796144743913 11.144485563856696 10.659150124430694
Al 13.11393189492739 12.151521858431414 8.012790039133245
Al 10.605658173844159 7.5123346812635265 12.96279645394313
Al 11.312382644070382 13.380400838691493 9.777467075271382
Al 12.704302161746632 8.686636796239796 9.082342730753409
Al 10.686025799764153 15.01941453448464 12.180977244048803
Al 9.893495640605863 9.358506410354146 15.075377080070503
Al 11.67742003365031 16.161962461179172 9.776845695469975
Al 11.443086140671564 6.790915970915151 10.462875293155555
Al 9.042523869805406 16.99802289364528 13.533431573237333
Al 10.773229652014974 9.410478548994028 10.999005419802517
Al 10.202199748581581 11.967092923706284 11.608853530496992
Al 9.610038207604246 11.838845306339653 14.174548635459486
Al 12.334931634401151 14.782887215312421 7.631418419029429
Al 8.461906057224548 9.196885310037487 12.60691267055207
Al 9.071211638983314 16.684242304406148 10.629093103436022
Al 8.581122416471638 14.26146841240967 13.713838011507523
Al 10.589615055182987 12.791667513782896 6.821142509967117
Al 9.573892564945016 15.081432045890958 8.378171452433703
Al 10.836428670877089 10.751724899188845 8.590882381432406
Al 8.719701066627591 7.3263494267395 10.689360523549668
Al 8.323773439117392 14.183508818520698 11.052635788672395
Al 8.80193929256161 12.528956173625208 9.05427610298299
Al 10.021701488364341 8.162833337588383 8.474386890616506
Al 7.3664513654152834 10.389646835499278 14.650955751100817
Al 7.5785719540055085 11.871060061702929 12.335172471524558
Al 8.378928220159374 10.116217021975705 10.01665317359058
