50
Energy = -159.06290113 eV
Al 6.565932914989243 8.455149743547581 11.304689836705283
Al 8.0318616068103 9.071068970379782 9.163320104294888
Al 9.889149587490106 6.568112078020106 10.94481713240142
Al 8.00935479371721 11.991657070183534 8.445499549339278
Al 6.993219285644635 13.746280584773915 10.326967139267998
Al 9.593889635217325 10.037456584579523 7.19098155741249
Al 7.587510252935724 11.091307815302688 10.954152434839944
Al 10.798714325376068 8.422726550764144 9.124917510346183
Al 7.946425720203056 7.369342743258364 13.278295261366598
Al 12.046595357980266 6.076332632185035 9.418674719572346
Al 7.147758554859314 10.156043283625229 13.42098735430609
Al 8.971848138721159 14.71066044610401 8.584600537586043
Al 9.384229631410513 9.112369320258328 11.69802728632723
Al 10.530217043837457 12.494331382974694 7.433794209184987
Al 10.555439084576486 7.316620138399196 13.509086266349053
Al 7.118934768112218 12.832301467866344 12.982443483593112
Al 8.672133472104766 15.767791691518605 11.204280923562395
Al 10.180645002905834 10.905942035320368 9.806551836905092
Al 9.602448884698592 13.227547300494935 10.82659399268852
Al 12.3745437526563 10.357437424093375 7.586101449963496
Al 13.615139196606643 8.232075788554058 8.699405720985384
Al 12.44582286863566 7.657383470228497 11.581075469536833
Al 9.641038509381556 11.551918137208144 12.824470731932426
Al 12.669270286707127 10.117763295646597 10.39024625685481
Al 9.475940138556423 9.578600214811074 14.61755024201124
Al 11.901088361413748 10.015716329432648 13.0201048180938
Al 13.25998488426956 12.84927360428553 7.224085033056659
Al 14.804973074148544 8.438345107388749 12.693603266432653
Al 9.356565898677124 14.158083259639001 13.479912174392068
Al 12.912193434527717 7.907343295545346 14.4880958732774
Al 11.582261844979568 14.97049027683494 7.505302841986794
Al 11.892499470879548 13.759736203198274 12.344550137815526
Al 11.20607589194918 15.451727706181432 10.187487051337705
Al 10.985877007778114 16.332560493657503 12.89187561299884
Al 11.969762531245312 10.106447505125775 15.85786656642535
Al 15.477018248313076 9.469543300158922 10.282425689723217
Al 12.126316601438827 12.827493678280703 9.800753989402024
Al 10.3376902932421 12.247691345532727 15.381594150985771
Al 14.627671291527102 11.875174249779484 9.34535469657576
Al 14.20568715177453 11.179632424374477 12.169892941476306
Al 14.499976559210461 10.223060553738389 14.735065985996243
Al 11.52543204216747 14.64994686004411 15.068191001944276
Al 16.746667692334256 10.1980920126605 13.109599879926899
Al 13.977229582583261 14.945776416504291 13.924095837658342
Al 13.840814865196243 14.886362760950009 9.074912630763567
Al 13.419038515066697 16.161997002697515 11.62267661115762
Al 12.927170584663614 12.353777608065792 14.425914109235967
Al 16.655066583205983 12.071253417016193 11.209352714221053
Al 14.553010772866305 13.73855692853419 11.42200611442006
Al 15.750284645979672 12.734213779650952 13.815859924098481
