53
Energy = -168.71129319 eV
Al 7.812473345013075 12.771205403962844 9.230068648457507
Al 8.483326320839353 8.250695669689316 12.583422977592365
Al 9.664822236131355 15.811056253772916 11.933398984351205
Al 9.57613645863615 7.982837421366218 10.154852237230852
Al 9.768403115891752 10.391807042050754 13.672448374903361
Al 10.376412542028879 14.321958600425706 9.77941068673247
Al 11.879913076053242 10.069405861686842 10.420402184250992
Al 11.06635576543662 12.104433553725253 15.385445254333847
Al 9.41851630975992 7.959318265009417 15.09431781026032
Al 8.031005210061249 10.250609165907994 8.307589425283098
Al 9.096125048348403 14.473227775924942 7.430543579656078
Al 12.201375088630055 16.219715264319248 13.404651479138987
Al 14.19857720628875 16.658971521887317 11.19026872133972
Al 12.169278278330937 7.06679182085333 10.520681237748587
Al 10.332001636712146 6.0091347460142615 12.349176441435102
Al 11.552774794542778 16.90167313006883 10.496709562243277
Al 10.151632542063869 12.01289027498102 8.111999671402907
Al 10.206400940801366 14.243126144570688 13.963948295283897
Al 11.330277701428047 8.408542199516951 12.840226556298465
Al 11.677817430293338 9.351135126697521 15.744823899063693
Al 10.518333465636406 9.33122734531447 7.99307121371519
Al 9.301904509781751 10.720955874709396 10.693992178263684
Al 14.516770958088365 10.363178305822064 9.206310138224035
Al 13.123892222498878 6.268981401625386 12.826710110404104
Al 7.004966936541756 9.021949602501826 10.44999538743684
Al 12.595882377478173 11.042065302988364 7.299513809054931
Al 7.217866623252838 10.77469708143342 12.484597188828173
Al 10.953287574994217 16.397061970785884 7.9022102673174235
Al 7.741158815774038 15.238335280039045 10.124638826563876
Al 14.00593332391193 8.810407946425212 11.67810347517965
Al 14.479270022966666 12.984250015846538 7.811845512434234
Al 16.395763807301904 10.027486978353762 11.371620938261383
Al 16.485187044491703 12.063772953575823 9.679238437439992
Al 12.539869512906845 10.650223504147068 13.371903715178547
Al 12.972016746708812 8.434032401875001 8.453746323449089
Al 7.261440110794537 9.58958231854642 14.881249834695465
Al 14.09199088471992 11.854980512637963 11.532499842689683
Al 11.704917156850273 6.537454985139237 15.067418090772028
Al 8.419252308541544 13.258228652972678 11.998564822544887
Al 12.478575325999405 12.595477567644949 9.55590957686217
Al 13.833887691167195 8.41806073534012 14.478523782385729
Al 8.36199521723058 12.44724899806166 14.685329627355532
Al 11.850481522119004 13.874191628639746 7.089032569520016
Al 9.28511632005575 10.437481895133974 16.522452747521744
Al 13.244517570831015 15.34398922122202 8.822751801165248
Al 15.318070002473283 10.614497100774994 13.80429531784663
Al 15.07975530039687 14.203034575574579 10.295671080835584
Al 13.015242333043846 13.27396984743354 13.964868956489001
Al 16.566380676285238 12.725904604961409 12.312690221168294
Al 13.674106355436138 11.164345332429644 15.822805421071024
Al 10.942698111305994 12.32362420969626 12.040398660783818
Al 14.923818628442254 14.784946990505707 12.979644157378047
Al 12.516698006531884 14.427513550164793 11.460602786852741
