5
Energy = -10.55409852 eV
Al 9.723298457448415 8.536081092379286 9.960833130629467
Al 8.86413093339477 7.165953832461231 8.048240925620885
Al 8.515723540511548 9.998011324997824 8.18373585431045
Al 6.595529430430842 6.207789298702086 7.5967892353731
Al 6.889445054088077 8.68035348287363 6.798561261074455
