53
Energy = -170.2369807 eV
Al 13.411372034105662 10.035511257315006 6.724656593175782
Al 12.133032321754833 14.074061954415418 6.918599637290914
Al 14.291781083300155 12.528044006303212 6.635540824528903
Al 11.456569317209029 11.711928506650176 5.929504641441388
Al 10.77718790956533 9.767451910807926 7.899996366632317
Al 9.908564148713193 12.638449675960672 8.104856567451726
Al 14.93906971171188 10.890419695636625 9.015558607382719
Al 13.112013237442937 8.74053862079597 8.991524803723223
Al 16.49438573961584 12.820743836066084 10.04134162692375
Al 12.454945250629448 11.813319552659978 8.618299941245843
Al 14.09720657906011 13.902757656266164 9.178663690073595
Al 11.316865250922108 14.983309208580819 9.187475115612463
Al 8.648341589055699 9.237498916379105 9.457903833758621
Al 7.869210021528714 11.794930938493483 9.69998412004502
Al 13.19491646398515 7.6849836366027375 12.059108441078477
Al 10.538672703676282 11.128225277074598 10.413289649831036
Al 15.23028342400555 8.616772507794318 10.617518033323508
Al 15.600663570514143 10.886681552826317 11.861383419910807
Al 9.565736189909542 13.651858625389638 10.751252409014272
Al 17.293746374982998 12.81877748869094 12.617747945035399
Al 11.006189452862204 8.507370349430825 10.636683930374558
Al 13.132167574298064 15.737199186527038 11.055990568163754
Al 13.042097147327139 10.430855001840781 11.20838170910097
Al 12.219961830193915 13.07555848518331 11.100870056506372
Al 14.736926221182188 13.710623454538258 11.910028088521665
Al 10.322930212856672 16.285565783403683 11.303097789100296
Al 10.823189500541831 6.86441481542741 12.792168300478455
Al 14.087028351789511 9.462006063714764 13.918361222808269
Al 8.57469008183074 7.52808946916991 11.509988649132925
Al 17.915156828812606 12.796134876637186 15.183006124111357
Al 8.722574670509427 10.201160386272178 12.154235986197403
Al 11.384034062824993 9.648120056165011 13.24224681395833
Al 15.49798163499673 13.686188571973558 14.65397085222196
Al 11.609606780378344 14.753947648816698 13.239380821984218
Al 13.184664212133816 12.057822033042537 13.48021623397075
Al 16.177277740042857 10.916242288733962 14.541095529663318
Al 8.806713855921561 14.672501353215717 13.135851895073504
Al 7.392816837580929 12.651064257510065 12.241495366930364
Al 14.135681056669025 15.771975192620872 13.661670585710322
Al 9.786681502936032 17.025377744311157 13.981113589551072
Al 12.149593448702518 9.54088989624751 15.952190323765757
Al 10.348372886437653 12.241321593540947 13.05986877299001
Al 12.2037832845492 17.586710985129226 12.843544694995419
Al 12.993384479280028 14.105367198880405 15.583789024790423
Al 10.43992134512441 7.696034524675456 15.252514819804755
Al 8.029554842633695 8.254538007981875 14.025495400025122
Al 7.003086536054492 10.740601060030313 14.204694965390221
Al 12.142406957545813 16.67469238160371 15.416456946557194
Al 13.961331651039954 11.542032869277568 16.056407567413515
Al 10.195381730441932 14.699988291690982 15.580323066940208
Al 9.537085218837783 10.24226856151544 15.18011377392871
Al 11.251879503756461 12.127793115325007 15.70840605778236
Al 8.534578834457434 12.72257286709583 15.14542740081628
