55
Energy = -175.92082681 eV
Al 9.051755592270133 8.52535383198053 6.6638690425863745
Al 12.950251833624426 7.121336167678882 10.09470017596447
Al 10.177106972289137 7.471634148050402 10.82116497323073
Al 9.762276511452024 10.268394093366009 8.99705760964419
Al 9.021204400942326 12.810007470296066 8.152536596290757
Al 11.47729416042737 12.698467901344534 6.9582993641762485
Al 9.39374831346791 11.106496254007174 6.058534218232567
Al 6.858087296356685 11.343011257198409 13.116403913703014
Al 11.76403148955344 11.04809255736999 12.598916316528507
Al 11.286472494556207 12.329800607457088 9.74292365906244
Al 13.78641675239977 12.962066004275274 10.6250837978094
Al 12.095613773133623 8.353576222216201 12.425321326266001
Al 7.295967992675234 10.55753746991554 7.842429415358958
Al 8.964243641673438 8.525232903953404 16.061260436454806
Al 7.0502564666669665 8.785393295324225 14.112209073579663
Al 16.203311797867112 11.726508011225336 10.363604263114365
Al 14.280726220264718 15.241321176745352 12.40811261452975
Al 16.178078176488754 10.520692656564298 7.841107118796292
Al 9.469506742838055 12.316445901833232 12.11290161907994
Al 7.182223146256045 13.880911659786825 12.323964809396696
Al 8.073707001949325 8.169199885769634 9.220929899784919
Al 12.210656117762305 15.393586695326885 14.113415440236372
Al 11.684097322488212 9.988824169887673 6.9407451326684155
Al 14.396132568096295 10.65571899093991 12.14945676041223
Al 15.88106987990151 13.176197544820646 8.115467506390788
Al 15.970870008133161 14.6953826797166 10.37814064853746
Al 10.802924474811919 14.899498810672588 8.488449926415116
Al 11.681586543854067 13.995967682762023 11.763799889453685
Al 9.406046745624483 10.45195667031735 14.014001089127081
Al 15.351945718729919 11.328208847781307 14.714530943253495
Al 14.717971231002078 7.748022809841585 12.083746827964664
Al 5.857615401584791 9.350505608229913 11.611766872788728
Al 10.220238335600833 11.081898009765377 16.470117356386957
Al 8.327494015288922 13.02926771174586 14.71611715932963
Al 8.66253859516204 9.689805030727975 11.545314499475026
Al 13.742980161531735 8.723710725056671 7.948337353813433
Al 7.518703737203166 11.794115749242204 10.27757312821862
Al 13.625890969731648 11.44921852839803 8.289227544856255
Al 16.012148486238996 13.012924383234193 12.690959744681038
Al 7.421114840288482 7.1613830024392175 11.714130352735223
Al 14.063129160694968 8.976765936462243 14.315631534920316
Al 9.557480116947412 7.733068347804449 13.431754859461604
Al 11.465518102175414 8.933321857332656 14.991040056531434
Al 13.09694498929589 15.78697788774589 9.985213545620653
Al 10.630686454380335 16.341456483320126 10.837452165811042
Al 8.901611224861721 14.309583308217947 10.351334716264303
Al 12.754820992845309 11.220736592304378 15.50857331041535
Al 9.575765275487067 15.061406733425546 13.10217207916736
Al 13.473164189776055 14.228022909264439 7.854333914428963
Al 10.964929837426237 13.070869105691754 14.589740251981441
Al 11.011269810942322 7.793750545542982 8.340327298145302
Al 15.29682000642264 9.22366828236086 10.031495710147192
Al 12.227967216864316 9.824945518813394 10.099899683868646
Al 13.463996220431163 12.965904796661624 13.637462613654025
Al 7.375315471262869 10.815573567787476 16.030664839248406
