53
Energy = -169.43842114 eV
Al 10.680392993741927 10.617750450920857 5.064342510554493
Al 11.32637133780808 8.112969820750399 6.122906405346062
Al 13.86184116146152 7.884596967373723 7.3780875672550135
Al 8.720328769602911 8.92658649809462 5.845122983872458
Al 10.533086773946028 13.153046658327312 7.407043861892411
Al 6.198629245992422 12.731514153420521 7.379653985833736
Al 11.871265142166529 6.002549617149645 7.738945053154371
Al 12.795608542508626 10.29232365542039 6.764216775022642
Al 8.493551656018612 11.914469803923037 6.077057491418317
Al 8.209897195719156 14.539243335343205 7.700589526314387
Al 9.233447346224695 6.789036529525931 7.468449403343609
Al 13.593173856740469 12.7734225250503 7.354464611143366
Al 10.168273416274085 10.30031453985799 7.708706058976707
Al 11.834184001368435 8.50971000346692 9.202595143920353
Al 7.028520635603642 10.06801709365815 7.574792480908272
Al 12.285963663008491 14.410294357862735 9.125152645057858
Al 14.281101615478388 10.096567651815192 9.101468403467306
Al 14.780222750900414 7.500131299013627 9.865971579416927
Al 8.910395374255854 8.830437122151258 9.432762874437325
Al 11.91970402636492 11.588767555834465 9.194121306477879
Al 12.815951141220097 5.715085423193293 10.233126915809445
Al 6.602094459544987 13.976738685614281 9.865838763634065
Al 5.910126652598582 11.33429099065526 9.781133660050994
Al 8.094720376164483 16.267914270229895 9.828489637638915
Al 8.403642642843321 12.003923806845018 8.926740667854938
Al 9.798744760513804 13.968924633175305 10.213693350985968
Al 9.957692920971036 11.120475878338567 10.940838022744623
Al 10.210038907900415 6.2027841236072065 9.895530035836138
Al 7.935776036443345 14.99856110035325 12.160938073949923
Al 7.591926941852252 6.366751422615172 9.609974145628808
Al 6.172394053998142 8.635980154775407 9.69653368252065
Al 7.628987130248692 12.338860022736984 11.736507355496677
Al 12.484410876172182 10.232298929523393 11.390892435723577
Al 12.246654026937838 13.194037775535747 11.47731157270776
Al 10.37747244122656 8.349921806228423 11.633494037775248
Al 7.623848025135401 9.669998104931643 11.667136987916818
Al 10.03829312704162 13.144124661107938 12.904220341438295
Al 15.12890792192462 9.283864016488298 11.819142930887056
Al 14.520333343060086 11.815768105256623 12.382522380451217
Al 13.07755968738919 7.620632582681857 12.125005263131364
Al 11.260565068393614 5.69532050617182 12.494753225992273
Al 14.415300359045379 12.70002570468318 9.876281448857585
Al 8.67466462333577 6.087673292687973 12.14517989614033
Al 10.518741663730466 10.289325784718176 13.51830519508219
Al 7.970650164898031 13.658724226668763 14.47502436042007
Al 6.306170859103943 7.317899137894036 12.214884960535834
Al 8.013855638806422 10.983468948701574 14.075606197639106
Al 13.497456896847137 9.514475673198499 14.01187981836843
Al 12.457694816650422 12.141556335155567 14.023013330000902
Al 11.272445555610256 7.793043560334535 14.300512976822201
Al 10.137845941159584 12.304344451475194 15.504572761073847
Al 8.544664570248946 8.304346638983152 13.826569974144997
Al 11.741013059839457 10.083713802513858 15.894499120967385
