55
Energy = -176.59496391 eV
Al 16.770140063955417 16.776724366356856 11.961536439124872
Al 17.636366383086088 14.288890170457567 11.98442966010844
Al 6.587243352921564 14.912079230711978 12.030637120343092
Al 15.783895131584453 14.958195447064265 10.066269434297865
Al 8.129577201005526 15.163171548724275 9.934229191087214
Al 16.599529394378177 12.3050244339401 10.44068751490312
Al 7.497181252407006 12.489432260251682 10.61729143065476
Al 16.634917872616757 12.321431250396643 13.435461564494114
Al 7.457809866575462 12.468561112485173 13.23607644693195
Al 15.640838792623013 15.072413682159402 13.762632884376998
Al 7.69862338371386 15.176247689678572 14.416097164367883
Al 14.142747929124294 16.287423631240856 11.849515401275042
Al 14.14016056244638 12.860620951511443 9.412518915450146
Al 9.779197987352978 12.910642821655156 9.373236012477854
Al 15.147654416116307 10.41091705689252 9.110477598070318
Al 8.805081417192907 10.367263482166395 9.369497397173896
Al 15.688824800164577 10.163627715735096 11.840912943272972
Al 7.982624159227127 9.90569363304411 11.904997979633373
Al 14.556434852062564 10.873526716166845 14.203178034315767
Al 9.100773702362716 10.610073473998906 14.271887116376636
Al 14.445647871818425 13.371064021206982 15.329682047848436
Al 9.51803454724159 13.228872055428472 14.79708530934972
Al 13.23026966169924 15.4454538905128 9.4525288207116
Al 10.60932779551387 15.486227285169484 9.273356771103982
Al 12.83819325628542 14.910491819918635 13.685416066080869
Al 10.341091628187407 15.827904071273595 14.355837993068848
Al 11.366323226321795 16.19959766451377 11.760434526849636
Al 8.697968331702016 16.820418135106195 12.285713686178383
Al 13.415645511084763 11.336967367315337 7.093680898721443
Al 10.448994460339971 11.322527129846407 7.221400509532622
Al 13.356072131961007 8.633665184606373 8.061710704274802
Al 10.45287512283456 8.64056984167609 8.230837754173871
Al 13.828404469564916 8.597706475559763 10.652903949196082
Al 10.679158730413041 9.076104886430961 10.95839319596608
Al 14.268350253177001 8.323106859821335 13.277003757631821
Al 9.662819203110482 8.0793924989239 13.290882991525521
Al 14.180567987569077 8.762208223446583 15.861385751004805
Al 9.727752729527449 8.636340064715206 15.889030980252182
Al 13.216682688065475 11.326759360658594 16.486281020183146
Al 10.586724609596281 11.327010220213047 16.407203720192136
Al 11.986005348430455 13.486484971791844 7.995386954336113
Al 11.808452669403465 13.975879365864031 16.088871021304865
Al 11.841975863873508 9.353800461122288 5.997904933072467
Al 11.95430953019514 6.931940417773279 9.655047794546816
Al 12.007280571685426 7.140129697172914 12.297440296448201
Al 12.056410236565922 7.092099886270946 15.011393346265395
Al 11.950591954978439 8.94252737713444 17.284828680463615
Al 9.424177973075505 14.219387366852107 12.167920359677186
Al 11.984466724417306 10.90645327423136 9.451314756268403
Al 11.873045498813145 9.679503219785815 14.3020409536279
Al 14.415235531582306 13.15999241052896 12.135850348953795
Al 12.878853575647232 10.804812374908865 11.924530607114313
Al 11.929330411287149 13.505254560304781 11.115807056338458
Al 11.995628791466213 12.311304469425705 13.924938759814836
Al 10.098857599835995 11.657581579636066 11.904527846572265
