51
Energy = -162.48374656 eV
Al 15.50088445461333 9.469958167426425 9.925299310953655
Al 17.796054083564705 9.002320665400841 11.260996956081144
Al 14.14544889385188 13.610805511861749 8.37300017851004
Al 13.936080217261162 10.79931099225062 8.277947481341716
Al 17.408757670341167 11.522487053243266 10.536617655751348
Al 11.8240945109286 9.601845994707723 7.041372054121584
Al 16.487523425495876 13.900831694160297 9.791848296872425
Al 11.813889639056496 12.304799467595398 7.417184320507624
Al 12.97735814607064 8.356519117062339 9.272076401504998
Al 15.488365788237012 7.996434107655977 12.265390909484108
Al 14.61448014265479 12.044747134381142 10.599330317409558
Al 11.805435908735864 14.981066040211857 8.140838419628134
Al 15.932498406429751 10.555767900466671 12.610177531500469
Al 9.891772058342696 8.408523164859602 8.574078690068143
Al 12.182190287578248 13.095286449119767 10.250164914733748
Al 16.357990253881407 13.234382976370316 12.46692165456752
Al 9.410177339224054 10.932234407096752 7.771910459002522
Al 11.429673391688896 10.632560685746732 9.678867270031544
Al 13.134824806197704 6.967427752656062 11.678390005072918
Al 15.27711283327644 15.579218591633227 11.480232901530892
Al 9.74120323640971 13.354278293235279 8.805707342385073
Al 10.875933316883955 8.302988621462196 11.066175354218213
Al 13.280501575247989 9.822859560322652 11.645549693268814
Al 12.824952808298276 15.737576688990888 10.556759571419834
Al 13.503632860109947 13.556051980708048 12.521277147640928
Al 8.737524425414595 10.204578383435068 10.382717189112658
Al 11.834608192128234 8.355462500258282 13.662332207217236
Al 10.13337427902089 12.137921774096869 11.668108334503124
Al 14.227536122036547 9.361607909160599 14.329896651761226
Al 12.106830695671984 11.29695732960531 13.574494808741868
Al 15.279864081994521 15.06711246903692 14.146751680534544
Al 12.74797512575886 16.073560303717738 13.441871975413086
Al 14.87053424194839 12.110132699435532 14.47549142987393
Al 9.51469694895598 9.561398454767222 12.997263139169759
Al 7.681454622064289 13.014108359666913 10.418985653657002
Al 10.024277670196254 14.872082062861551 11.05165159794189
Al 11.047593028030134 17.33425868072515 11.644455769636544
Al 11.02588671898211 13.903445952191229 13.57588798026949
Al 10.606402634032843 9.844958159523028 15.59559256128217
Al 7.432127046156953 11.281613692277146 12.516547502724027
Al 9.43221429812754 11.949953793937517 14.335525276308106
Al 13.057273949919649 11.017165508882641 16.13418177600411
Al 13.19223438666846 13.982606327963754 15.395351800174081
Al 8.190874848639012 13.99071016359955 12.894434109818478
Al 11.00212763768571 12.813411343751286 16.41005087973202
Al 11.152534719165308 15.642893674476902 15.760225780288195
Al 9.618586071443218 16.210176986247365 13.567381387179733
Al 7.82843123927467 9.92655228745827 15.046764965489476
Al 8.809506925783907 14.373421207467809 15.53997384027694
Al 8.533478408341812 11.78718950791031 16.975428445919384
Al 6.780768681411259 12.625990502154806 14.960071472597866
