52
Energy = -166.05820026 eV
Al 15.25855875717222 13.969425432319104 12.292246971485755
Al 14.779841894044386 12.796873338330176 9.928735303201051
Al 14.53490488192894 11.856566500304544 7.495049522422866
Al 15.713368997569937 10.18623838335349 9.765654248840754
Al 14.743896890305434 9.24502331776412 7.271398678318816
Al 13.715037504662085 16.053965565705944 12.957225078176979
Al 13.892840394062304 14.521462121117388 7.778504142508262
Al 15.413468892509862 12.3286353550236 14.502344533627543
Al 13.86579012330188 13.945749718609962 16.210243373131746
Al 13.325509183969187 15.030556775667122 10.415623931997693
Al 14.779099568534763 11.30187578200281 12.083785635158643
Al 12.574824699345818 13.144997743007258 5.833655998937987
Al 12.209840123215786 10.533197871843775 6.744620973686994
Al 14.607688188720994 7.5720467072272415 9.302401821292635
Al 12.108181342384404 12.645395505465814 8.616260216620912
Al 12.9937539777256 13.264619028357494 13.665474403487988
Al 11.319363230859146 14.84279798126156 12.239146619519385
Al 13.026670949475966 10.109780721292788 9.395997137417957
Al 13.24621925895055 11.259455765230706 15.919064185812786
Al 14.053622769769216 8.730212077243243 11.668754910570124
Al 11.892678853550146 15.593088799710678 14.871209107054396
Al 10.637104302357656 14.800427035053678 9.686588161221179
Al 14.814770984945197 9.563205090262649 14.221985424453921
Al 12.418378214034984 7.897118533257884 7.449594128415064
Al 10.485049590094663 14.442630523385056 7.101777103865288
Al 12.302880017823307 12.354856311124202 11.230626626312521
Al 12.493662798461028 8.575842563081157 15.43868476045382
Al 10.425241099968703 9.420759749990312 8.536429351515768
Al 12.378742678831934 10.500165172985042 13.339673270038945
Al 9.813426413524844 11.772485109649319 7.236431012018379
Al 12.001066927646217 7.42821342340614 10.093846806739359
Al 9.9401005126553 11.86311322575327 10.104897215433835
Al 11.045661593454495 9.67342598020319 11.23072506567437
Al 8.863327176073389 13.962129631282124 11.500763230048914
Al 11.232326914798714 13.134666244593792 15.783222570014622
Al 12.171916598566074 7.382247489342641 13.008710559384475
Al 10.129258908002331 12.003179971766853 13.134015796091798
Al 10.616132037221599 10.524022637571068 15.507426092656399
Al 8.433269143620075 8.13404345425524 9.871463956792695
Al 9.395946956318856 14.528606534923824 14.142473665702951
Al 7.928424539005143 10.568250374039065 8.67748018542194
Al 9.962636241816602 8.81050490950674 13.625814782049233
Al 8.25191590146092 13.586207075799734 8.776365901758098
Al 9.848095948848728 6.888912029151104 11.723925074971786
Al 8.411326077561693 10.281169453117123 11.740440472645679
Al 8.667892755686905 12.434246702534471 15.695744710854049
Al 7.362034654379019 12.608791973117821 13.25490480481339
Al 7.869886263357987 10.166745441654308 14.474152088982787
Al 6.158347724141175 9.333483514025973 10.474608858564896
Al 6.82361739362091 12.14434004804066 10.588296887397972
Al 7.32268219320045 7.956902485315594 12.691194455256666
Al 5.690097393842296 10.48183818876532 12.808138278678351
