52
Energy = -165.61113496 eV
Al 14.737042234796084 15.526080434065328 9.641048018348037
Al 12.397375826862804 17.29654114112468 10.13780696710588
Al 13.223463144317703 16.297762686028612 7.602754714664112
Al 15.859059710099125 12.883063297321016 9.480994404897235
Al 13.891993709176415 13.459181647155756 11.427703476750299
Al 11.296472060313619 15.848088543117353 12.358259292902765
Al 13.87785955921021 13.739020969738535 7.735578869605065
Al 13.998155803527453 16.163938512365373 12.1585918170205
Al 10.609930818891305 16.738523526182348 7.905062546212424
Al 9.750585868119037 16.413660956479273 10.339442370416135
Al 15.62078909631097 12.817546545424989 13.477586758192713
Al 11.282268561182804 12.840258082881343 12.15304375483176
Al 9.475368227600208 12.032733315169864 7.041526479429672
Al 9.105005544226378 14.49807006086949 8.537678125781268
Al 10.09261097881443 14.412775815598113 14.19467183047287
Al 13.801885498223918 9.090028523013244 10.828638757653316
Al 12.247913966825891 11.612768534773995 7.092542339191904
Al 14.89085707028833 11.260054129013152 7.454859696135837
Al 13.277835637268163 11.277832217832591 12.978637362645825
Al 8.993744855385433 14.043895333255017 11.49116890743629
Al 7.8078981574084425 12.454008553942572 9.470573280235921
Al 8.70797254232998 8.355052532772984 15.691349464849601
Al 11.293515988341538 14.16259318267972 7.070321719309917
Al 9.627282180607468 13.12426159831963 16.747441973153478
Al 10.240963516408865 10.340272652230977 16.58192254213086
Al 9.083525560528795 10.09085487471203 9.093622109709067
Al 12.091732080877359 14.328278483202293 16.36597241277382
Al 8.730926048203461 12.033109912016506 14.348424079293387
Al 13.079127984432175 14.324323198745345 13.894196465745948
Al 7.7377822790225625 9.36633248148722 13.444197735977616
Al 11.929105955199466 14.652433736537592 9.764382695448523
Al 12.230281805277187 11.893502072048532 17.472104507830355
Al 8.986844639088165 8.499305717132263 11.149471019165047
Al 11.45714324795203 12.142182988410399 14.83505110368957
Al 10.66292672234182 12.3059951670001 9.479744155132643
Al 8.730420423438769 11.289927316381396 11.713425063960772
Al 10.344251186731938 9.913045084017954 13.90217084834254
Al 11.239699541296162 10.241909610455647 11.31285622820899
Al 14.10005559307523 12.278331971508619 15.57257377993043
Al 9.771691888581026 7.243076610792782 13.403994518681118
Al 13.357728249626797 11.546501286853214 9.688037444508076
Al 12.43795303214395 8.60051039159343 13.196295942056569
Al 11.541775577495192 7.431102590769235 10.935521588297238
Al 16.31598493231852 14.676570993134892 11.598077020053676
Al 11.752792836237827 9.52805240117311 8.786975741819905
Al 12.939822427168211 9.83553153859536 15.598807024131148
Al 15.062821637959088 9.291202854641094 13.67277045282712
Al 11.297183549174122 7.697107709495598 15.672573951711641
Al 14.18560622035641 6.839067638813356 12.21353458822054
Al 15.610775771051125 11.044018176160895 11.457658205093775
Al 12.028329560431219 5.889250423384783 13.504760574553242
Al 13.967271037519785 7.14595387052437 15.11095051315344
