51
Energy = -162.7465357 eV
Al 9.822420394732344 9.239573243254814 14.861235575425217
Al 8.164772945902682 8.116116059732962 13.053128557002431
Al 7.512296192999693 10.877838649101253 14.105911299354462
Al 9.137449509356488 11.58521425690923 16.228484308718258
Al 11.010660919423337 8.023152775982869 12.69929766014918
Al 11.344050032462484 9.891252028936737 16.831580426352605
Al 6.941019871674066 10.030193935001314 11.455293447852075
Al 11.59674738918848 12.412731453138587 17.76682904625923
Al 12.791425056229361 9.361900304833348 14.509625996885704
Al 9.580007746066135 10.401668632977357 12.46768542252003
Al 8.78509570746874 13.44775304613364 14.180442660179136
Al 9.050145867506743 8.398983482666283 10.46750475791337
Al 10.285619924945532 14.159830273319976 16.30217809954619
Al 7.646571023075302 9.621566402689576 8.408887423872246
Al 7.721012572894336 12.632265130806067 11.911345437035274
Al 11.301439836846104 11.871898924912738 14.750959811960712
Al 15.368670372197867 9.93826117256451 13.319580998234214
Al 11.690279798502502 8.501043501269397 10.074371292549605
Al 13.646929667655321 8.069367725298761 12.118721713286519
Al 13.726058629061994 11.224329870236051 16.419093890952322
Al 12.23504988948783 10.493086937935738 12.08390559410827
Al 6.651748052064707 11.866450113612192 9.450836814003782
Al 10.595570727290495 12.77279245010024 12.124261400928782
Al 13.064103771892245 13.829443079500823 15.713601438139035
Al 10.202427558617336 9.872451237298387 7.77154339165458
Al 16.278541269014777 8.081940725951009 11.440985953701993
Al 13.748950791800622 12.004484167412246 13.81797009936197
Al 12.249464719119388 11.05134454068738 9.400645441296616
Al 14.668124411345797 10.401951097014118 10.746937965313698
Al 9.387358867403263 11.272057872497296 10.027515471578845
Al 12.688478086926054 9.125604901372014 7.552394567609437
Al 8.67484963057515 12.252189082166556 7.601751817892531
Al 13.232945450719164 12.838788595084846 11.20403938973971
Al 11.253096744821432 14.735992899618024 13.892521673321319
Al 14.378853914663068 8.05437924997579 9.3917785904233
Al 8.153649462745824 14.099339708335897 9.60365081182377
Al 8.987952331039711 15.108530215089303 12.077806487082814
Al 15.854591490783466 12.73905611169554 12.397991296417405
Al 17.287740603605197 10.727328159271094 11.408090294121358
Al 10.932619487986308 13.497168523491252 9.588723831716942
Al 14.045945365689345 14.654151781606629 13.224988486677358
Al 11.404390955338926 12.31306886472394 7.124551519669036
Al 16.771942375795273 9.407955876894814 9.121952099735623
Al 14.714482855103242 10.76855829368896 8.006373818478384
Al 15.91224131315713 12.618492930906664 9.695157185720339
Al 13.585430026772784 13.260036513749062 8.340377687537524
Al 9.904435854476633 14.77809756897685 7.4761322408803075
Al 9.852679924813454 16.290984433948392 9.79735537515084
Al 11.906297378144092 15.370207349017587 11.4454441136412
Al 14.604641052355866 15.017348429928687 10.420662836493495
Al 12.40689403879656 15.72126072063872 8.7866959991394
