54
Energy = -172.94864772 eV
Al 16.017640512825476 11.486760503218536 15.185273375629109
Al 17.2598379821724 10.020348871330325 13.193874260022909
Al 16.44245251283398 10.29469325624811 10.638706143920516
Al 16.970485521250097 12.708865652728923 12.78410909503268
Al 16.4195363956341 15.13112765958835 13.684409606389748
Al 14.106640350761264 13.13475113355446 16.065547944884113
Al 15.22739575261134 8.85511715592959 14.576613581291689
Al 12.516478146957105 14.993122737489498 17.230232413546837
Al 14.301232540991858 15.689934665553517 15.160540250219983
Al 15.13657315648981 15.558272436506318 11.382099020989418
Al 15.444622692833203 12.876420124032483 10.422968258570343
Al 13.36321434946099 10.54132369003458 15.700501135843353
Al 15.533627812621274 10.91434820394513 8.138782146477116
Al 14.673882231613106 10.966812314409038 12.84338993337322
Al 14.699098660913272 8.254610270477054 11.747443396411093
Al 12.820260436507732 16.133186863491595 12.724511421981509
Al 14.709593182777315 8.464724213253325 9.069754404384808
Al 14.62657389649297 15.00063689269951 8.695769850440414
Al 13.740300947377694 10.588883738122334 10.420156106172048
Al 14.263551924085629 13.55380735766987 13.159123328188619
Al 12.055352200589983 14.157591927155416 14.512909577900988
Al 9.891762275018825 14.855651114332248 16.070369032107774
Al 11.528946537955617 12.432885145223246 16.520397236894627
Al 13.798635967966861 6.7370802195346124 13.847438037718186
Al 11.865179565944556 16.881200814874088 15.303324965738147
Al 13.138741961216063 16.84067298521402 10.0008235588866
Al 12.11330685790055 11.788436126098347 13.023377399905328
Al 12.567840223894274 9.158456116811037 13.224912331747381
Al 12.88068204908572 13.978816392964632 10.845702400709479
Al 12.229401939055457 8.020226395553756 15.70506378976277
Al 12.207152582570062 8.26179335984069 10.080937880772384
Al 12.634400152307068 9.981538046623513 7.93350334940261
Al 10.773505444122106 10.300998491731239 15.066929089703478
Al 11.865921852751617 14.760481115623874 8.350708126893702
Al 10.81171918633541 15.808561941085358 10.761323989977244
Al 10.203642752785601 15.7988427520585 13.406490144444708
Al 11.430003939026342 11.656631609478406 10.196330164799893
Al 13.456052844921759 12.573164562097638 8.459180926283322
Al 11.619495363022148 6.741493151095956 12.214263100742013
Al 9.714037940422815 12.66913728144042 14.415668096867272
Al 9.918307281542369 7.936998343251889 14.011698477178975
Al 10.344016792210946 13.37081918416657 11.919627445040849
Al 9.532911134707795 13.707137536478447 9.268702733087965
Al 10.048006629138213 9.633007353780327 8.86570703167281
Al 10.409390858925796 9.399075447082856 11.65538597674447
Al 10.879950117073033 12.01308974640706 7.48326967229812
Al 8.626488356887831 10.302822540993708 13.412882936003111
Al 8.322013288105646 15.181548002644996 11.324322644688444
Al 7.706095387179958 14.987286110036704 14.10252829651106
Al 8.812033824934204 11.281561884297886 10.736238961341378
Al 8.164163498160454 11.522355088278365 8.076198078087819
Al 7.602872854051902 12.634821524362806 12.68431772933736
Al 6.941413529290992 13.139505131494772 9.884320477344774
Al 5.881322763563605 14.566331777481127 12.059107625512514
