53
Energy = -169.07156016 eV
Al 9.080120631353946 7.78660799084076 8.451926107581281
Al 8.521252001256036 9.920496613976951 6.1893232507190525
Al 6.739094749889839 9.532590950927165 8.179013587502613
Al 11.101969544089943 9.502285122883368 6.962005647407692
Al 12.356605798453739 6.731241699590842 11.374326327565235
Al 11.485644043987541 8.793459539214487 9.622983326396758
Al 9.663453298704768 7.320039437734132 11.09436310185009
Al 13.573865874902257 9.554210419294606 8.09188948513113
Al 14.511720764411114 8.395056125560686 11.782169135055186
Al 13.192978293868235 7.423691012614242 13.95051954738705
Al 9.211766999538135 10.439856650663843 8.85416111062802
Al 10.040639888760785 12.157071016212397 6.681906735233213
Al 7.3993686264378535 12.1864007437213 7.359896085643168
Al 10.622539761747278 6.9240935212300645 13.603411536866997
Al 6.895937338903504 11.584317215060706 10.024938946449817
Al 12.761615285779706 11.68561488571122 6.366538781860822
Al 7.6081940705227 9.132603653579652 10.858789034858614
Al 13.253108081758784 10.728069465297347 10.905850515978837
Al 14.34704965177869 12.134589657210835 8.501760125888895
Al 11.673377267669899 11.49382722834942 8.96400004344014
Al 13.645707286814257 10.295566975150921 13.743290040325435
Al 11.538321543364125 9.16260397327838 12.332422126042
Al 15.558743187557937 8.481446191934676 14.706991459702742
Al 9.583630324012535 11.003599220549173 11.434871656927697
Al 15.607965959694978 9.886456856714098 9.856238230058752
Al 8.932644121191718 9.046885611442615 13.445170115153063
Al 16.258601350805478 10.324024631467303 12.68264939525872
Al 11.738161311073865 13.959796669413466 7.7757806089149515
Al 6.826240104297794 14.135118088026905 9.126191116639081
Al 7.163853537292883 11.027985903162218 12.783562616140184
Al 11.389034754090565 9.16858234467209 15.159763103976307
Al 15.50937579043391 12.369020692556726 10.973235636054255
Al 9.42257330283635 13.0868791895348 9.482876182514659
Al 12.965657994530872 13.633724232368582 10.252286809158702
Al 10.6821895442132 13.345157152510701 11.874482021738977
Al 9.007865924725209 14.696193843384068 7.416009711813221
Al 13.765298881341748 9.956682511032177 16.488710133661975
Al 16.101557403060312 10.991159380572515 15.451515525494376
Al 9.092455795799294 10.760353683302876 15.54661899950825
Al 11.08673801740156 11.415943166992506 13.684038562861385
Al 13.302028911352128 12.841154567447306 12.788894094137369
Al 7.766854543529176 13.489776573644612 11.752228474080283
Al 15.98807037248272 12.983008445587972 13.614545585996101
Al 8.4202657739578 15.831336352178477 10.436632004902581
Al 10.947918581389361 15.45831645986139 9.843760056719082
Al 14.981613260362495 14.8470223914566 11.810308276090408
Al 12.224281873641411 15.52771252064756 12.331876872257709
Al 8.862554621129187 12.97783185938966 14.097873441114839
Al 11.486977629324908 11.62476287094501 16.423613127319353
Al 13.867903773720306 12.585143089242885 15.544935283895926
Al 9.428836727283871 15.422978839304411 13.058755039489647
Al 11.483190233271838 13.987740630260523 14.640865242022173
Al 14.032619368269186 14.977722750506365 14.365391239063598
