50
Energy = -158.70838171 eV
Al 11.45771423895502 8.756839267477371 8.721411909710923
Al 9.316989484919855 9.622784871664763 7.086931260044809
Al 12.049491947187013 10.008218309530843 6.451526708519187
Al 10.267391669867457 7.162256635465836 10.813116415742199
Al 6.658988572867147 9.835021033459029 8.297928274866678
Al 12.89093000258485 7.7204756951911175 10.839882585251212
Al 8.700991094648437 8.889702635051258 9.689732061277583
Al 7.549367200004129 11.769107995696881 6.530226056327849
Al 14.356351358117816 9.685501943380343 9.57813964423744
Al 15.568789343111243 7.9371194432628025 11.268464854795972
Al 10.387529170098846 12.099247208380849 7.048856463919922
Al 12.263138137694764 11.364192336865084 8.993521629416707
Al 11.12903507627578 10.017904600811502 11.058085538089689
Al 14.928640778935787 11.90626769714243 8.25383683018443
Al 8.788457754007021 11.523832410815023 9.082609375260922
Al 11.252794303016739 7.924721596230304 13.19506652080199
Al 6.167592429644075 12.49044823973356 8.776716924412753
Al 13.005298431156197 12.6085907631568 6.433791081300602
Al 13.93675364085469 7.029208857775746 13.257379968125223
Al 8.813899542798548 9.429861658124983 12.507392963032991
Al 16.30091487203448 10.555611513558647 11.391106680869788
Al 6.892099150861333 10.865519763603121 10.920475206096402
Al 13.512578306864986 10.076160988270017 12.281927295668847
Al 8.578137672486754 13.984903394426185 7.718158051812832
Al 15.568375811022284 9.250846387817932 13.839634685344645
Al 14.352654434005455 12.395958125820272 10.912122057051892
Al 13.324638309604728 14.002777680049286 9.00497230506165
Al 10.630208868175004 13.37734081698714 9.690223497459213
Al 13.084988954786695 9.079273757845785 14.798367799089986
Al 11.283361738939032 14.675655185490228 7.346803096089559
Al 9.357293596635552 12.034369124711738 11.714355373521109
Al 10.951776631601868 10.558850033697352 13.727733980840382
Al 7.7853083353747 13.973868815296454 10.2901206344162
Al 8.694624630465482 10.6073901589268 15.268621520541563
Al 7.297681379910086 11.753893582424832 13.370614548313426
Al 11.920616373984 12.67091078017021 12.05854566712024
Al 15.087883020495047 10.799970789321268 16.061354729863677
Al 9.745285163789609 15.927313586767497 9.252547904437286
Al 10.568347242710127 8.832094453279813 15.881942083796957
Al 15.390860111783727 11.960895021113117 13.456667007131955
Al 12.865466065184885 11.970895671797646 14.629126654361908
Al 12.187912722667237 15.497593935013098 10.897721591485773
Al 13.915737919798012 14.165805146345074 13.093157800678055
Al 9.699485724561429 14.78723907239184 11.888421029263156
Al 10.052723249933235 13.105914911862175 14.136786250854563
Al 12.621088184939014 10.382315268841147 16.989535253636035
Al 10.577924674043562 12.001798597794398 16.516749491894473
Al 11.58445137213714 15.383098273323233 13.604684775459688
Al 14.814495567589393 13.515322047063146 15.572268626946435
Al 12.056452588252803 14.22965008615447 15.99476015680933
