5
Energy = -10.56395872 eV
Al 7.4493669932780415 7.970455505062177 9.922143748687912
Al 10.165355125739518 8.505640401064577 6.482446782544025
Al 8.415514260921011 7.088837821301733 7.814952847943217
Al 9.246956584978546 9.628557058214762 8.540172541000562
Al 8.244888731808405 10.315507667372001 10.747280951857496
