5
Energy = -9.43041548 eV
Al 8.555731896566273 8.129124754176146 13.045564736631759
Al 10.40382947277742 11.14463817886498 6.910185873563159
Al 8.724640319863202 10.700013343291786 8.89250926104246
Al 10.79575671290615 9.020108045890128 8.439922677479219
Al 9.380063699198853 8.86613777908872 10.571839552595304
