50
Energy = -159.08963691 eV
Al 16.497576845011604 9.569713379740328 12.820279993651624
Al 14.556889005418304 7.762841976550267 12.594143348701419
Al 15.068881406864556 9.684853538391225 10.48655275779111
Al 13.277030998667689 7.5538851047693525 10.240504286095284
Al 11.102249104119545 5.873645690448371 10.114553121003269
Al 17.17626186929241 11.960522464441052 11.48170679537073
Al 11.749438171459744 6.972285528310818 12.6539499135534
Al 11.40582441267912 7.884492521777633 8.099561789018683
Al 16.32277539149103 11.384036796482214 14.759607115856548
Al 14.111438920934749 9.951394757493484 14.471964053891716
Al 13.424529373722729 9.65106215330237 8.347716392188627
Al 15.498714374116753 12.196297854299406 9.382104918809345
Al 12.716746843271483 9.642788831029934 12.00291583166647
Al 11.825608710368074 8.691018306030724 14.807678865491013
Al 14.637395155720151 11.733938924281208 12.355965360026596
Al 10.774133509156018 8.562239404662105 10.596968491499583
Al 9.037654655066982 6.704203335913698 11.707290978849366
Al 8.89121008610095 7.439589670009052 9.052488427343878
Al 10.766087478857783 10.501315294092885 8.594187232132557
Al 15.476724673916365 14.33220028614391 11.13342556954896
Al 16.618672548190073 13.660444586408294 13.535400507023695
Al 9.715100277534402 8.883344039205419 13.111844857969658
Al 13.539515622803362 12.183246091402989 7.570971296788914
Al 13.802448619892612 12.761389264202974 14.736327712098435
Al 11.72746340215909 11.219314588021124 13.76060477637772
Al 8.279959367861803 9.6696504337629 10.642317688280915
Al 9.719778096762266 10.311495192452359 15.445602970560238
Al 12.821232054434008 11.708961599936124 10.214492546688618
Al 10.475958748514685 11.175335936683949 11.354410193202064
Al 13.414534238408217 14.258843468034728 9.382539666779829
Al 11.201062788291804 12.865741188446824 15.753371418131254
Al 14.632066736554291 15.290002534063923 13.653461806861221
Al 12.796917308842207 13.666678517212945 12.204941083123119
Al 8.361720175925397 11.135915603369277 13.027431156764026
Al 11.204112290159697 13.398360902342716 7.818980495924904
Al 12.202843240800062 15.18779048686192 14.512539034988492
Al 8.725039910758046 12.02091109595452 9.152890421980619
Al 10.102278433318665 13.346011366672457 13.119165975418136
Al 13.516181550909053 16.23898255008396 11.383567366868384
Al 8.466522770987439 12.687081917290188 15.341019284143396
Al 10.756389500190155 13.750794806026947 10.439855411638812
Al 6.444127374944393 11.65568771707042 11.011360493939408
Al 11.472444222124919 16.2207681127294 9.433769237198009
Al 9.664381673990652 15.178628837455674 15.174910733561516
Al 10.939954600749884 15.874793519710105 12.270245815985385
Al 6.7863078850447796 13.272291829267681 13.26814758813601
Al 8.112293517292768 13.774594576915147 11.010933402856143
Al 8.934460001127235 14.596016887813372 8.41947370458961
Al 8.980525039757147 16.324065437214884 10.485274140163412
Al 8.184253547708542 15.639081432214843 12.977920626994614
