51
Energy = -162.88524652 eV
Al 8.71247218501129 11.145992902609114 15.751509261824843
Al 8.392546250062804 13.482901842710287 14.368171575211395
Al 11.521170795322938 10.631526691148807 15.786418363832393
Al 8.20962794728373 15.64097845140632 12.707312043981958
Al 8.003498578135995 9.432205810011927 13.386788837363197
Al 10.678071469448685 13.220213596545822 15.799573914152582
Al 7.338691657971221 14.016828755623225 10.754436802126465
Al 14.547872457596313 10.269969317630702 15.357081968583744
Al 7.758563918348078 11.792479930134983 12.158857210865877
Al 12.439427654626797 15.347338182757849 15.860517390067264
Al 10.400940448551811 15.400915354924702 14.132383404171426
Al 10.529108078320517 8.496713393093968 13.296739256816831
Al 12.570881438692092 8.28384619539839 15.099612615455557
Al 10.18023613171892 11.42318127273878 13.52132360285384
Al 13.381963332669558 12.68736796820365 15.95853855087012
Al 10.541842710035377 17.418237730618035 12.262173911813058
Al 9.974987912959726 13.53048347314727 11.875550865590618
Al 15.080515055843266 7.782575678781914 14.263423041651262
Al 7.162893546953752 9.706840131468086 10.523469094624978
Al 12.602919282100357 10.545647710909492 13.20716996315159
Al 9.487572262843052 15.8860625737133 10.31099469899367
Al 13.008415761331646 16.58309410591079 13.527580039074353
Al 12.390984062340754 13.651526952594546 13.607714199052857
Al 8.503434855709955 14.369763504606942 8.374753353478948
Al 8.58592063457805 7.627967093845412 11.309149533405217
Al 14.884384918725367 14.939992574578167 14.770223437253257
Al 9.99717901487531 10.18588701179131 11.250375400309599
Al 12.466681473684654 12.382731478109111 11.242280551057494
Al 12.035945134844157 15.260587551947575 11.322619000613539
Al 15.157397012716356 9.943169397743903 12.618103702715308
Al 14.823447108842405 12.391344941534518 13.654195326822789
Al 8.730036409100808 11.803403759713845 9.467447543343038
Al 13.067518583371019 9.734232393538525 10.609144464204347
Al 11.02765757484758 13.811143039276752 9.319498044741723
Al 13.01942582071382 7.784886726929155 12.459355863827055
Al 9.268499098413434 8.995286049993663 8.908920292502906
Al 11.103906270454623 7.525123034367286 10.579018367220227
Al 14.531242570813742 14.635167829200734 12.056241407810283
Al 11.365875019116489 11.115224836466204 9.02597721321418
Al 10.035451401133887 12.786461108526936 6.986440240350363
Al 15.798773411437837 9.614179918896015 9.958854244077148
Al 15.359401795759467 12.170980215107814 10.945129740489099
Al 11.912537417855953 8.510870230455817 8.227206223246514
Al 13.831608880471888 14.064112156147367 9.486937684155198
Al 15.569630469582508 7.399537424241556 11.65410814647338
Al 10.242077657517477 10.145716633441788 6.724539316984941
Al 12.700169393015994 13.080224597796859 7.206052359985521
Al 12.91890194988377 10.448012392125001 6.5289522408763245
Al 13.734878441532745 7.137683151055598 9.714995593723563
Al 14.159778900527531 11.387955940179545 8.765023100585772
Al 14.617734293054628 8.736125437048877 7.681815445152058
