51
Energy = -162.24689522 eV
Al 15.786956515791246 11.897866775507191 7.2255705467712446
Al 16.812767493358567 14.156123499617175 11.297685785806108
Al 14.743342774073398 15.56815215096165 10.049479916223778
Al 16.022525669176922 9.25992595103932 11.767133851090867
Al 15.708184085971826 10.371552280620131 9.439884719718103
Al 13.991013794200743 8.317913462492072 9.649613059346654
Al 14.985727302560182 14.504523355431193 7.601672720796124
Al 14.583616107517654 14.533392614012556 12.651373744021075
Al 13.797766560569054 9.986488095908976 7.43695614179742
Al 14.864547842422125 12.845567871141718 9.76376854389535
Al 15.656758644841364 11.87033091311303 12.229623396711355
Al 14.323358290986057 7.301912354480565 12.148191276432675
Al 14.81688011390975 9.809751552002355 14.182596425801346
Al 12.341055891434346 15.720089003781446 11.241208624355782
Al 11.533442170274505 8.606330589411785 8.621689662069969
Al 12.54780089163453 14.214537306052549 9.02777915806281
Al 12.163445539497637 10.34703754530057 14.904404460942533
Al 13.348983787179098 10.089322255813089 11.884454903795802
Al 12.501537823554347 11.298063515448531 9.40854307170881
Al 13.685677571705442 12.397516703068815 14.126895368845915
Al 13.12581619226376 12.637955555876669 6.925148420661416
Al 11.828866505158294 7.7868352701020775 11.213101042532912
Al 12.665874394169103 12.868273761025586 11.576562669063897
Al 11.25112066920262 10.64378263931453 6.799323710148593
Al 12.524956692029903 7.925547710448827 13.92687986292803
Al 10.728211929606326 10.488178736527875 11.716817541853953
Al 12.23575442472572 14.68442006333782 13.818379189367096
Al 9.84899182325147 10.852896394026299 9.2358547106284
Al 10.493017781026728 13.184148629818093 7.519663099480717
Al 11.333264593345904 12.819464443967632 15.636146000673602
Al 9.925779273870516 8.098064728709128 13.070138872883403
Al 10.528838421297797 8.363910675967643 15.735536891745603
Al 9.80739877429904 15.459701618800581 12.067101867286642
Al 8.99755376256515 8.684635813855497 7.778554165227044
Al 9.352787431660047 8.22462170223393 10.389161516548894
Al 10.283907597518619 13.45341931523353 10.266877170703573
Al 10.284469953915531 10.753139022386767 16.972443973692155
Al 10.304312221696417 12.814784156405079 13.032887979179286
Al 9.481686044785164 10.541565152233867 14.25125537521503
Al 8.668431459052446 11.216496509759974 6.721502308899459
Al 8.062694504944455 11.768249996863265 11.383766941940591
Al 9.718788168491464 14.963564619305098 14.675719750862562
Al 7.591909301106329 9.238150918966147 12.22297905082388
Al 7.943070409936192 12.74989684343209 8.772593959919453
Al 7.7761555691425 8.39998678799551 14.771905935016266
Al 7.235111285033046 9.9095229306411 9.455954180194867
Al 7.705661466470226 14.535517115853196 10.621108620732773
Al 7.618335886220218 10.50176234299359 16.463801155128838
Al 8.50956838730776 12.791648763432107 15.611597540964924
Al 7.649562439846875 13.746037885889065 13.161669876929212
Al 6.797107364791887 11.221672136594176 13.940815583230382
