54
Energy = -172.88491746 eV
Al 18.596702413636894 13.45656415623949 9.966016386483862
Al 17.493576465892442 14.498532144981956 12.167989316230504
Al 18.896387574173044 12.03507522490372 12.342366855674863
Al 15.66175416552398 13.99835812609302 10.150055432219643
Al 17.348434780807068 12.825917274262846 14.449032292353738
Al 15.73558182506771 15.10093670474928 14.023112375067608
Al 15.575649727569793 16.47945381630074 11.692620539271367
Al 16.8574444487578 11.502179882640242 10.621095218889531
Al 15.001804487854692 12.960246811690673 15.565195739799512
Al 16.63734632444169 10.409122817950314 13.14305124139331
Al 14.005441725652625 16.091192410869276 9.571387039909231
Al 15.268479426263374 12.818798187351701 12.627050041561974
Al 13.68906435186339 17.226862056389916 13.539913448894367
Al 15.45421099972916 10.09176975106014 15.631357784859782
Al 13.761267258576774 15.566870135447989 15.73888448534483
Al 12.263814249638463 17.107269405843304 11.262137880353023
Al 13.207932920373064 12.554152271881568 10.773361914184493
Al 13.192932312262844 13.688882381527295 17.516855759440322
Al 14.941354958206912 11.512129554434091 8.764722561941497
Al 13.643556865740246 13.793810901632602 8.169758615940575
Al 12.390614564879543 13.456937513987896 14.665900880759894
Al 13.705966763556779 11.09379923332657 13.787084360469262
Al 11.900937401602297 17.631894970803724 15.571600845000544
Al 13.425262635067508 14.784889851360292 12.265060358709109
Al 14.599650994502044 10.281531480005995 11.326374930247521
Al 13.204480964809813 11.204665626668842 16.611681248096055
Al 14.775925781903108 8.443256641439284 13.376154500385436
Al 11.054035887004622 15.235960813706866 16.45977953341768
Al 13.623835599839667 7.7937249027263835 10.946688057260527
Al 12.803336368822352 10.079484045563994 9.300656253078625
Al 11.02121338988584 15.91375438312625 13.667636019770947
Al 12.959580642669755 8.85578324612729 15.379472982967876
Al 11.367554351531279 12.44838013198071 8.48338743542759
Al 11.092600331721187 11.240734193329198 14.023818694686172
Al 10.988800869322885 13.567973146460595 12.307798549598706
Al 11.703006681529406 14.715989640431733 9.867886883548476
Al 9.828668725838968 16.15226245621794 11.080628483314262
Al 10.875348156091798 11.168651765047388 11.099429543223216
Al 12.093375298027757 9.073753853828622 12.79330220998823
Al 10.756609847107606 12.570425599917858 16.850311087642403
Al 9.419650833244104 13.816234486454569 14.903322885594404
Al 10.834546522884501 9.86838109144043 17.2149833766578
Al 11.089835072209794 8.334514237743488 10.44261835897393
Al 10.132675004360769 10.1477389143586 8.559431261035634
Al 10.242119599095044 8.675307358029492 14.88159380520405
Al 9.340054641870157 13.452203885287041 10.100840335010107
Al 7.429030179421084 15.468686903182158 10.243242770102155
Al 8.361659265752731 14.672614679442576 12.723854082107762
Al 8.853874351995408 11.088853824901673 15.42219585985755
Al 8.73866256822372 12.007084855051597 12.836431840186572
Al 9.329834356104081 9.343203491726461 12.411839868510201
Al 8.502303790583582 8.334205286753189 9.760662915228489
Al 8.140373560625443 10.883384757288779 10.454794167251803
Al 6.765642458994719 13.059413459145096 11.047375429984491
