54
Energy = -172.30020425 eV
Al 16.261447752880926 10.71803197502726 12.943954626374726
Al 14.68875655152633 12.475328044220799 14.924617695061851
Al 14.955173929274487 13.37352992357167 12.35808859027167
Al 14.929355714839563 9.925426407493624 15.556423013698229
Al 13.569865851704579 12.453147580918156 8.091084141963892
Al 15.158927082475065 11.69302164203885 10.302514240219551
Al 13.148836830328973 15.176266298986702 7.24792427602493
Al 13.931183793851558 15.04187471349672 14.235521237668049
Al 15.106166938575853 9.01187286735805 10.939837511960135
Al 14.38845948191055 14.34295197818587 9.677782298024356
Al 14.442544147391127 9.901744967342344 8.279868862772602
Al 13.594130411440961 10.830388127866012 12.552910239976017
Al 12.322623803264399 13.66921397769841 16.065570006666952
Al 12.425139271333531 10.923942328746026 15.073062394575249
Al 14.26198984565773 8.36787166451353 13.494295608160433
Al 12.685162925520803 16.807715024429374 9.487301431436693
Al 14.47052049933526 7.219524529836926 9.015176463664798
Al 12.41130769380758 12.172074508459099 10.616319765153307
Al 11.290394220465275 13.210365644743632 6.8251803631042804
Al 11.655316725676286 10.571895422191803 7.708779294143336
Al 12.854791641694959 8.314582035435496 15.897939199933154
Al 12.954533618953956 15.161835957785767 11.683414602128456
Al 11.319966599688978 15.730348369093003 13.64079251614392
Al 11.525401730216108 14.340336215584596 9.372626955843215
Al 12.519791212293223 9.1090129683832 9.977916618214786
Al 10.274857725777348 16.432738580132533 8.228759420876472
Al 12.63878676864821 8.055495906735336 7.1773037705430935
Al 13.13123886505662 6.9498960147858595 11.500263770349772
Al 12.303687873806123 12.992708677402446 13.35895655892098
Al 10.30318845772568 13.4942247759941 11.870848136971624
Al 9.929477517993812 12.231239635403098 9.12124765336338
Al 10.471307101543376 16.316822082049722 11.090426211363285
Al 11.915574289389317 6.252395026056957 9.14184507926163
Al 11.549158585221075 9.260237952699642 13.037130497180025
Al 10.287609273968858 8.393082414711957 8.541726352552942
Al 9.148551580847947 11.462308057847444 6.573252042429606
Al 9.87394764143233 13.807126421755648 14.619061917797305
Al 10.364275194886227 10.381420974473281 10.940078062273443
Al 10.243004207430205 11.975679007058067 16.560046297730086
Al 11.865303953800122 6.7229237419925445 13.886069754959516
Al 10.33405133477859 9.313121067896622 15.565148312935394
Al 8.886759063623096 14.269732113908846 7.408173655632051
Al 10.409147827359202 7.535058200155724 11.114253846369257
Al 8.537652230069257 14.552354157914023 10.241712476797352
Al 9.62561369491738 11.253249092538912 13.472936129080598
Al 8.218983376349868 9.829389335221594 9.231191501844592
Al 7.244236236497153 12.370864780548422 8.399112410499196
Al 7.762461863396236 13.7135309549476 12.985913117034107
Al 9.36500257151784 7.54830664716453 13.552017731234095
Al 7.788468565138071 12.224044133380934 15.435305819684487
Al 7.777800589384618 9.404951542058264 14.661581843940976
Al 8.026135321776414 9.22854840980957 11.87228480394251
Al 7.878517628581477 11.905580282023507 10.982602039296133
Al 6.5739755113727005 11.236207419015173 13.18847466115176
