53
Energy = -169.06235752 eV
Al 12.371963240100088 9.052595997275006 6.948800169775333
Al 10.059641403030856 9.662591011209322 5.772639947481765
Al 12.113180195176376 11.392889383633362 5.423312698084402
Al 8.519209131778343 11.842456452134684 6.913129403389095
Al 7.455554294836637 9.180681710895644 6.416119714528272
Al 10.474139983576771 13.515857725600904 6.084414496124483
Al 12.832560394206228 6.826360753848661 8.590464219436754
Al 14.374925716403446 10.96744533263781 6.819580832809213
Al 12.848423144549884 13.377623708436214 7.3657151780384185
Al 6.5636440099017594 10.751969382582647 8.533443411911179
Al 7.425265453437925 13.614381982556182 8.638208480615162
Al 11.731428760818371 9.097473884844254 9.649779202600925
Al 9.272418885536075 9.567107784297919 8.34046682457359
Al 11.053983774957066 11.45026209422004 8.008635450658762
Al 14.555753765249598 8.76288205751086 8.665944098837617
Al 7.058242087350888 8.11473495886356 8.977902555549965
Al 10.28273831228604 14.117640852282259 8.700992466428056
Al 10.277466862615203 7.159050820723326 7.784046010597147
Al 15.318345729744596 13.218001029018541 8.457036885568785
Al 9.244514884397834 8.687273441624242 10.772149253163851
Al 13.399310711614731 11.275246410711027 9.356310791964521
Al 6.1554295901317895 12.44999268972206 10.640996922353086
Al 11.356520144715436 6.31748755460909 10.716320733797659
Al 16.321298679695953 10.75693469969913 8.7921095624901
Al 8.793109553734203 11.58928323128634 9.992299734126709
Al 13.034960216821679 14.2109168087056 9.949141814225232
Al 5.019206003749504 9.336364636678134 10.404551039529718
Al 14.931017269567421 12.570457370896193 11.236979397819878
Al 8.78136987596534 6.084184590420671 9.986561373899148
Al 7.549910373510577 12.575809779321487 13.067512873918853
Al 15.213277277023169 9.849507094647404 11.21931056766348
Al 11.047980022994484 12.520857521694658 10.799303047783944
Al 13.733116465197567 7.565221274993337 11.257553350123368
Al 7.187624156539083 10.121666683637333 11.80230834537053
Al 4.760324825085475 11.247413636962097 12.590728323376174
Al 12.737228399557385 10.862959791113777 11.902591976782109
Al 8.567534603584454 14.140427659795137 11.06450018869824
Al 11.007969421114762 15.166412569042514 11.44095625084333
Al 11.382396795865846 8.640254342987118 12.227608334112963
Al 5.263435852217566 8.61466007038278 13.193501732450084
Al 12.729690623052258 13.517207611906636 12.837509153799473
Al 7.069946678543443 7.297720508160761 11.697742261188033
Al 9.817799815253196 10.843166982238685 12.503138160728959
Al 14.52628390858223 11.652926017136554 13.811659223490336
Al 9.630012759775145 6.620228136858807 12.803840074098577
Al 13.48097241992462 9.125790496196446 13.937293630695946
Al 6.478219215958005 10.612343410460634 14.64219903677674
Al 12.31190200371677 6.579869791266387 13.632146968607673
Al 10.079051880012747 13.430175775118395 13.497575917719036
Al 8.264184928529247 8.745291225703431 13.93754228117039
Al 11.83107881273969 11.473494952876655 14.508983746528749
Al 10.809135273283854 8.88342282430266 14.84595904043933
Al 9.159652387055448 11.227374461339702 15.104833818322298
