53
Energy = -168.38849282 eV
Al 10.916306087821981 11.119310627846765 6.896094397177755
Al 12.89829675540436 12.65537491247766 7.9170719242569545
Al 8.327154797641132 11.519297221191183 7.831886467537462
Al 11.922251092185954 8.838957531785772 5.696518635367601
Al 9.121948928035128 9.072686832631458 6.887921701689215
Al 10.340220123346006 6.682392180614913 6.3880626589467155
Al 12.429619046013341 15.131393600847597 8.58660444424879
Al 10.310518711044907 13.846603815432772 7.216700924761881
Al 13.627936286803614 10.14592326783425 7.65344729807079
Al 7.112842611806855 9.196296140085296 8.851233931297333
Al 12.3829179818577 10.717297788892397 9.958941999906378
Al 13.879878088206963 7.497924175651672 7.366933594986043
Al 9.749260537144208 10.019759889321953 9.538418789220213
Al 8.757939468720478 6.982064433948918 8.65970828223969
Al 13.952533965243902 13.226007492520809 10.262915572338544
Al 7.916665882610807 13.548281388623021 9.453900333368603
Al 11.50597048361066 8.436906068525804 8.285601252711475
Al 11.870607065579351 17.224811740255596 10.292568518971972
Al 11.097891973135916 5.599963472247805 8.833017746492494
Al 10.623984507679173 12.649073327765194 9.60597310937095
Al 13.248963661245837 6.710198075380569 9.921464386732223
Al 14.244618565324012 15.882109334942369 10.801396466865265
Al 9.81287826892515 15.422490206860358 9.455641410342437
Al 6.942046597284554 5.920168349988657 10.365513461590952
Al 14.468308120808741 9.061455840250414 10.05228908826252
Al 8.379915418036084 8.23404029812629 11.091991353952189
Al 11.799608099952566 14.61500168173588 11.187478732485777
Al 10.879504940961018 7.826238964611653 10.664637498418859
Al 9.551696506976398 5.509557633389553 11.182686274037911
Al 7.474413102504192 11.123709258671214 10.813097494852027
Al 7.473346203219717 15.383062514841596 11.383297894042386
Al 7.481907513633517 6.488379117851481 12.94182754520873
Al 14.348399975149032 11.187184902597203 12.006885975523872
Al 5.724774531729997 8.289837925935492 11.11254875625652
Al 12.340628601227579 9.259069713223607 12.274691460541176
Al 12.027146204017388 6.089756141442348 12.364831347981408
Al 9.901100591712527 16.360602985634948 12.08719108181426
Al 9.279267835778183 13.275902410438874 11.773913936860273
Al 13.836093029180333 13.951654063994551 12.912657490284849
Al 12.560357809714382 16.706350795127932 12.921713514932401
Al 11.752801583803487 12.11410043346816 12.211226855217571
Al 7.396203413481758 11.910300693854124 13.419685504886898
Al 9.657161959853475 10.287849755982494 12.36534246348802
Al 14.55666149551069 7.490031949872312 12.363064046213974
Al 9.93993072514976 7.682346458624477 13.355437333421104
Al 7.088515022564276 9.329190589450404 13.198160217828965
Al 8.291661078831646 14.426931716904488 13.91246937126101
Al 13.980296939498611 9.877883732139455 14.353202436461814
Al 12.655434052563654 7.513042271340207 14.544665242147396
Al 11.171670754520685 14.448987226454781 13.840793023308407
Al 9.930659173346376 12.197973753214118 14.380142166832954
Al 12.768410300779347 12.30676325556095 14.757714761411943
Al 11.151314581917335 9.867943092683543 14.659260876666607
