54
Energy = -172.01508006 eV
Al 14.863515768164428 15.809415226335261 7.626785489215334
Al 12.309125705659607 14.981247310635874 7.204814402569343
Al 12.99942973556599 16.103708632550518 9.637279708415717
Al 15.29379480691186 14.686402687276738 10.115159103358287
Al 12.136666934942834 12.21149603506848 6.53849957694691
Al 13.882422077531894 16.499435538731763 12.08576015873051
Al 14.475978684216082 13.085642649078178 7.698214856141601
Al 9.932300653468143 13.740547921907277 7.697002668539259
Al 10.536275812860788 15.39180118325539 10.079407923395625
Al 12.284063853891316 13.26002537348757 9.252675592665206
Al 9.50503527852213 11.452772420275446 6.211757237770357
Al 15.268637755409564 14.411232321892493 12.886664109692799
Al 12.743920696825812 14.037219784754642 11.626387636438391
Al 14.51911411880876 12.046959064500848 10.371461660781769
Al 16.955171096816585 12.827931810454938 11.162119534073065
Al 13.356128805949378 10.540608957765457 8.483907242613267
Al 12.751269387417237 14.95361285656676 14.144933452212365
Al 8.097935785696214 14.461600973181334 9.488699598830227
Al 10.350766550717541 15.021261554738022 12.8896734818456
Al 11.53326933928602 9.515460696133895 6.720924326821885
Al 7.949753333641262 11.87968273868814 8.594340018447749
Al 9.971636989703487 12.9064455911503 10.962703888197707
Al 14.75350400673557 13.411947464578368 15.391145523883766
Al 8.9507902576372 9.380748457067842 7.890865065879167
Al 10.66406212339336 11.232293553311383 8.753403090293975
Al 16.75600277998587 12.422518636775134 13.78615098933414
Al 12.033926151664442 11.224645172936778 11.211361288433134
Al 12.161505190426475 13.317382829699595 16.27628383471191
Al 14.043021906054614 11.708383446321927 17.403834770212235
Al 8.624465123308871 12.855939180669587 13.58700308803388
Al 11.364283614867174 12.551980186590733 13.572663059493648
Al 11.451150324226093 8.595279036222083 9.304115548878933
Al 9.235023157758421 10.166100921814353 10.751395502242454
Al 13.945632887703491 11.927877837778688 13.150276195251191
Al 13.815642109017693 9.115576324237889 10.871173073338687
Al 15.943636504008039 10.364642742794036 12.01502624411924
Al 13.97235440153301 9.15731677599083 13.694477247771887
Al 9.840622198574096 12.182953636862631 15.888355860986199
Al 12.438467919746694 10.780076740859945 15.387753274389198
Al 7.666991331781229 7.923718496714896 9.627277334351442
Al 6.54720563533347 10.169089071529772 10.349149826123776
Al 11.228372696432634 8.839554322216062 12.044109853516915
Al 7.306134795026975 12.614753528198374 11.188233228602334
Al 9.806152830974641 10.296675311325943 13.707428273749759
Al 9.902549999022446 6.844023140878835 10.633076322811432
Al 15.393276827761627 10.7361417558533 15.284935445611922
Al 12.96656010251191 6.880202775001918 12.738734900522962
Al 10.129424982852132 9.611377315697178 16.525028687248913
Al 8.185325842157543 8.197941474401425 12.30569843942593
Al 7.703026898867283 10.562067473321783 15.510548922760924
Al 7.0508660964045164 10.542399247127886 12.980862208387576
Al 11.585855645960292 8.288728475739175 14.71287870888892
Al 10.316182527872527 6.463508173497506 13.224309023478584
Al 8.710321817410302 7.976892208018462 14.91953510583532
