53
Energy = -168.81270842 eV
Al 14.49547976451551 8.415877743988734 9.994942573377488
Al 16.112545823862025 9.327369694494935 12.451802913390896
Al 15.712679489678397 10.901697875009516 10.072658448412806
Al 15.207923544470573 12.896472296473515 11.795589533401698
Al 12.879856056863508 7.718770245243279 7.842919146994774
Al 12.055347815966382 7.276779434743443 10.533718571322773
Al 15.30050738644207 11.36190229243496 14.100698190765863
Al 13.97350767725162 7.563196957297426 12.495895283756319
Al 14.852923039635996 14.790613837540239 9.619855476341293
Al 13.665440569796926 10.324527493341126 11.922298034253947
Al 14.139186110377343 10.126170090978267 7.899122970372183
Al 14.629747393499823 12.753494054544104 7.816973519718217
Al 13.781925638221733 9.139913671076142 14.743938168567665
Al 11.897378107058076 9.688278669874563 9.423718507807767
Al 10.259538247848717 7.5051643471397025 8.45185239978499
Al 13.87699661139218 13.628141743040945 14.092607617400258
Al 10.933974360606014 9.399223634278277 6.712403577406855
Al 12.420210274749847 16.237540722922024 9.755647931621965
Al 9.598459628858645 6.0509673475849555 10.587020379269138
Al 12.009452575045708 11.713231068404161 7.3944995834423475
Al 13.636313861435982 11.509564172579404 16.257720472126003
Al 13.024964637692685 14.482597503831368 11.711395736452905
Al 11.564253140415216 8.443163525855274 13.300104940828843
Al 11.357057905532193 5.754144695131118 12.696750788649501
Al 12.266936358787301 14.198941221711275 8.116148146182338
Al 13.155046752320393 12.252800921544829 10.01900101347103
Al 12.315843655012094 11.415176333527642 13.931657118241576
Al 9.79287792015342 15.49728010421797 8.875530735296298
Al 9.661442797469835 10.896889812799287 8.79780774530709
Al 11.186701576249574 11.099694891148838 11.614642910540537
Al 12.195853967814992 15.765850404938234 14.200942004328343
Al 11.243155274311684 9.743501496665436 15.723829317131864
Al 8.302285209976462 8.985121040184048 7.307734700822122
Al 11.975110950563653 13.575448555375576 15.939462658748615
Al 9.634311943549019 8.957606368804873 10.775716709158255
Al 7.588190576382997 11.518331510081405 7.02466499357827
Al 10.720624390985629 13.401588014455102 10.305204534431063
Al 10.746520750759288 16.005355352696895 11.847115164792642
Al 9.65801943907226 13.240713160217958 7.393200696296308
Al 7.562961045600324 7.409872259534428 9.45116569366843
Al 10.929901770365147 13.502772198424292 13.126223417761397
Al 9.057186516808454 7.334983424547511 12.905439304434413
Al 9.455981285851056 9.939586605894068 13.457161829805337
Al 8.661737094178903 11.690121615631654 11.446961872647943
Al 7.672106615576784 12.998655767641585 9.25042157831939
Al 9.721868030738095 11.997644566739647 15.15303457800341
Al 9.820374125754247 14.864168627586336 15.242933876154394
Al 7.1671835850320535 10.230815363856115 9.582247950094374
Al 7.166302035298572 9.148065484503972 12.151734661570236
Al 8.41068793926562 14.830621962263695 11.09968308276863
Al 7.14917616147391 11.283662634666392 13.765529767308587
Al 8.215961169704862 13.763858529944553 13.56195076378271
Al 6.31685928541756 13.101377524005393 11.673681542110787
