55
Energy = -175.46846641 eV
Al 11.386072505881899 17.28551691905604 15.36241180784856
Al 13.115566485665589 17.376243949685854 13.211953526023837
Al 13.236411944320823 15.296839437736905 15.164990131519778
Al 14.136099632951852 12.756315007058229 16.837968920682904
Al 11.677776497829257 13.696070592083105 17.08443152091842
Al 14.856766131708277 15.433823084610388 12.95169733429928
Al 15.458132596539848 13.473621639711146 14.70686208160809
Al 10.291383868233796 14.77508874814491 14.973583696144738
Al 10.366318935135999 16.955969734427097 12.922594641535722
Al 11.996898637576498 16.734114031580972 10.680643976246396
Al 11.985945483470786 14.695683774178208 12.683134143899347
Al 14.587994017126801 17.144747750552774 10.828440824871459
Al 12.353838254060419 10.80254963090523 16.49021055129767
Al 17.303660871841345 14.095278671472196 12.87613838006919
Al 12.570489599622185 12.794407330098608 14.553121177418538
Al 8.989685241090362 14.699184090380784 12.40700754808826
Al 7.885951919063801 13.286880686831292 14.48192546922125
Al 14.431265946313166 10.866882346544292 14.598097178147476
Al 9.995324963328695 12.013039404578683 15.952298911663082
Al 16.09172687487145 14.931012251150594 10.586872023972822
Al 14.640978515919478 12.82626587706044 12.16793004913239
Al 9.333452725395118 16.503532547835395 10.45108857874379
Al 16.731271012847216 11.402922653014969 13.297817470373115
Al 13.375561354353621 14.451281610875748 10.387368135186433
Al 10.305817062145591 12.565326943318123 13.250181841263679
Al 10.771556451014316 12.98463379562026 10.68601030817178
Al 10.956350778469965 14.937698272589099 8.876435222436394
Al 8.397255325744235 14.07942763966236 9.765983208055042
Al 10.191773507829266 9.071115656832221 15.790795878372013
Al 8.517954283099522 10.589833461636077 14.183797098500614
Al 7.656489436386264 12.374525965755996 11.8825936047256
Al 11.670104492363423 10.277694185710978 13.82129262840741
Al 12.768039213878454 11.082170167227464 11.340259343968752
Al 9.75640296438576 10.473303582271075 11.755271559748202
Al 17.429599694204303 12.391855770868041 10.7872329984261
Al 15.14824933325688 12.69541880788367 9.264237038568432
Al 15.456926811885435 10.428706959194198 10.97818889127043
Al 8.98083915784335 8.180302253241848 13.072550345883084
Al 13.799455537242046 8.927599394322822 12.829725691006445
Al 11.463006633448737 7.534239111155716 13.97269893900361
Al 8.265362450595147 11.059334037855951 9.585221587510086
Al 12.50475208186028 12.805258690953197 8.392353359424423
Al 9.759840638341414 12.64216055155209 7.847661913962449
Al 11.00747537172401 10.615876472340474 9.41536793277796
Al 8.67887085098049 8.427991247385748 10.465551289803953
Al 11.567100979303856 8.494027364669503 11.122651086331889
Al 13.79150419324542 10.470954191375062 8.697284345520865
Al 13.123244683984884 6.430155001357073 12.291165258018113
Al 10.32361902630079 6.145028837492488 11.730583153749443
Al 14.33515523704211 8.146461567058468 10.255677273170297
Al 11.500602492722036 10.724278747777282 6.781873010910491
Al 9.349418170106956 9.15439228558196 7.755913739129791
Al 10.152418499363268 6.78026258543278 9.06531953411888
Al 12.173097243992778 8.402304663513842 8.250174743618764
Al 12.664105215152883 6.075351851853632 9.692320928295723
