52
Energy = -166.07470847 eV
Al 10.576197028624625 17.03933366701298 11.389822130173076
Al 9.664689594972865 14.746051436482679 9.912819131619669
Al 12.161435854738556 15.639303307088097 9.721658335192132
Al 11.13494605525343 13.80803852930833 7.754356415607085
Al 7.197523612311015 13.756095295707182 10.608873082549618
Al 5.879785976917656 15.032538979946962 12.62578804019583
Al 8.404928756773627 15.780704244892402 12.054338898727293
Al 10.246175381592336 16.014140264259883 14.162177266568351
Al 8.855036973431178 12.36160295150166 8.913186781412785
Al 13.096919937876661 16.60182363064148 12.242947577629948
Al 13.813226006286829 13.762536642291003 8.755741429940947
Al 11.17701420873916 14.437461495198425 12.168103251420282
Al 6.364801102417368 12.352556835833235 12.920211054305874
Al 12.897504712632484 11.462974966412794 7.917532992424828
Al 11.474923314582927 12.606529533513928 10.19337232007185
Al 9.092156834939614 12.62974473439771 12.152119279415473
Al 14.840076268795316 15.74607219390161 10.287974268210432
Al 7.129634201969983 10.956305804246641 10.790294714324693
Al 10.523450835685894 10.462960683768955 7.968339320401337
Al 12.698220741410722 15.001838589376954 14.40017481058272
Al 7.9078429604030935 14.354363986334002 14.355553235899682
Al 10.455165742612259 13.305207466340356 14.59210815023154
Al 8.001619577538815 9.61632498583547 8.592245490281414
Al 13.781944392415514 13.74967928705256 12.031249721890378
Al 9.836409033395414 10.423077062125849 10.70092681699562
Al 16.09634237076663 13.282232604949082 10.203799338197095
Al 13.851262756415904 11.499361829693347 10.611693150111595
Al 8.081277183684415 8.299256070825475 11.042519499787932
Al 11.378444575902849 11.353307714029055 12.843274916900901
Al 8.29089358831006 11.614161099463667 14.649052310483837
Al 15.591222829352057 11.579215886869358 8.179673146763795
Al 10.37449956348837 8.165022283206321 9.365029477834183
Al 15.141949376350588 13.969914994358628 14.497493626061678
Al 12.24733479525614 9.337858886439456 11.172389115400456
Al 9.22515467603476 9.524651445459474 13.27364894704299
Al 14.22488942687236 9.299814618193206 9.082590410342581
Al 12.90448214201855 12.313638946549473 14.873712218553726
Al 16.44905278811359 14.851664935244981 12.324730823095116
Al 16.06128802702214 12.145618010279538 12.678355948855637
Al 10.659519270932137 10.630275584241772 15.486049254164659
Al 13.868608107355538 10.467996454143044 13.214493817083445
Al 10.354433119557317 7.312433459978375 12.022541364547278
Al 16.368453614184663 10.370249538064437 10.683256699772505
Al 12.878915618869918 7.057373234972642 9.735511873476426
Al 15.48992643761096 11.431463977720878 15.271322230733526
Al 11.728049066334643 8.743855719835587 13.973716573903262
Al 14.814704496691645 8.425435144781986 11.607385860875825
Al 13.250913243420188 9.843129039190588 16.040485385985008
Al 16.579493885949258 9.55519066699014 13.45029835999477
Al 12.89085465488108 6.756218271423558 12.403168717282853
Al 14.33950463931551 7.953089793869237 14.322674157467675
Al 16.023276359171167 8.946678935935813 16.15559397938982
