55
Energy = -175.64724244 eV
Al 14.164305031380836 14.465506904416692 13.547198192647917
Al 8.779192586180843 10.352211093988638 12.63202357429646
Al 13.84464388288544 10.127745776456255 16.0939636455421
Al 9.52354836256465 14.315320030241448 14.973840638302564
Al 13.048288762931865 12.690807391249956 11.725657154075279
Al 13.87918286869542 12.87084494071953 16.151810902040424
Al 14.161341188799074 17.170010963551665 14.119140810437633
Al 14.770885938937624 16.760993376952364 11.522099987793098
Al 16.232005675591857 16.918513129802207 15.91154753113557
Al 14.372320422309038 11.619974181002572 13.759823780379254
Al 13.917100518920755 9.984315776529046 11.608489806979366
Al 11.473585117378718 14.213716514485082 16.902923643138433
Al 9.54713550888355 11.535190100509723 14.852179243701839
Al 15.903070812852862 14.34775989749454 11.167290251238207
Al 9.140219532292413 12.79193458068312 17.209855753460918
Al 14.112121837201878 8.594986242818035 13.860236671499909
Al 15.893241240030056 11.677893608598223 11.102673684144582
Al 16.38115181604693 11.508738719011557 15.620199624583519
Al 11.9213040648186 13.039129214526026 14.286895788407989
Al 9.133755385489646 14.414854534321625 10.180702581220858
Al 16.256188775570887 8.777304313005233 15.510727872524319
Al 11.809448749375 15.705395419931365 14.514727020137784
Al 8.687309312429045 11.732153828825062 10.390296542395768
Al 13.79721016523839 15.603150325605005 16.343884839248837
Al 11.913450497746187 10.341115206207085 13.980376262398888
Al 11.319205130206972 12.83202161575193 9.442083586098398
Al 16.176813501458284 14.216171472195327 15.631039365356079
Al 16.870106539557245 12.9792998340574 13.283327688132786
Al 15.908668424903604 13.080516148649787 8.721942822861088
Al 9.14081406049992 12.319582103928052 7.76973243631626
Al 16.580679437995357 15.821780897467773 13.365755470468867
Al 12.73871575787207 17.15346983895338 9.845958697960741
Al 11.083855202347891 15.498005277873036 8.584090304769047
Al 16.643888291597747 10.200498500988136 13.194803545467265
Al 9.931742349692634 17.070490533919017 10.464576670696173
Al 9.949631436326447 9.897386879409428 8.798903316578377
Al 11.722221836517184 14.918705811308845 11.327409753266588
Al 12.453150531644267 8.902688279887158 9.489947718040474
Al 11.207782878184146 13.649258934000615 6.714617485070603
Al 11.963429623494578 17.32835291366706 12.443538634333084
Al 9.611753196608984 8.48451725417889 10.943411245303148
Al 11.884061717944276 11.01890271140076 7.40749249605843
Al 11.208814371566707 10.71862347189515 11.199419197470961
Al 13.674949685601788 14.445109091578214 9.609388601062737
Al 13.72286422209753 13.030900167716615 7.2432946912254135
Al 11.980188556354067 8.219220070173652 12.211768634317416
Al 13.797939382541358 11.371030687526037 9.355130547232466
Al 15.944531001153777 12.732690559936275 17.97268996960467
Al 10.091689220356285 12.919882346601732 12.376726513848505
Al 11.526640572772708 11.451696759360539 16.775330706322958
Al 15.803108057152931 15.464936439535357 18.128614541864533
Al 9.571517564896078 15.690440507759412 12.743075433132486
Al 13.50657253230691 14.035983156004425 18.695495022538296
Al 15.974827607678872 9.951541096110445 17.941985511092003
Al 13.584018663582132 11.27291997669746 18.586073001243694
