54
Energy = -171.99319487 eV
Al 14.09753628084556 9.489440123856895 15.271483069293255
Al 10.172175630401515 9.2317058744937 16.16241154668789
Al 11.766485077212256 8.536392802171175 14.044395211627274
Al 11.850876997510381 11.450026809632824 15.50632225951011
Al 14.346641807093015 8.326838216256927 12.855466362245732
Al 10.670048600989382 6.943261964324343 12.148209005173113
Al 14.412190540187295 12.178945166007802 14.903032210610384
Al 9.174123920098138 11.71769986176433 16.398055476232802
Al 15.790817360796686 10.611519450748938 13.114976276058753
Al 12.655983712554015 14.117770054032844 15.774721702380816
Al 9.470778009319437 9.268745399050045 11.491905264221423
Al 14.32462070643115 7.307821108629282 10.446394962837854
Al 12.942006051552507 10.718160298652936 12.957023153292997
Al 16.632978517611594 13.127201907119366 13.569598144673153
Al 7.453403699508864 9.988828950225297 15.3073295394754
Al 14.897874027258075 10.095893085704619 10.590088719855027
Al 10.111333464581973 13.778055341320263 15.027338757358743
Al 9.891319501201941 10.840533464115389 13.668020272578483
Al 10.49589446207462 11.676982765378801 11.1194801146741
Al 12.034838507426704 13.096123938672704 13.187502172490001
Al 14.32370638247931 14.736666784939803 13.78040554672154
Al 11.949944333872132 6.700803184497539 9.612398146194208
Al 9.267212353106379 7.155828101533475 9.739437373857205
Al 8.974909711599075 8.156879263371552 13.912148486889077
Al 16.66088892793138 12.183934125388104 10.723659647553896
Al 13.391846485376096 8.90263192100845 8.50437992461478
Al 11.577761717544872 15.727880027934097 13.452204094994507
Al 7.813590630839494 12.547078752974345 14.105547009562036
Al 7.16535873924849 8.675755368221049 10.216709393950987
Al 12.184044838462885 9.067220010030136 11.104746569926762
Al 16.097370348017478 14.808375294562847 11.54541001507887
Al 7.206163518606996 10.18509580369736 12.616339829239609
Al 9.631792955492115 14.072087958172112 12.364251643152864
Al 11.827260671058125 13.693676486143382 10.042356760621267
Al 10.671106684180947 9.760516060266664 8.891556113992277
Al 13.459847121941756 15.445152625834853 11.337817315879102
Al 10.813837178117506 7.506465056781282 7.34885688244928
Al 12.871228903994512 11.40062674726957 9.489442044013792
Al 7.540300302773736 12.710098709370927 11.478310171082505
Al 8.341248889357566 11.194922481957773 9.317877358131533
Al 14.699098724863392 13.642745292512886 9.356399735462334
Al 14.28535727278204 12.710175368863032 11.873051700227617
Al 8.408857256098317 8.68040517316013 7.686612034860927
Al 6.121708230853485 9.999403260735514 8.027713507686926
Al 10.771892117700324 16.127793342289223 10.685293931401624
Al 12.509297190357593 10.763829058343587 6.806083365796216
Al 5.770426683571089 11.02416213516332 10.425293112535876
Al 12.977495996375048 15.865280076091699 8.681187400928765
Al 10.281453379388056 12.309100289219282 7.653924133065015
Al 9.080094412712072 13.935230710663365 9.680976218637497
Al 10.203300633283048 9.819427574095654 6.022675639013595
Al 12.861388581049473 13.357196090296663 7.397069647783687
Al 8.019853510093126 11.21920854035669 6.533786112055978
Al 10.628419377126907 14.986016923052363 7.741067095868119
