50
Energy = -160.02465106 eV
Al 16.234672621664377 11.471743609110595 8.83162261863891
Al 16.69511804076805 11.996251573879164 13.444873747538086
Al 15.907751271457885 12.989800293304677 11.196336989111895
Al 17.223203812819765 10.495077642919444 15.625822038453764
Al 14.93869123346627 14.059820898156001 8.956627609403693
Al 15.462158380987182 10.148876878112835 11.040706131605543
Al 14.748592651217997 13.893825504091275 13.654762587922507
Al 16.379312560472446 9.254837132879837 13.38594039919982
Al 13.938146030800086 11.871914126657007 7.4872912750449085
Al 13.895227845299877 14.846270110982257 11.422882209999335
Al 14.059447801777777 9.558992662034568 8.862362045596324
Al 15.230845196493163 12.382902453928715 15.78656276151819
Al 13.209181967568039 7.268571193524484 10.644818950628977
Al 13.07659436701562 16.158543387083572 9.261014298362973
Al 13.40629491965952 12.170754133638017 10.28278817462917
Al 13.99262880997755 11.298662863152504 12.926459281933882
Al 13.452677180642507 14.352882705390254 16.107898223312887
Al 14.540396294213098 9.803202071434129 15.322590826010755
Al 12.64103860145441 11.822143119034736 15.192890878386178
Al 12.287546288329326 13.756091972946038 8.029785936813335
Al 12.653571868788882 15.695088718058212 13.985604615916595
Al 12.099101581820404 13.156899114082302 12.848910352813803
Al 12.249731126377496 9.813625725238868 11.048000422036866
Al 10.967532320829804 18.04682811268712 9.51666378770147
Al 13.906909646092661 8.434301385623977 12.982487650027727
Al 12.027367122561799 9.077128101153802 15.36512781054384
Al 10.602041888389683 15.780627249287699 8.148092196443557
Al 11.342973563743648 14.372712086728805 10.59437521420317
Al 11.6437564327458 8.457341785358183 8.592835804156902
Al 11.866862655316249 16.83800769575133 11.738063408249786
Al 11.469526022391232 11.170678067040788 8.465667349512067
Al 10.86439567094194 13.936545482563927 15.362527852844352
Al 10.381427497479221 11.890647601091533 10.986132605600247
Al 10.218608596546371 11.083945819247825 15.915889562661352
Al 11.375736149346304 7.735554236383668 12.945715129622224
Al 10.84013922572691 10.397472293010477 13.226895422765505
Al 10.010348330829638 15.249159852127923 13.066814961907877
Al 10.420169024053697 7.087032200898135 10.503116368910781
Al 9.392765163812049 12.67189131567268 13.451601256201457
Al 9.620221332125379 13.43103342797251 8.716919529523297
Al 9.266641475616922 16.094186294344908 10.600797330748264
Al 9.468784033234389 9.557150082895035 9.910207424095091
Al 9.484533463269397 8.438091362031052 14.83354458146153
Al 7.916812071094174 11.610520744355938 9.368255893854766
Al 8.322016299769466 13.033517744663106 15.885419432228128
Al 8.792989573384773 8.418653565040978 12.269821952279422
Al 8.15235044755925 13.72458654911258 11.293023195536268
Al 7.92562341180925 10.5700010643814 14.541788974600097
Al 7.807215111015704 10.886299504453742 11.866500569626806
Al 6.642727904517681 12.791713373755124 13.557567247090047
