52
Energy = -166.67535646 eV
Al 17.198334797840893 14.181508067084339 12.498778398851236
Al 14.071876129659033 7.484831652978228 15.536008916841508
Al 15.936730833178661 14.353522370900674 15.026059214994508
Al 14.93406173715337 9.846229540242113 14.450901005804036
Al 14.362481622027707 12.210856109545189 15.964655258488012
Al 15.93527299701156 12.04726537628898 13.478800197553507
Al 14.260336463665677 7.818045816145609 12.592731150025049
Al 11.459778087001508 7.583520727293576 16.20221643943358
Al 12.955804909962456 9.972425566255685 16.431755986846266
Al 11.498352518231346 12.208848298879124 15.809979906078114
Al 16.263989338495573 16.634992407606312 12.8695721452033
Al 14.491887094358024 10.490622961518365 11.734984489764308
Al 12.83196866924737 14.311981588480524 15.120702910011858
Al 13.908505183082735 8.519182876380697 9.795578467001766
Al 15.733714253039556 12.826576059804363 10.735492879602456
Al 14.335120278325208 14.302306743349487 12.805556565892166
Al 15.147468597031631 15.591441205936867 10.580262765756524
Al 12.34349829290559 9.266025524941218 13.893713470598566
Al 12.1428942582273 6.486182586081657 13.820103070071921
Al 14.432982188719164 16.53374532887638 14.77836011669037
Al 13.066577807564432 11.94169884287816 13.543129912052237
Al 10.153945196720636 9.878644280703972 15.92131770772646
Al 12.967411784952025 12.865165719707433 10.89398288242223
Al 14.139027215797137 14.040186244733572 8.699009869908886
Al 11.139845440032879 8.125208409213535 9.075934948031104
Al 11.698788071913361 7.794811095932542 11.588519720930995
Al 13.386977598885503 16.79163053974923 12.29856373085084
Al 12.040222810319124 10.373385767943367 10.49440666528843
Al 9.827035397624615 8.29731227023333 13.729666406141373
Al 14.386197800131391 11.212512662788205 9.04031271889938
Al 13.161972059589273 12.532764510550113 6.794491978757823
Al 10.588527460233593 11.203491534321296 13.359080669826684
Al 10.318086409072938 12.305376991593832 10.79792521503883
Al 12.296683747191251 10.004546251051142 7.687451929192472
Al 11.398212645502495 13.731553376760044 8.605708785751412
Al 8.767364996430071 12.06560309821414 15.38378010987805
Al 11.372775752916302 14.13865709118867 12.664794677131729
Al 12.285102790593848 15.531611913041543 10.289535329434846
Al 9.977102109590016 14.515699681988202 14.968613097702967
Al 9.626801613038648 9.5227216256579 11.308333325219778
Al 9.643653165959362 10.437399732409185 8.822182199800752
Al 11.774134012092485 16.67547229944874 14.558778772447354
Al 12.114392222745597 10.774033372769571 5.145584705927617
Al 10.690839511960261 16.83211487080329 12.039929850380199
Al 7.65418153234738 11.278453699511196 10.63575917529043
Al 7.950862855468725 10.306666589557409 13.359495486300773
Al 10.344244430175152 12.021337355912932 6.750066562236031
Al 8.706778015038314 13.05884712146617 8.663881085970871
Al 8.656931923092795 12.96546885734715 12.752291834312366
Al 9.569933044941747 14.969459824490027 10.339694047348184
Al 8.466937097870433 15.543083051574433 12.768011764395448
Al 9.242746516203558 17.254321793030535 14.552902765055675
