55
Energy = -175.64208882 eV
Al 12.027765333180314 12.02717578 12.02717578
Al 12.029630737813227 12.02717578 14.906005634230683
Al 12.028502313196897 12.02717578 17.924176748618155
Al 13.902695455914566 10.651918306349357 13.465619961494964
Al 13.927970942733426 10.629889146356748 16.40004047350643
Al 7.387651032434687 12.02717578 14.931707762186228
Al 15.846184775022033 12.02717578 14.954418468837176
Al 7.358509926231393 12.02717578 12.02717578
Al 15.942220127755164 12.02717578 12.02717578
Al 12.029630737813227 12.02717578 9.148345925769311
Al 12.028502313196897 12.02717578 6.130174811381838
Al 13.902695455914566 13.402433253650644 13.465619961494964
Al 11.315171777039613 14.238945074800759 13.464569253895561
Al 9.702917898950624 12.02717578 13.467515778338512
Al 11.315171777039613 9.815406485199416 13.464569253895561
Al 13.902695455914566 13.402433253650644 10.58873159850504
Al 13.902695455914566 10.651918306349357 10.58873159850504
Al 11.315171777039613 9.815406485199416 10.589782306104432
Al 9.702917898950624 12.02717578 10.586835781661495
Al 11.315171777039613 14.238945074800759 10.589782306104432
Al 13.927970942733426 13.424462413643253 16.40004047350643
Al 11.304255467240095 14.280393822710586 16.389554145167
Al 9.676853295481713 12.02717578 16.405282263004782
Al 11.304255467240095 9.773957737289418 16.389554145167
Al 13.927970942733426 13.424462413643253 7.65431108649357
Al 13.927970942733426 10.629889146356748 7.65431108649357
Al 11.304255467240095 9.773957737289418 7.664797414833001
Al 9.676853295481713 12.02717578 7.649069296995232
Al 11.304255467240095 14.280393822710586 7.664797414833001
Al 10.586761158033836 7.604401295973919 14.914388219719676
Al 15.787369951484719 9.301611740077039 14.9230928179564
Al 15.787369951484719 14.752739819922969 14.9230928179564
Al 10.586761158033836 16.449950264026082 14.914388219719676
Al 7.387651032434687 12.02717578 9.122643797813772
Al 10.586761158033836 16.449950264026082 9.13996334028033
Al 15.787369951484719 14.752739819922969 9.131258742043606
Al 15.787369951484719 9.301611740077039 9.131258742043606
Al 10.586761158033836 7.604401295973919 9.13996334028033
Al 13.223953899590725 15.709488796983377 14.915438013380129
Al 8.922457029718188 14.283124217022255 14.94118031218868
Al 8.922457029718188 9.771227342977747 14.94118031218868
Al 13.223953899590725 8.344862763016629 14.915438013380129
Al 15.846184775022033 12.02717578 9.099933091162818
Al 13.223953899590725 8.344862763016629 9.138913546619877
Al 8.922457029718188 9.771227342977747 9.11317124781133
Al 8.922457029718188 14.283124217022255 9.11317124781133
Al 13.223953899590725 15.709488796983377 9.138913546619877
Al 10.537604028692648 7.597740595327309 12.02717578
Al 15.837454181060785 9.326267396852597 12.02717578
Al 15.837454181060785 14.7280841631474 12.02717578
Al 10.537604028692648 16.456610964672684 12.02717578
Al 13.260428218999621 15.810063670682196 12.02717578
Al 8.834588411861255 14.329584290639938 12.02717578
Al 8.834588411861255 9.724767269359893 12.02717578
Al 13.260428218999621 8.244287889317802 12.02717578
