51
Energy = -163.14779234 eV
Al 12.900048924234255 9.833311820256537 16.27514238014131
Al 11.574971066878406 8.321541710775344 14.50089597715565
Al 14.509465001231744 8.493035212997071 14.256085328671583
Al 10.728790159824301 11.470620369724951 16.55736030504174
Al 15.420904901965189 10.689508337431645 16.252578815580495
Al 9.301396388868369 9.844245868817634 14.648170644265244
Al 10.43786683698584 7.617920099094504 12.206855900236254
Al 13.356266711050276 12.511612262588267 16.016620125321978
Al 13.030381343377071 6.950222759463536 12.551805067767631
Al 8.086994055383823 8.71560694230403 12.47300872825562
Al 14.315654126889585 11.083437088200839 13.81381074676925
Al 15.732834074203048 9.67667935059458 12.058910804329386
Al 11.614928708408357 11.35279281385722 14.017289809157903
Al 11.374046352505772 14.043094765495736 15.387669003076121
Al 15.700075169730347 13.279617364381405 14.76156291163511
Al 9.53339515694929 8.675133178028403 9.821603854910984
Al 7.540627728662049 11.36056284803437 13.121052907639685
Al 12.12026942189478 7.509428966950564 10.069188559686348
Al 9.060909280009186 12.700177805887174 14.889022960032971
Al 10.137173083533387 10.57763572345193 11.904945207320601
Al 16.22591963883284 12.321933692086581 12.347079258263792
Al 11.916844320114574 10.261694449918643 9.590377479106463
Al 14.447030633770003 9.059973909259666 9.917462391707893
Al 12.689478270312712 9.5686727498085 12.182251558530439
Al 13.899748407942937 15.245805650672166 15.184568033668883
Al 13.788242277058707 11.73486621946118 10.95195885646106
Al 16.083969678338793 11.43962057026763 9.65029170073742
Al 10.6851274810394 13.470367575715786 12.712443021863084
Al 13.326700506980275 13.411924520031729 13.066897007645291
Al 14.934476173569477 15.61772582199422 12.614102066161669
Al 13.132466498653589 8.25678042327703 7.729290954512288
Al 7.47667358757369 10.42649904612829 10.465155886523517
Al 7.96972164390083 14.256678848308212 12.89076696402447
Al 14.110048034186741 10.80212159720322 7.850637634392612
Al 9.42242866426761 11.234108991246035 8.724616454702957
Al 6.062235973733601 12.836952336970162 11.390330779959022
Al 15.485705305456129 14.04896326609049 10.4839111461639
Al 12.175418289355356 15.99621194054556 13.071040050870549
Al 11.491257071872907 12.879603265328013 10.136794440185817
Al 8.854460765797299 12.74400393861573 10.880057662679766
Al 12.512008928032119 10.034889552363323 5.733853473039478
Al 10.56856341850442 9.18237561121537 7.403637098273528
Al 9.750442117167616 15.695924414718906 14.091394837709116
Al 13.941767171476473 13.360176797857077 8.516466233646
Al 11.62293069598169 12.1350731133928 7.376372081208184
Al 12.972996467539664 15.193692248495152 10.600886923729323
Al 6.918327170765363 12.582185304194754 8.795382545758082
Al 10.147236256220975 15.433220724784029 10.908454133570165
Al 7.479468148530356 15.012834964566057 10.220361676923762
Al 9.386459087585294 13.937366318454952 8.473714490508126
Al 11.808739217707215 14.892431341795483 8.198874808179069
