55
Energy = -176.24248463 eV
Al 15.095589841651186 15.316683841233315 14.852447519755168
Al 10.388947329572753 11.251660933708509 13.947490742376475
Al 14.852074596871349 11.212516225196415 17.2604941202271
Al 10.355583830888438 15.397931814780208 16.37504356432386
Al 15.202405276701661 13.946406423058237 12.543932425827142
Al 14.917237811650057 13.951013525305692 17.216751341745688
Al 14.970156057595167 18.120429556192445 14.93953172939679
Al 15.211473187865833 16.791218053858657 12.475984586837399
Al 17.15986169236418 17.99738414033004 16.510907714134024
Al 15.10215080312668 12.581680289200493 14.85515387819668
Al 15.2244218311674 11.101036475849451 12.48280829505897
Al 12.556229995937157 15.367375090532088 18.11621974238677
Al 10.362468039600683 12.481758055262635 16.37828516131272
Al 17.463724981527523 15.426204900761126 11.714698312421866
Al 10.2466863249982 13.941388751747867 18.652788519058976
Al 14.990979853023225 9.777214818300862 14.947492921965306
Al 17.470741119549793 12.476095254056377 11.718298619244766
Al 17.392507433276155 12.632265964745898 16.480215930937927
Al 12.644494393574924 13.944357882454344 15.602059560431112
Al 10.529622654895688 15.260066167090333 11.623468890237444
Al 17.182239835558608 9.916813102631934 16.516083327509048
Al 12.647534829933745 16.741500808533168 15.661144952485191
Al 10.535377092541548 12.611440872171256 11.627476688786503
Al 14.837264792723271 16.688938695793095 17.255774941050674
Al 12.661311087581588 11.147299641038963 15.667121073039796
Al 12.939103595084267 13.939384697915319 10.906543463334566
Al 17.385510362480897 15.283380037794133 16.47848643277298
Al 17.6468003047438 13.956210169495874 14.115478202839318
Al 17.39236954774742 13.947051513377762 9.43874990734282
Al 10.66659329005881 13.932558962710333 9.157261628123763
Al 17.520057974610705 16.663653168054662 14.172059513301113
Al 12.973727115286827 16.68449247212912 10.860621544231487
Al 10.748654906132254 16.6554137147335 9.249154745872273
Al 17.534450016241415 11.248183020963967 14.17681024278938
Al 10.656983228821288 17.994544946633443 11.601832275024867
Al 10.758506760232134 11.210349177684463 9.257768015889114
Al 12.82291362637221 15.302192183329089 13.279050539131337
Al 12.984454900082012 11.193994186146684 10.868528595437489
Al 12.996776012637199 15.329510989271178 8.354725222598734
Al 12.85983958742684 18.113356452183883 13.192247395807252
Al 10.672151567922294 9.877093625628584 11.613316252988348
Al 13.001978391425615 12.541435190156408 8.359129383049071
Al 12.829089810067869 12.582080798713694 13.28275364679019
Al 15.203533898651289 15.381505191609588 10.113637457909652
Al 15.301269187333656 13.93868913082194 7.679933714885246
Al 12.87717599938993 9.770746505193065 13.20272306062716
Al 15.209782968414267 12.503549152867468 10.117765252781336
Al 17.15395772235666 13.958741304911527 18.909725304655023
Al 10.300625704274795 13.937997768258118 13.972166037561596
Al 12.56338224931685 12.52456425483393 18.118757505153205
Al 17.01930865773338 16.667384470682027 18.84986496350978
Al 10.377844341444453 16.62478833591884 13.940733944248352
Al 14.77792816186522 15.343582834338275 19.72539729550032
Al 17.035237180492473 11.24916581647081 18.8529065444556
Al 14.785983009963665 12.56079341612645 19.727272125428538
