55
Energy = -174.60182887 eV
Al 16.186444353962994 14.374817179398363 9.642900858789062
Al 16.172149731853853 16.902442763228667 10.740565223764566
Al 14.083531795065365 16.05646434999579 9.344943938929271
Al 18.647150032138658 15.470021817256084 9.988642313713486
Al 11.315023137399582 12.54162606780554 10.865895263779507
Al 13.713740349400707 13.389329525067202 10.035929950615728
Al 12.23278104657914 15.35047412178952 11.10789701741204
Al 17.90243372696438 12.854700259698445 11.12921830724475
Al 18.51995467315599 17.925025563043288 11.237955361774851
Al 20.444603111998905 13.74489010826089 10.997667775709445
Al 17.66492376604966 15.33924059949737 12.52592729238979
Al 13.76688115350952 17.500770070316587 11.755867282597398
Al 20.248010183788434 16.217186523976586 12.231707386234813
Al 15.37358131777487 11.96972926776723 11.525613553460348
Al 13.027655393639279 10.497290594819507 12.011126485240673
Al 14.981433728143253 14.865646009872828 12.133349608141739
Al 15.858046113946473 17.283971745961317 13.581251832733042
Al 10.616836257737807 14.329030966498246 12.87115387038717
Al 16.599452172885055 12.916959941999353 13.690846803593267
Al 18.45594298999529 17.59144491567794 13.956609892872269
Al 10.549275623610692 11.589312906796385 13.22123696889153
Al 13.099157364699638 13.150303552926129 12.917579791078007
Al 19.366903508191477 13.109949410033886 13.363038933616027
Al 11.579163365269569 12.826781084165626 15.404162518325258
Al 10.055208973261939 15.789487422144123 14.983497346672598
Al 21.805590372783715 14.34552057664342 13.317462608318477
Al 12.725120784887912 15.837909900624524 13.853005529014338
Al 14.170280352578823 13.901900853489359 15.350637790462297
Al 13.56199150803333 18.520208921890593 14.127242894574854
Al 14.519168449054982 11.262074913145842 14.169372784415547
Al 8.914220239360352 13.139194814588768 14.655155115455058
Al 12.178230267413186 9.848495808361939 14.578880466258825
Al 18.384473310299704 12.988257869261654 15.875873928544628
Al 19.721075894467845 15.369299715009875 14.80759318401489
Al 16.910869870864236 17.42146908148357 16.726035770125353
Al 19.536555689318273 17.65996781207273 16.43108504962249
Al 13.323712410533105 11.111820939862707 16.624580624684278
Al 9.640118255726206 13.996150515569738 16.991364409276805
Al 16.784164170541402 15.17537330937913 15.08221821284407
Al 15.916797990200157 12.133096999986941 16.34025568706213
Al 12.135106638756346 15.187818246219306 16.683979734397234
Al 11.589089298313848 17.779674041740414 15.694932598963204
Al 18.5370193373922 15.237478408188835 17.219874459507743
Al 14.405746297762787 16.59168929074915 15.945840400043732
Al 11.826065647763143 12.75541111564764 18.15133976413819
Al 10.716819868317014 15.17158272881195 19.06138419322983
Al 15.924768614798685 14.596848084340797 17.66166210067598
Al 14.539403050020663 12.399256366570707 18.680141523668297
Al 12.355293511071517 17.44894535313524 18.1899733024515
Al 13.59239536924849 14.975249597353296 19.070604887220632
Al 12.735827344666664 12.818296853991182 20.618599299821522
Al 15.129946578104576 17.166506320271164 18.62793481550308
Al 10.741250844046037 17.41681130184717 20.575907286338747
Al 13.503151972312265 17.344210332966767 20.57386558981019
Al 12.068568881348435 15.165689849808361 21.401717102599648
