55
Energy = -175.95728222 eV
Al 8.407357236491865 11.438783031776174 10.797180983577226
Al 18.646829226339925 13.981822138357987 13.313545447055628
Al 14.8257506080811 11.168614008810673 14.975239456222223
Al 11.267154207834327 8.141590443887566 12.44630031823879
Al 15.809321880870714 13.963150150307714 14.29069272932541
Al 11.44594667190729 11.931967289473016 16.78238392966902
Al 13.141488614449274 13.028389602203548 10.260566616396858
Al 13.209528913869267 15.975231825038984 16.771751249590213
Al 15.682477407507172 10.213696680229793 12.571544659791172
Al 11.058492848731644 12.03290312846293 11.845831362887672
Al 10.590717182173659 12.35487529497209 9.140734810940497
Al 11.84970187241122 10.866866625194143 14.060381006909294
Al 8.848279691528463 13.747709438738736 15.795829177803455
Al 8.721399770031939 12.497248497884923 13.334315404686407
Al 9.37893884691664 10.954972551142411 15.399750718641744
Al 13.074200214416209 17.24892454274627 11.13159411249927
Al 9.87334643959994 16.46830391011247 10.966621153255552
Al 17.761838125045934 15.030327468789311 11.016698312087433
Al 11.17710172655056 17.319309140683966 13.082257113005284
Al 13.663599359983023 8.851971437177635 13.89338718102561
Al 14.802446670483866 14.923689946750379 11.902424932621384
Al 12.83805620688483 9.680022178191127 16.335188805054027
Al 10.660439077891068 8.530864997250601 15.025714742907848
Al 13.25637124053475 15.473195527314939 14.058924849900544
Al 17.475157914320842 11.57857352509724 14.140597265895018
Al 16.545341290546766 12.772483586243252 11.929065500878972
Al 10.620340041352579 16.28090736080141 15.496898967947402
Al 13.514833829139379 13.40751155973308 15.715389663866262
Al 13.840202684867087 12.498729590268319 12.843726116829544
Al 14.315926936426914 11.568283577732807 17.59513288331881
Al 10.908897047981434 14.490630771310943 17.413617183696612
Al 11.202669109858098 13.474509220751031 14.36981525794017
Al 19.37529893095703 12.838916684775224 15.678716728625037
Al 17.241859966216982 16.298992900407097 13.369575149949684
Al 15.941532224848594 17.01635760900619 10.771326351750938
Al 15.600458555309338 14.759043330424568 17.480720157114035
Al 15.625935324397318 16.506562239945925 15.48703372198369
Al 14.938818603240414 17.612934809401153 13.184779370629123
Al 11.360292865314301 14.97641144376818 9.26779760028164
Al 13.040318988287925 10.125439461102115 11.547166007601549
Al 12.92646843419596 17.989496182209454 15.008916025492093
Al 12.550926295180124 10.529037247714058 8.825514400934722
Al 9.339764839349197 9.902721344851079 12.951554356440301
Al 16.766147820913886 12.500999875635705 16.563980686865783
Al 15.171555341519406 11.184511738714209 10.161997362381856
Al 13.999276389181684 15.5953949914546 9.22347287070189
Al 13.247347459136297 13.853918168510676 18.48673677108636
Al 14.251230778086342 12.390291852737825 7.85814823474088
Al 11.832789492555102 14.711592108386917 11.975624514938637
Al 17.869272210887473 15.080905395700325 15.809233686939653
Al 15.95334436367762 13.77018356355364 9.428495680000411
Al 9.206162836557931 15.228710454263837 13.457638689901756
Al 10.330822407094274 9.705353325094494 10.313191897983224
Al 12.299227995612332 8.019273239703194 9.87970225630598
Al 9.146619094762432 13.936517097514335 10.995199675194762
