50
Energy = -159.05397217 eV
Al 16.37551232635667 9.731024971261723 13.085403028201203
Al 16.924916785343836 12.5168952484402 11.857010015108612
Al 14.855750739418877 11.136310060134596 14.948805861406258
Al 16.488260869299364 10.146499573327564 10.41655487441577
Al 14.248588211162826 8.701613902431617 11.401373846592383
Al 13.509820779999547 9.12976412787434 13.918793042454247
Al 12.480316993577262 10.73074180457679 16.048674399776424
Al 14.478146001091213 11.428201779798998 11.919133937909905
Al 11.405708282439482 7.94844491854307 15.07267454199416
Al 12.48668101529217 13.57545667034431 15.841376297165265
Al 11.650885345068163 8.086794154864918 12.281145460019188
Al 15.137012796977817 13.399985570926829 13.824204312412574
Al 14.019060098066696 10.326190566701502 9.281905302778267
Al 15.50247456468496 12.644489152357092 9.52315964147019
Al 12.213540401751537 8.303052954254614 9.588962050352347
Al 12.564137745698114 12.244305331866087 13.559215642789193
Al 10.798686437269433 10.310567599017546 13.877366008132414
Al 10.077838755080178 9.74119437321463 16.65964337226136
Al 9.887809933337241 12.278477381823143 15.761684501486966
Al 11.992225928920096 10.70173994026065 11.420337153104535
Al 14.668707866663189 14.353671545319532 11.426520506312283
Al 9.134892096571445 7.808525492738037 13.358450158690344
Al 14.033191045842623 12.378220997278035 7.372073342767484
Al 12.996110900719756 15.070346689788181 13.57462709597775
Al 10.458990046730547 14.253037964997622 14.062851702905888
Al 8.84856070140206 12.331845660719322 13.165067670732705
Al 9.262102172431472 9.998300548272134 11.753421674626075
Al 8.156219105340293 10.091078713233994 14.619890482676608
Al 13.1194139389728 14.591273907149423 9.150000335642847
Al 9.723132086194923 7.487036212528299 10.588192584943986
Al 10.69276602365546 16.644456291651395 12.917886826575247
Al 10.374302925173897 7.336984280114078 7.933585978576187
Al 12.195046365776955 10.078691250471675 7.3096567101777365
Al 11.704044605898474 13.667545545735507 11.434546677534124
Al 12.667923122197571 16.222757271975905 11.130080448603353
Al 9.59198984193177 12.231577098708367 10.428652968762087
Al 11.978836203804644 12.119122069098102 9.169776918016456
Al 7.135731040928959 8.417963849268968 11.28213560869024
Al 9.131058057707856 14.70375998907155 11.65191304744575
Al 9.973445160910627 9.910692531174481 9.03885130580745
Al 6.512635902632739 10.769936219938742 12.489162759403593
Al 7.762341467781672 8.243751996080544 8.592454545160463
Al 11.904001174183232 13.864715179256265 6.887915741726792
Al 10.20232676494545 14.489834788733143 9.019748575334049
Al 9.833888293328316 9.325964014640565 6.173412699761252
Al 10.026806879578846 12.033611239528101 7.314442829402559
Al 7.337545377121508 10.709816438540786 9.87169263752405
Al 7.775427228404495 13.122419119567796 8.571448600516476
Al 6.968482184567016 13.109044298210602 11.122356119224582
Al 7.7490325493818695 10.63850045068043 7.262678592462746
