52
Energy = -165.2194691 eV
Al 6.762651952216879 10.972672476351809 7.762543201350758
Al 9.192501086594866 11.269360215727849 10.037843834187544
Al 12.596929433285236 14.42544303514543 8.832849994559929
Al 12.166152520207016 7.1757840874670356 9.701378576913154
Al 6.160732800045212 9.398314119531628 12.743374511738288
Al 7.694974888977843 8.557011669662915 6.289771784086235
Al 10.328977560827944 8.90267844732317 11.229231792225832
Al 15.153133241895398 11.613672640286547 11.451106671328121
Al 10.732792560159643 9.0230690662811 5.312639378820555
Al 8.760540451788836 13.379550003639295 14.371742761344201
Al 14.476887518061094 9.407675735451326 13.238029448402806
Al 11.372756698978021 14.098078559983506 13.354913762676725
Al 6.339263207299729 10.54462533325624 10.328399440202256
Al 9.097985512140966 14.052678325719032 11.800185046082955
Al 7.40064510726631 11.91279645313336 12.435891298249537
Al 7.9975225704519115 11.08363521112468 5.231789624885297
Al 5.809002077984214 7.82726090675312 10.520912560695663
Al 10.282677143395759 7.3171896811443 13.80438655586022
Al 12.77477526558376 7.992440997477975 15.19889059243269
Al 11.608090001350481 9.67342763007245 13.500483770962154
Al 8.145936793702425 7.526199867055898 11.892588925028956
Al 7.5095090006753376 6.48652040054608 8.1462014636904
Al 9.431394917987555 10.297722046485566 7.392148113949635
Al 10.971909664144974 11.916087418124174 15.202794887373315
Al 13.624290200892085 11.733359693304092 9.185394407515046
Al 8.232256348232731 8.79963803020953 9.33944208565219
Al 9.587908851526961 6.41506909920649 9.98438648638012
Al 11.440866414508346 9.604744619350416 8.879811524002374
Al 9.933083812965197 7.4968159217181025 7.5137032482793344
Al 12.859141675299432 10.579606036004234 6.715507068531501
Al 12.904299545069442 9.872848466308135 11.0726004460852
Al 13.399476806603301 10.609606713426189 15.593969917889554
Al 12.91204969250525 11.9350192475925 12.948190224271583
Al 10.090065640458851 11.584426326404678 12.600266104359354
Al 5.533334383338709 8.534598626503065 7.9777753317863
Al 11.145970605851392 12.212435730459156 8.190926415020158
Al 13.316693219573684 13.388726568499065 15.259907661298369
Al 10.37155997287389 9.24085623232867 15.851195109255746
Al 11.491065164849696 12.801480493632981 10.772541626650009
Al 14.1992840062677 9.018716641993079 8.636319144753747
Al 10.725132235948772 14.488412640041078 6.719654912969652
Al 14.751267485491214 7.81109831008781 10.951620572745352
Al 12.537463785959927 7.778819567378915 6.995932069636451
Al 8.503094353090269 12.955899529385198 7.364214539645003
Al 9.719515443974352 14.455285758445187 9.261558035974915
Al 10.611212751492888 11.945944104250636 5.579441832389171
Al 7.178076181187309 13.106121035378303 9.868682197529955
Al 12.559229904393016 7.344432934759565 12.438027031648849
Al 13.826251470615182 14.100760146879558 11.286213734432245
Al 8.685335663432538 9.551414737290234 13.705634552611093
Al 11.39555692710674 15.580721508817986 11.097213950529913
Al 15.423107589951707 11.923579061082076 14.154103879591581
