5
Energy = -9.29772628 eV
Al 10.189372371429007 9.01865139031207 7.122365829688728
Al 10.673361688422709 8.184722727945259 9.611562691746697
Al 9.881266998068767 10.708801844073673 9.159523977923978
Al 8.110888191827694 8.67559401555214 8.878327745164349
Al 5.670503153511354 7.957117449997972 9.750858176305286
