55
Energy = -176.35551941 eV
Al 13.566618968812694 14.054253581758768 13.475609841391995
Al 9.15627957844022 9.779893318396534 12.564521608381888
Al 13.38287629060967 9.758663510453284 15.953041000214334
Al 9.055271909591456 14.08796673280142 14.936170301800779
Al 13.764512835525482 12.553862843028474 11.144339324784879
Al 13.43732793258657 12.597866145504197 15.863478699953376
Al 13.523297339806938 16.87486317886183 13.558859656099052
Al 13.858057401129157 15.630427393853651 10.987132927421365
Al 15.699799712574057 16.676102251356284 15.134485735682112
Al 13.579284661237155 11.091351199453252 13.503528143723958
Al 13.884025241387553 9.470769363890405 11.04934943842652
Al 11.12349650598257 14.052392327697627 16.73385783549741
Al 9.067627615318703 11.0525768650563 14.968524479094995
Al 16.011263449160467 14.107202399376188 10.350123768759236
Al 8.842851597706085 12.59331928247669 17.143468610244728
Al 13.55875932172839 8.272413565514562 13.644976072607902
Al 16.023318975389824 11.00175457832502 10.38293097420014
Al 15.786419501508334 11.25220800205872 15.133979441790304
Al 11.312404695670137 12.571473451880445 14.23953717735404
Al 9.326024272781385 13.86943088675417 10.180569360799154
Al 15.735515415945743 8.523568918665951 15.21448607280567
Al 11.207729492997212 15.596112509116796 14.33152445876202
Al 9.335811820393591 11.176603873113978 10.207334052662626
Al 13.358646399947816 15.436175219424698 15.896614110823018
Al 11.23358146458949 9.552106410176778 14.391956503965648
Al 11.640930052678492 12.52606640132376 9.486733366879784
Al 15.774780246667229 13.947856442879347 15.107044688240002
Al 15.884003327397474 12.576658581599006 12.754121449637456
Al 16.077697040775057 12.5303265822472 8.15093574011931
Al 9.378970162519556 12.496748302628323 7.722946329634737
Al 15.962298984175922 15.376980143876938 12.773061620591834
Al 11.673592071526787 15.369860307462382 9.399636358673678
Al 9.440264881784607 15.222383301000717 7.7828821364361955
Al 15.986455091567864 9.776867608073188 12.8287064291519
Al 9.336512157933514 16.609717958722403 10.127188199948684
Al 9.461980289180264 9.77398961390872 7.840735511709945
Al 11.53178740040353 14.0219352588982 11.848223142998116
Al 11.698296996996271 9.679336177076323 9.458669062019986
Al 11.712095670334325 13.893590218716277 6.94448509395946
Al 11.510740395742124 16.855854537035523 11.732827633885385
Al 9.371435083054804 8.437326320529287 10.213603423550623
Al 11.722487105640344 11.101794671813872 6.973370146639118
Al 11.545307045073846 11.078598463895462 11.878328372651318
Al 13.870374709624032 14.005059235863962 8.733533819435184
Al 14.033677842202422 12.50149302181214 6.3801764660990194
Al 11.547448618159908 8.242312401299118 11.820409740733844
Al 13.88234256900883 11.051297206673313 8.765535109151326
Al 15.685697258091357 12.624064522116454 17.560616405643312
Al 9.241804360105446 12.547581218902367 12.545676957072756
Al 11.137554421049787 11.142098899312437 16.76451231687356
Al 15.55627355224434 15.330921056433509 17.481837814959928
Al 9.133036211786871 15.314611086906316 12.507754658625249
Al 13.302923543875506 14.011452061118796 18.34488985245365
Al 15.581343493688285 9.914438170065532 17.53567345063848
Al 13.315211338092386 11.233546741011962 18.37360942653997
