50
Energy = -159.7032152 eV
Al 16.418495007519347 8.98560830784999 8.575752268701068
Al 15.042551353646555 11.33804198059054 8.480162887302834
Al 13.757647504448792 8.81831690893866 8.111500932496723
Al 16.756632048430934 10.795944942171333 10.615549873465838
Al 15.135490170410094 7.456345248921527 10.37866636719346
Al 13.60431200486621 13.557269831642246 8.375218092394759
Al 11.086418827716303 8.75147837318828 8.089992213390858
Al 12.334124646089899 11.14699986075512 8.376496900745767
Al 15.451422101515728 13.150633467675656 10.55815420250677
Al 14.074251096380959 9.937349898613627 10.692559328612624
Al 16.34768916168428 8.97304307415229 12.510677771568119
Al 12.45055394889692 7.50838501045265 10.21472910902276
Al 12.028112115029638 15.744119117955275 8.38732712481829
Al 9.539132758083063 11.055406295456157 8.36891888883363
Al 14.031382497204328 15.359625224125118 10.398354485731097
Al 13.766601135188173 7.8557958455990935 12.637465826646913
Al 8.365303761665698 8.606119779458094 8.164703081864154
Al 10.76227980213142 13.373046244844517 8.464115667627496
Al 15.12461540335687 11.559288411923982 12.751168113462167
Al 12.812332221650976 12.321428425203772 10.766559014625532
Al 9.778177638862902 7.594206311465682 10.263312073055143
Al 10.294401654731379 17.75121890901465 8.910342587421685
Al 12.427587812357515 17.49797832780501 10.493266523659075
Al 11.140715422832457 10.052981048754924 10.585982303719993
Al 13.835363505340013 13.932469351173868 12.774970558909681
Al 14.66334623398214 9.579354486376017 14.53443017304302
Al 9.18716910032283 15.307118502608214 9.46619521058253
Al 11.44827917919017 14.702026599444059 11.016107939262758
Al 13.314698929608623 12.188930766078816 14.785105566060357
Al 9.57966032537026 12.471183425253683 10.708521504860945
Al 12.998634650168967 16.463492615615355 12.844062324248899
Al 12.45966084892228 10.394801105737526 12.987691280951887
Al 9.96569993575879 16.962742893520286 11.584597167707422
Al 11.173550311714331 8.024006974797064 12.602851214099553
Al 8.24242975782733 10.02862319449574 10.527657703659708
Al 8.490867179538983 8.052083841972584 12.605581960851616
Al 11.207075645339053 12.874173767031447 13.004250045548664
Al 12.436520559126329 9.65192028843559 15.902140266274241
Al 8.561367556132765 14.696590369583433 12.029599772807684
Al 9.644044144568337 10.625640481596164 12.794337399001154
Al 11.113813328389417 13.899317374566092 15.85372343583604
Al 10.652072952511698 15.478840797791621 13.736009373433895
Al 12.236562348379687 12.006719429294414 17.243493456431935
Al 7.374876618974602 12.367926112624497 12.3723223901212
Al 10.489063194836328 11.407442662343655 15.273718676044817
Al 9.902531767696432 8.764004024124405 14.9309386895498
Al 6.53968006952349 9.933086431084472 12.764479185327625
Al 7.098522415140744 8.392366246711932 14.934859387889857
Al 8.837554382403608 13.48768666577219 14.50251700716817
Al 7.887794873399311 10.987890654273949 14.919932580327385
