54
Energy = -172.93267337 eV
Al 17.851251806096627 12.646732365812843 13.245446634239494
Al 16.524134432096687 14.973950179465145 13.054019451381931
Al 14.995893599905223 16.661435716849958 14.37203466176603
Al 17.772426703648843 13.854339758569324 10.807367884719225
Al 15.430828682665505 12.950367131013309 14.754392064062875
Al 13.98867053934215 12.314414281572706 17.140074891666316
Al 13.8446210241845 14.85220946984748 15.911549543558849
Al 17.05925498385525 11.227356814074634 10.705383981614066
Al 16.112075675340012 10.645824021999701 13.447563803535234
Al 15.36578349481779 15.177285630803611 10.545380875470125
Al 15.265392788602984 12.778029962968045 11.984224102620209
Al 14.278136672100842 10.359080986878281 15.45394046875013
Al 13.642578770716828 14.714090135992784 13.047944388283806
Al 12.659908885272689 17.342787072754906 13.460355132473985
Al 11.702893944279072 13.711329928890587 17.18527659752802
Al 15.865632217127759 8.961315539860486 11.314593215914444
Al 13.091894520334575 16.460294025700822 10.96748438507889
Al 15.456925421732915 12.917347134586974 9.134799870471271
Al 12.578581934683637 12.764744160933953 14.639227896331644
Al 14.680815462074293 8.418596727174885 13.772968097569082
Al 11.306344541755157 15.271695543166143 14.731451493712722
Al 11.502019454887046 11.01982120318657 16.382559547656758
Al 14.066543065224666 10.895071835321582 10.333944527142267
Al 13.358616401433306 10.846458124482975 12.827272294434433
Al 13.432482341099579 15.044361597574362 8.44250793711233
Al 15.071410908268577 6.414019976153043 11.841884333789725
Al 10.920262442522795 18.12300827397086 11.41963101743095
Al 13.434235103289458 8.293018054859909 10.438147126004731
Al 10.13713632496444 17.861292552943862 14.267174120052937
Al 13.029441571029617 13.53606145844246 10.635924438276746
Al 9.6330243425963 15.862807732919117 12.410992870305463
Al 8.583235104449471 15.65766412550775 15.000878010452476
Al 9.699169150651517 13.129140873885001 15.55777264551146
Al 11.35956939740698 9.30458535225344 11.792221285102784
Al 11.164925986375009 13.680028828900456 12.445557287026269
Al 12.573546528450164 7.0275018648638055 12.688041284606543
Al 13.01967385074463 12.162543931459187 8.201407704465549
Al 10.594569210950983 11.26635652008708 13.501522591082392
Al 10.740019416324012 15.857595898327201 9.96967928654723
Al 12.092384620248685 9.04445752403294 14.507668302478208
Al 10.967176910171434 11.780872856262535 10.513559138942325
Al 8.088625312557319 11.181489964057604 14.6075556369082
Al 9.657254368148289 9.123203319743396 15.72212822534381
Al 8.322765337123649 13.624447778240047 13.309007045756106
Al 10.234120314582213 7.123509339184033 13.9943585387469
Al 11.704263515403367 9.646645295737303 8.93008487793586
Al 8.997213402786043 13.86819151082418 10.620157903576477
Al 10.781181439817166 13.773693652126079 8.471673642660624
Al 8.13682489562717 11.506644101902333 11.744870487379483
Al 10.713665068985215 11.536527906727141 7.120939283844186
Al 9.213493463431268 9.542603952311511 10.268233883719175
Al 8.834854031946021 9.143311040908795 12.9376077400225
Al 8.530552283198471 11.849414121968831 8.98076866551386
Al 9.136140681617892 9.474865188864085 7.643231226368097
