5
Energy = -10.47429294 eV
Al 9.193674504821418 8.913883789495731 7.170749994772473
Al 6.965732614224861 7.805243810893007 7.9609290294830934
Al 8.715608209178411 6.413149859464421 6.6710285632599975
Al 9.441764044964078 9.843682868002677 9.504776987568654
Al 7.309924365361399 8.650743410694332 10.319219163465952
