55
Energy = -176.26467257 eV
Al 9.069392723536527 10.530918459571847 15.658560976310103
Al 15.38086124038419 13.549598672180672 11.617739395934139
Al 13.776941291059677 10.162432872726276 16.93337214929768
Al 11.442873420810281 12.446063956624329 9.496101039920667
Al 15.617636504337227 13.914855855002413 14.407747130522889
Al 14.26615253701091 14.865294892649915 7.863618287740743
Al 10.989216983926914 11.421113968834703 13.966594448185592
Al 8.438285393567698 12.188126914909674 11.173210299527858
Al 12.982566558584391 14.602225223724357 10.346887605228964
Al 13.57485985239434 12.649101565584143 17.914599979709923
Al 11.261893111661083 11.70568086279785 16.830614975040515
Al 13.195273224174382 14.505743359227022 13.112246879897594
Al 10.655900554601892 16.24839616468812 10.371282160381833
Al 8.441553940752536 14.878261546875986 12.084606734088096
Al 13.418326311295246 14.652906676370474 15.914135768998102
Al 10.890179308922185 16.03408637607364 13.072266371529123
Al 14.134973418508705 12.454356796056663 9.155622900311887
Al 17.78012451192492 12.315512933465877 10.64916975107695
Al 15.322686501070327 10.762859948007224 11.110047152655033
Al 13.063205467580541 12.190864872863708 11.860258621777023
Al 18.012104627582698 13.019822899293121 13.232694689590867
Al 15.599170925776441 11.422526059982468 13.746279235512597
Al 13.339254758333878 12.135475253090865 14.942601041269851
Al 9.206614607830476 14.13229795635447 9.579094917242081
Al 15.823100225181541 11.926667206490508 16.50982180409019
Al 12.90922435760503 17.027088509126685 8.834826290103623
Al 8.972851518391998 13.213948915109984 16.50963969360184
Al 15.36313066874134 16.219125441157548 10.041905297184076
Al 13.04427239810301 17.122988412451008 11.545057389047681
Al 11.220101005126192 14.216372483111359 17.774695127172063
Al 15.471708725016144 16.113954274578806 12.723342013078875
Al 13.250340359042458 17.117443651794126 14.164150505321604
Al 13.540788065953643 15.263429717991754 18.732915566932224
Al 10.655837094519772 10.510613386348103 11.461156989397844
Al 17.877662960693584 10.362899421413585 12.499353938459377
Al 17.926036613628245 13.728548727865087 15.922565020098991
Al 11.618897320687315 9.279733999023481 15.718145317345684
Al 18.056147024501623 11.028536604854308 15.131486060057682
Al 15.819303238885539 14.380631034339169 17.53594205199576
Al 11.418061028684965 14.790789101603801 8.08646917993476
Al 17.68478829677191 15.020532345494862 11.353955354263736
Al 8.679405771429801 15.297210916036496 14.771908248169108
Al 10.74938462574853 13.496143085237284 12.033735932815603
Al 10.056115014273125 8.939499761853028 13.615029139502395
Al 11.046773065387205 16.339382294641815 15.892730963156398
Al 11.017745515656081 13.827583824802785 14.819077561848058
Al 8.486259973546764 12.643676857753794 13.83551520849957
Al 13.477426247769749 17.26645823979883 16.820615613135217
Al 15.661867959728163 8.819571588161159 13.131869024475684
Al 12.929593270280199 10.140487600842741 10.041364920489626
Al 15.716129556155163 16.395986687688048 15.51318508980367
Al 16.07246946242257 9.344632144154616 15.74490096081412
Al 13.100042673141422 9.798191888269983 13.179259367362098
Al 17.993161793908595 15.625910495399822 14.00449590681832
Al 16.529447572685154 13.981558474945999 9.03965313256982
