55
Energy = -176.29003481 eV
Al 13.297178162104656 13.695871345553469 13.11713875131466
Al 8.788274806544631 9.468805530072052 12.289340413115855
Al 13.115793920202387 9.43030031873843 15.658202309807203
Al 8.693021717982248 13.511461971982554 14.684575776060242
Al 13.484496698772471 12.395180814148953 10.732493345683702
Al 13.150990368609444 12.253584479679054 15.613552733890272
Al 13.225277246554658 16.487461451376888 13.226265624883407
Al 13.650795482997248 15.330375744417479 10.59360174073342
Al 15.37090656402021 16.50852076609579 14.931235214953624
Al 13.268644525279049 10.834274321805367 13.260872464289033
Al 13.418008791389422 9.47837141927451 10.870785624731386
Al 10.8021166313013 13.505503999493055 16.439535268730307
Al 8.759691177353622 10.674848807992158 14.741808158827656
Al 15.828946931488762 13.857764537957006 9.96583621067056
Al 8.479267057872624 12.096597761807436 17.07348100142314
Al 13.251222591996862 7.976168030318419 13.368163157470052
Al 15.66806092698671 10.864353957343589 10.087479615444442
Al 15.530959428707499 11.047645599400786 14.86840229075576
Al 11.009361429590466 12.118524021469833 13.945982456272679
Al 9.045163284465506 13.560962897154715 9.817868943584239
Al 15.488251477678437 8.293422445775917 14.870198343987331
Al 10.949649731107092 14.916298129116502 13.913206398808434
Al 8.901774076493604 10.877876763049358 9.880867988467362
Al 13.016361319499989 15.062896782045316 15.593828402825304
Al 10.922641972328204 9.18260566568343 14.136679307758843
Al 11.321056377496921 12.227833581470417 9.10428348671105
Al 15.44107624938391 13.744413524081514 14.870685021879424
Al 15.597970344309735 12.3929418435447 12.458635017516805
Al 15.781726096884721 12.21574901781774 7.768025574766041
Al 9.099716024507641 12.245451491417494 7.3690735086211525
Al 15.676615975942356 15.164504570967583 12.48309202827981
Al 11.450873560933879 15.047664545073683 9.027175283224427
Al 9.236229038446671 14.96775396022687 7.431661408993696
Al 15.688702065201959 9.630594397243017 12.554780014805912
Al 9.095369378905295 16.291476420782487 9.794370568650033
Al 9.083424826644869 9.531490046663038 7.52653685282354
Al 11.22506570873469 13.628907457790662 11.477196458746493
Al 11.276354294796018 9.464073176533555 9.173913260518457
Al 11.485760612857762 13.5938746449579 6.567409809602995
Al 11.307427286155798 16.45217313732006 11.33185005018914
Al 8.931168222830804 8.109237940416124 9.878743427267981
Al 11.404664082988642 10.781155984829814 6.620657070895221
Al 11.162810415681047 10.835371550062593 11.591147896423848
Al 13.659413930912581 13.74457026101089 8.290441614723674
Al 13.763771372133073 12.14340090871654 5.894823899451162
Al 11.123267488962709 7.974784453132465 11.600305602441816
Al 13.533523369991212 10.802400466377717 8.393959024149758
Al 15.364842550254748 12.347084225933537 17.30375312680966
Al 8.880603801046618 12.210761373782493 12.243598548054672
Al 10.82204585600861 10.697280589596911 16.52363650916763
Al 15.122837602051076 15.068640720943023 17.26132373676362
Al 8.795863530218044 14.934022373600596 12.188849247587678
Al 12.937975294514228 13.634427737971324 18.087399771777164
Al 15.349925172085225 9.627588283994461 17.203281550172733
Al 13.053619433309404 10.851250037508361 18.088545370014078
