6
Energy = -13.1140717 eV
Al 11.457825504734096 9.388750032580115 10.261963383618594
Al 12.048969793200948 8.235357897537531 8.063865521302182
Al 9.466813256246569 8.438329177650495 8.301759309002154
Al 9.190997020390062 10.432800640895826 10.104873977215687
Al 6.634102270159749 10.892932075544456 10.092220857784337
Al 7.115299334805511 8.574120013591385 9.143047895995949
