6
Energy = -12.97567948 eV
Al 10.04480969181391 8.625318062471674 11.309643760998464
Al 10.314594385446174 10.40476825605335 9.554478090883682
Al 7.928098997441027 10.263113574002174 8.553406020437725
Al 6.613670044222241 8.156829575025863 7.810175057553316
Al 8.462102895026577 7.155406995740094 6.435709947452265
Al 9.180383303905476 7.938222854561879 8.880246440530081
