6
Energy = -14.01778224 eV
Al 12.108523263336382 12.326718506260272 9.847103580019825
Al 11.5380264185064 12.96867435899218 12.455767335316803
Al 13.119718263256559 10.665015029825197 11.747165127423292
Al 11.216810019982244 9.782315171902837 10.27829864643085
Al 10.60520493800008 10.441723815322698 12.840522285250952
Al 9.628515779276631 12.159732391274327 10.949873292897013
