6
Energy = -14.0183752 eV
Al 12.103365262573963 11.818370195170854 10.46309574675244
Al 9.614267614250295 12.008817815598901 11.538500396535389
Al 11.48119554775931 9.326639369662882 9.514479880489093
Al 8.97447756464132 9.535170627540992 10.601782578793927
Al 11.000367445973499 9.727588164380345 12.160892261830309
Al 10.10465732184313 11.585540456854394 8.87762152138122
