7
Energy = -15.60527045 eV
Al 8.299251616720278 10.50292086392803 13.066012418261217
Al 12.509609940684209 9.930265748786102 10.205553363766565
Al 10.239538154669782 10.82868741563999 11.386505413823459
Al 8.095956766031104 9.059303545959104 10.945440048357371
Al 13.668198119696514 12.321848285463785 9.813029090042
Al 9.930790787924662 9.326409802222878 9.261727389869334
Al 11.132117104790808 11.876238684278183 9.06038265872273
