7
Energy = -17.80781204 eV
Al 6.783597540870972 8.0850243908612 5.107769220162729
Al 5.966535180589778 5.462748804182058 4.711913009414727
Al 4.786066603689212 7.049496048019804 6.374940119745197
Al 5.419381379898354 6.453044282049515 8.879001567270764
Al 8.428758632255219 6.029128875071723 5.680592318729206
Al 7.443829402212213 7.542418128074675 7.555354038226114
Al 6.615813228303625 4.8473731528121995 7.1370595894724795
