7
Energy = -15.97075203 eV
Al 10.144815371238323 10.307667535193723 6.734632271916263
Al 10.245482086277107 8.133135561254605 8.209356995829642
Al 8.138157310606147 10.262579945804648 8.275768507654263
Al 7.901586782230717 7.281466321670863 8.395700578103847
Al 11.113090059291816 8.531409463172661 10.643768016368638
Al 8.619097003136808 8.981251032878193 10.645232921570187
Al 6.274850405361223 8.939569158167195 9.532619726699428
