7
Energy = -16.61249101 eV
Al 9.415499940959878 10.131927395078995 6.3895892309809454
Al 9.495310188166428 10.736851433096344 8.89321782769734
Al 7.173333485291588 9.112764760612377 7.174721122199608
Al 9.421115006088664 8.136204187903681 8.243022951922974
Al 9.315099470049025 8.970960311720335 10.77856542268307
Al 6.997338464146978 7.3291803988357165 9.044130389615926
Al 9.0437201162544 6.443528183709762 10.338169725857473
