7
Energy = -14.95722704 eV
Al 10.173187037654177 10.84504892452589 9.500307406750858
Al 10.972969957233937 10.989609011233634 13.577919165536235
Al 12.052858248885514 10.337276797152162 11.12109035606575
Al 12.94561228002124 12.894685262380767 11.670798227318137
Al 13.5469912431014 10.941572135782055 13.283465748206206
Al 10.29096532958722 12.52617437460957 11.471445916613881
Al 8.262090838923724 10.963932801150705 7.549379527710729
