7
Energy = -16.09002137 eV
Al 11.106734402402424 12.534160028961919 9.711062323829028
Al 11.813181306660459 11.302146466030381 11.889530146413875
Al 9.202047187605318 10.9918415032382 10.909719755611848
Al 8.98549133985378 10.206773499290748 8.315353435155084
Al 10.713278607873718 8.947884348849936 12.018198687698996
Al 9.095839623649482 8.309536694862597 10.089596590801323
Al 11.401600074355322 9.843909543436691 9.508257286891098
