7
Energy = -15.75995963 eV
Al 6.856031077782995 8.202856621845646 8.511521204886387
Al 8.822747390736176 8.929995687474571 10.02663164677201
Al 10.61010457804255 8.128972676007914 8.340099967620208
Al 11.146648425737725 10.260043399646024 9.883660437492937
Al 12.688021090602247 8.102615525471036 9.880587356073091
Al 8.891970682600483 11.533127746317144 10.3163085766446
Al 6.90078812916082 10.758699717900665 8.957502185174299
