7
Energy = -16.38455165 eV
Al 11.821755132861824 9.492333926265484 9.165181583114949
Al 10.370571478224816 10.870902615005217 10.734071972274156
Al 9.14887613760402 9.871983749989953 8.533495942447379
Al 7.932595059280386 7.779074695669508 7.292481021117016
Al 10.253911071826584 7.4558993802510045 8.55549332506656
Al 6.501832902301775 9.150030881694592 8.890305699746333
Al 8.098516946506107 9.50783347973001 10.95702918483899
