8
Energy = -19.15112173 eV
Al 12.245892072841663 9.620979381574855 9.772521907272209
Al 8.981109048417155 8.242139521785877 11.892027647271762
Al 9.482183096419973 9.500056898956482 9.4833235915327
Al 9.091508890325864 11.515757552202142 7.566636535229649
Al 11.28534104155301 10.27149878360209 7.536143397388532
Al 7.057136100667743 10.58998043049958 8.712551218706801
Al 6.953709576162762 8.857131645289801 10.526649163810985
Al 11.094378516153698 7.580673510639396 10.688842664014055
