8
Energy = -20.32674396 eV
Al 10.636102327199982 11.270122041456831 9.796751390835288
Al 10.084097806211927 8.14597747909707 10.409376380028402
Al 8.406173950862211 10.050123569749376 10.616885071578233
Al 7.80063963046244 7.091691699688389 9.477267540998502
Al 11.924369814334687 9.30095729261553 8.759332384987884
Al 8.7556457802392 10.504809653917038 8.006367614122963
Al 9.630742902364931 8.139777133318214 7.7808403562367765
Al 6.491126939012679 9.22544028084534 8.88207841190014
