8
Energy = -18.75256865 eV
Al 9.909882156286848 8.90479803811922 6.995090755191616
Al 6.50746230371315 7.51254642188078 6.995090755191616
Al 8.90479803811922 6.50746230371315 6.995090755191616
Al 7.51254642188078 9.909882156286848 6.995090755191616
Al 9.909882156286848 7.51254642188078 9.422253704808384
Al 6.50746230371315 8.90479803811922 9.422253704808384
Al 7.51254642188078 6.50746230371315 9.422253704808384
Al 8.90479803811922 9.909882156286848 9.422253704808384
