8
Energy = -19.51954239 eV
Al 10.795463755589239 9.235281460727874 10.214428466511233
Al 9.409728460843223 7.066536853314409 10.384866179641765
Al 10.24204580912368 11.380782472413488 9.03272070016322
Al 6.845402734144732 7.186597170308834 10.440091537038647
Al 7.817778678300992 6.73001291271015 8.10774554235951
Al 8.859531667353288 11.047868470774516 6.937223480303447
Al 8.421115402346667 9.291224446955441 9.029614138879387
Al 8.212011731111211 8.664774451608697 6.456388193916325
