8
Energy = -19.76761192 eV
Al 14.152898144008311 12.009172912395394 8.327433055321748
Al 11.929339576032826 11.157064876174589 9.750108053179918
Al 11.027083835371787 11.18789261044774 12.310351062809401
Al 11.28769106649412 8.932807665009262 11.22417931580079
Al 9.650440101679612 9.750120098987242 9.144233853960056
Al 8.435477386600075 10.931228914335023 12.407598941102831
Al 8.701907014024354 8.677309688578573 11.31523308459326
Al 9.396120096474638 12.003678216906257 10.234948562347011
