8
Energy = -20.30649927 eV
Al 10.204604583117433 7.736057013757461 8.196572978189973
Al 11.489177607872758 10.061618848711959 7.6245644116687235
Al 6.713098914872089 7.463201311264249 10.427131268789887
Al 10.019240911980356 10.445492743215373 9.797590495158914
Al 7.623787783216606 7.808089909754258 7.962003141040308
Al 9.357469031507387 8.066515448290616 10.591223968103401
Al 7.467512967612736 9.96767055509897 9.654897671901079
Al 8.775238295121344 10.06291651051505 7.378314608142406
