8
Energy = -20.28438067 eV
Al 6.716570624590796 6.7387898076245705 9.734902523282932
Al 11.54259587343442 8.499698968183978 7.1205728076093875
Al 9.123573391740594 7.588404093311406 8.416698505542865
Al 8.483502686785272 8.64949615664168 10.787714531445777
Al 10.643196787501084 9.444288437440887 9.611248687408697
Al 7.037494150947619 9.258063246821472 8.539137006832677
Al 9.20783192235057 10.044762147254369 7.368753794226939
Al 8.549335558024442 11.080598138096434 9.725073139025524
