8
Energy = -19.6109017 eV
Al 9.128225379224808 9.128225379224808 9.128225379224808
Al 7.1565326207751925 7.1565326207751925 9.128225379224808
Al 9.128225379224808 7.1565326207751925 7.1565326207751925
Al 7.1565326207751925 9.128225379224808 7.1565326207751925
Al 9.720181454912126 6.564576545087875 9.720181454912126
Al 9.720181454912126 9.720181454912126 6.564576545087875
Al 6.564576545087875 9.720181454912126 9.720181454912126
Al 6.564576545087875 6.564576545087875 6.564576545087875
