9
Energy = -22.87415818 eV
Al 11.989413729779772 10.093275874871548 9.576144902187423
Al 10.884906651891912 7.793231734159178 8.778757500998243
Al 9.59159913567326 9.315749494539682 10.747714332414535
Al 9.910831283702882 10.782784782289314 8.264108934894905
Al 9.166763658602854 6.68444993753282 10.354815455358386
Al 7.627819235861419 11.941108540559554 7.93844070965501
Al 7.371471972108697 9.8174795554994 9.518542981672626
Al 8.708436141743958 8.47164721198909 7.58626272535476
Al 6.906629779610255 7.25814445753481 9.393084046439252
