9
Energy = -23.37282331 eV
Al 13.839047032260314 12.580408090741333 9.886496319987254
Al 11.624510536015725 11.783949554282392 8.777551123466226
Al 10.255978623736393 9.598906989362929 9.372963060040338
Al 10.40707221236134 10.833654163710024 12.557134364182398
Al 12.32407138237044 10.17474204089884 10.88747212099718
Al 11.739123111426721 12.809203282117528 11.40405311232457
Al 9.300761189296122 11.787988445598879 10.403726563634022
Al 8.15783733095627 9.449236298748547 11.362522074037985
Al 10.518659250124246 8.3299591257501 11.6905240663715
