9
Energy = -22.67029688 eV
Al 7.260226520174884 8.845062124309205 8.785808389677461
Al 9.64693014419071 9.487089139703373 10.042767549457478
Al 7.907788733524044 7.711181825800268 11.144033445004712
Al 8.24541758388824 10.47105184946073 6.820552183730665
Al 9.60299780930474 8.220533284487857 7.576607766391867
Al 10.65599825324647 10.688785645918756 7.822453589385402
Al 10.650722673303676 6.9801898388874575 9.728255990381307
Al 7.913064699264513 11.41997212502756 9.239119376146563
Al 8.239655037390175 6.298935483554731 8.963203255536966
