9
Energy = -22.8185448 eV
Al 11.140601445849203 10.796262472738926 8.846164373921823
Al 9.157541966041755 12.134812432907136 9.826951236088231
Al 9.49268188995379 6.936865772948947 10.217023383510059
Al 11.173234745328452 13.597693900683353 8.708410063403102
Al 8.12210547054757 9.669518189909185 9.482957996525935
Al 9.92796680224386 8.561265921199668 8.062191892487613
Al 9.937256813164453 10.029116511978529 11.41590989415396
Al 11.597508930534518 8.535494235911138 10.159949315440464
Al 7.934953155410225 8.222821780796252 11.764293063542365
