9
Energy = -23.11943133 eV
Al 10.475781931330339 8.98141050236961 7.798140642714064
Al 10.247627527798665 6.955135706771087 9.387788327668018
Al 9.334105090684043 10.984233441090254 6.566561263753864
Al 10.537169176615006 9.292770008323924 10.567273061784412
Al 8.58133048470441 10.507762273681127 9.118451845147113
Al 7.969605961092023 8.76943604125566 10.898778765462193
Al 6.824603432309658 10.223939339058898 6.951468026678308
Al 7.997223342903321 8.040358539339886 8.27232178020209
Al 8.001054292273738 6.213455387820879 10.407717526301644
