9
Energy = -23.34372915 eV
Al 10.731679580341739 6.763926142117723 8.257345425261805
Al 9.959513417298215 9.621409794384189 8.644439218976629
Al 10.42932672684909 7.599984412612296 10.73111021774764
Al 8.91798521374363 8.08183400724819 6.87004005767735
Al 8.434853435309694 9.33595839438807 10.702024205373844
Al 8.236963870557812 6.90786030156398 9.324743845520747
Al 7.877873064836608 10.509253069498753 6.71282118810237
Al 7.594893107135564 11.307104366990325 9.191182807251936
Al 6.761213595854531 8.816971523123106 8.510595046014561
