9
Energy = -20.26200406 eV
Al 11.051763275649765 8.58725488992002 12.83167693538247
Al 10.834159954508262 7.525402331798977 10.515182874625356
Al 9.872320420298285 10.711312992404368 12.030217458304366
Al 10.68453383264302 6.541837745137597 8.157714349127065
Al 9.665730863633968 9.668706001453995 9.678209994204467
Al 8.619979010043464 12.779645423072974 11.19744214173054
Al 9.535433502296192 8.661572245142523 7.305252879757212
Al 8.456803489064434 11.789935335652025 8.84377239959686
Al 8.310723810238324 10.76170166366488 6.5058691403661095
