9
Energy = -22.83606285 eV
Al 11.52646278077401 9.151033495738805 10.319009942166044
Al 9.037050875963875 8.182949034331996 9.60891173306113
Al 10.744902737702578 8.875109446180753 7.691409476641304
Al 12.864048172530207 10.184385718817868 8.291513388683796
Al 7.46395414018252 10.066799960981193 11.00234330080384
Al 6.538698332635585 9.319064409914267 8.627708591214015
Al 9.032743795385073 10.704084711725333 8.625064867960615
Al 9.599755667587374 9.103948077335286 12.03023821173724
Al 10.15912930980189 11.379370957537056 10.770546300294987
