9
Energy = -23.58505297 eV
Al 10.213066823742135 8.477086577264854 8.67008251841732
Al 10.353061144151372 11.014950066490798 8.79795129126387
Al 8.439206153062328 7.656516060645757 6.718230492170532
Al 9.322159216607371 9.743154979231138 10.947400791833141
Al 8.697602194768388 6.069691199582648 8.773551169038859
Al 7.839078853962587 11.195610681993422 9.171498491096965
Al 9.172821291585482 7.151196409889847 11.150167336143374
Al 7.562673187258064 8.667315681838803 9.141990051036379
Al 8.6838629259079 10.214169574704542 6.8122429223904994
