9
Energy = -23.34339918 eV
Al 9.026854941803496 11.089878589330686 7.554149842051714
Al 8.46251933467555 8.591698474374146 8.126830882553435
Al 11.05650596232691 9.5245040840952 9.111030731138111
Al 10.404551631333364 11.9564004303612 9.621502157439902
Al 12.276160484502402 11.122519260520475 11.302862666184815
Al 8.040706051558713 10.483779258389072 10.008106625526803
Al 11.642484177627143 8.637470697805163 11.85643848148443
Al 9.43475644746085 8.113910266690457 10.53575609783668
Al 9.706396998340153 10.530774968062182 11.934258545412806
