10
Energy = -69.87644011 eV
C 8.145624962768315 4.413155552547126 5.76440716744328
C 6.243657141465971 6.29709252671135 5.596600950630244
C 6.4762685458229 7.71544861781848 5.733129213042672
C 5.296487660948626 7.812062504295088 6.872483866237152
C 6.378079373395791 8.10827942469886 7.732858080731083
C 6.591228440353681 5.801647090099647 7.342896024277533
C 5.346332989133629 6.365952579660726 6.766841442744053
C 7.272835171941749 6.962376894443357 7.8667552597821935
C 7.455300753974743 8.022776869267956 6.798213095064735
C 7.155673275786559 5.224040229388671 6.076344008926891
