10
Energy = -64.01187715 eV
C 12.45447528256222 9.964118041623294 10.84047688768218
C 11.148907582178968 9.465215894038465 10.365626100287638
C 12.413380614547613 8.96887522159123 9.78919210610416
C 12.806153083011477 11.060899665567538 9.971641867543632
C 6.869073927788534 10.210116798531358 9.963104042310132
C 12.757810287565412 9.871519745554764 8.718335481665394
C 11.58737776948261 11.548409610054552 9.36090351988252
C 11.54873557573092 10.549177839447367 8.317095065571195
C 10.607766527300598 10.448567627765247 9.452574737354317
C 6.228708653906392 9.0721995770694 10.043697722935015
