11
Energy = -82.69300694 eV
C 4.42293286253348 6.051859409280262 6.107782070496959
C 8.778132265215174 5.911505855805347 6.603128029982726
C 6.866657289119688 6.133713256378408 5.494622159718188
C 6.91113647055906 7.327913993565811 6.2871477902190085
C 5.100820346847028 7.508425859925129 8.043123221741816
C 7.828600397213173 7.545001626080807 7.361878564177371
C 8.029487291031895 5.366236150172085 5.6741206357585146
C 8.964894524067866 6.724443046851911 7.633339912626248
C 5.465231100646018 5.868616323026538 5.409663821979028
C 6.406296481750304 7.770316913412742 7.504264860752856
C 4.456989982060585 6.742328672804143 7.2594207076959165
