11
Energy = -76.74483234 eV
C 7.856249213959762 8.565862979868475 5.946346557401999
C 6.490882115666649 9.31206090603754 5.8210551925671625
C 7.582059824924763 7.304584465760029 6.497019413995716
C 7.189289076199341 9.623936417003112 6.9329060356962255
C 7.89419995950697 5.862036233999759 6.8108012179864765
C 5.908086808877757 8.71288355162537 7.136952279826115
C 6.789757028302226 4.887015168527516 6.771474584169877
C 7.705353961376496 5.40023745508021 8.196821955672078
C 6.385984960438656 7.395854022963781 7.236016305486474
C 6.620999558725692 4.333503205530457 8.18073902271453
C 6.376056210032671 5.983611983136589 7.73686021985973
