11
Energy = -78.8320682 eV
C 7.146758377615631 4.17451391283413 6.766270298742427
C 4.705670731296967 7.811088562961653 5.902969062195076
C 7.550269063898586 5.398221819554416 6.002176738173526
C 5.192198209591324 7.685598587608887 4.677449225741719
C 6.7766929648716525 5.486493674810256 4.707165839112724
C 6.360636898811006 6.968979705080362 4.971015003911914
C 4.624114486874627 7.360948731332403 7.1352916870484195
C 6.927451945932912 6.821162330236542 6.277598405819132
C 6.167833213878725 4.572466420028126 5.6333684593605255
C 5.856807905887845 6.627068838603652 7.199911206557607
C 6.048347879635851 5.175306165075054 7.033708524015028
