11
Energy = -78.39290207 eV
C 5.930826862870192 6.112252760868249 8.871466361996376
C 5.414080576815029 6.626586114104243 5.377105733433085
C 7.100945208241763 5.514020150362981 6.554201075253324
C 7.298065587441915 6.267095289750686 4.46048291889585
C 8.049006274518606 6.35974101973824 5.794229988951068
C 6.312884552944924 7.457391039591737 4.54450948785125
C 5.646118202929214 7.288067267096266 6.65681680079206
C 7.841787162187784 7.610379810825568 6.416856870251114
C 6.624027750155566 8.094602250726332 5.894043090832507
C 6.348551809412157 5.498890132502042 5.3086634899362855
C 6.25670261698372 6.236923921568349 7.602371220798971
