12
Energy = -88.99348433 eV
C 7.949969564566252 6.774345511679232 7.144566707441131
C 5.505996871147084 6.406301465611526 7.626529825675936
C 7.588301923934533 5.612291513364465 6.243265245051711
C 6.758705653647036 6.215514441790475 5.231047111441876
C 6.963731184610287 6.109820724268314 7.930529569825693
C 7.037797555544821 7.684350002031557 5.320822608225241
C 7.677726206821239 8.044219900391829 6.509010196036028
C 6.173997767248821 8.351255079697522 6.1926544490121
C 6.834110178674117 4.804969047533496 7.240866399553238
C 5.443730139997455 6.049966141163778 5.794991868099261
C 5.394116508098648 5.0991176711019195 6.940359724778947
C 5.225238362338312 7.3274656144289425 6.574444209960425
