12
Energy = -88.59478658 eV
C 6.911405987607162 5.035499602282158 5.745569255107283
C 5.461598866262712 6.838870026610569 7.431471023543079
C 4.964569907851614 6.86526986688285 5.276934590203283
C 5.437127088959768 4.9621043844780495 5.624983803472267
C 5.970263026123839 7.505520718912835 6.121955491455277
C 6.527470007841131 6.305290140300622 8.14261903505705
C 6.967016311631727 5.952838379959891 4.5617104404341875
C 4.792914349399835 6.003074483840452 6.453869440152584
C 7.2223164946668295 6.900322198091056 5.712617873795887
C 5.459457047637074 5.848264522951706 4.34685117402024
C 7.5894167669264965 5.86121033256083 6.715845934888084
C 7.773382303120231 5.977299140791077 8.159225731704828
