12
Energy = -82.03886645 eV
C 8.132568397207208 8.134360882345813 7.35526959380954
C 8.108431256223389 8.106817028603047 8.889932024007374
C 8.140768743608016 8.135528348206286 10.424626175117771
C 9.636346332523992 8.136243450966878 7.351401283697028
C 9.669017958728649 8.108380707096284 8.885852912225506
C 9.644370782255546 8.137107836811923 10.420757927726179
C 8.131311281440116 9.638039234381889 7.354968510250933
C 8.10659751485866 9.667387910903658 8.889474547753599
C 8.13890523515606 9.639329061142556 10.424367175781862
C 9.634911089910705 9.640088479080488 7.350758501556328
C 9.66712091175284 9.668927408015671 8.885287799069776
C 9.642554496334686 9.640693652445623 10.420208497018375
