12
Energy = -87.02152903 eV
C 4.449231634039762 7.545814194682975 6.610682650591038
C 4.930566157470649 6.2773434748444386 6.030448869068537
C 6.073638995978598 5.853969655325289 8.00559108738578
C 5.718662411912795 5.248230677775076 6.783530390365612
C 7.011651084044231 6.035739429278016 4.927811367489663
C 7.002694215985395 5.05572888629712 6.032855790021126
C 5.794756512683993 7.740659081188614 6.03035635958199
C 7.077927016720445 7.549012761466197 6.782342101173457
C 5.786478410016609 6.7586596790017435 4.926898549135702
C 6.722891640596512 6.9461256249346635 8.005822084934193
C 7.866559662285772 6.519160678496749 6.031307003646269
C 8.347499538489025 5.252113136933605 6.614512462263693
