12
Energy = -87.43554589 eV
C 5.062043909776269 7.153850565170003 6.266817900817551
C 5.1526281493986525 8.46031030527751 6.567867785147704
C 6.238171130250034 6.215655894585986 6.244979101454041
C 4.319636191957909 5.071611863351894 5.745087730257268
C 7.4806649664452 6.645916004063681 6.479592228990059
C 7.253662354577251 2.6801330633454223 6.036355240921813
C 5.757139384077206 4.837908208190733 5.939753486359754
C 5.432737816141629 9.64810103603706 6.978411806742936
C 3.9560282388980337 6.260860671819889 5.919250951309836
C 8.602819210166869 7.212782336336857 6.704974082762788
C 6.516636972626655 3.730297436081549 5.909357342126906
C 9.58776849892783 8.035053205686637 6.95446190769756
