14
Energy = -103.87450673 eV
C 4.9829257215342215 6.604854785415893 6.134220336249642
C 6.0260778104366235 5.3571931298134805 7.978414139116496
C 6.036639268862494 4.754730532928118 6.764007330501344
C 6.9979939128192985 7.859058635037697 5.672540299247764
C 8.238017007524611 6.727796060092571 7.454878139505985
C 5.542455725646493 5.280499175533935 5.608651972041506
C 6.396583757428806 6.196142940907325 4.821409424542444
C 5.691250857591372 7.45413458991504 5.2002136074122784
C 5.239804085869224 6.67014959537442 7.571935238568099
C 7.76244955281767 6.667070785180867 5.0860561369854205
C 7.3018405837109706 7.94568774083372 7.097891314633084
C 6.290323877064577 7.5284138444153195 8.023422875639175
C 8.382481364816924 6.204963220363682 6.214611560762147
C 7.103270108635436 6.3001302464342075 8.275975102260428
