14
Energy = -105.42877968 eV
C 9.216259365793293 9.40147488046167 5.240780389223614
C 7.556208863058317 7.78168189355414 6.11912458432122
C 8.892371392581964 8.047393680458605 5.5349314989535365
C 7.942630178270796 9.181718561021777 5.83218480370837
C 5.934239009311508 5.1245157171133755 8.653051941181934
C 6.8566192835150614 5.6091786779601644 9.47048479130578
C 7.275849584143521 7.145197778131913 7.506404914052566
C 7.381486837650467 6.55511925432577 8.70129423852017
C 6.224909711299989 6.405817525054792 6.894671613030258
C 4.923908274479092 5.431436593107231 5.185786990702855
C 5.4384046416841905 5.296858297403124 7.3478381416427805
C 4.656064451885498 4.797478016484661 6.2800626493580465
C 6.393414690892741 6.909975275577688 5.570401578845428
C 5.647690110472453 6.348519472069899 4.546290650238761
