14
Energy = -103.00538738 eV
C 8.854726689258804 6.945749756887993 6.738390430012442
C 9.638758021781824 7.262672353103022 8.063109788705981
C 9.013788089615497 8.297818893090936 8.795347204243196
C 9.221353554003153 6.009322370302379 8.637816198170148
C 8.391917284586675 5.774662659306463 7.349910893547874
C 7.779170630699672 7.9537110921588186 6.60275957767658
C 7.775079454325958 8.323349910609767 8.064472919443519
C 5.593325799345669 8.124581269455255 5.3048739522086095
C 7.1613996574633605 5.9343548038629095 8.201017095276464
C 7.924812370656564 6.209200447927636 9.358043449672513
C 6.784375024011966 8.05794844977809 5.729272483174597
C 4.343547590925202 8.095650491420717 4.930787583000052
C 7.040267682788941 7.304545775643314 8.763510740293803
C 3.071034214593984 7.947435398186314 4.785256216419132
