15
Energy = -117.34971722 eV
C 10.082745709350048 10.891079301115331 9.120952414654912
C 11.293469764548288 10.853074747927124 8.781787056281734
C 9.106710507085879 10.817891431609587 10.088595122877916
C 13.624443621672226 10.479733596179953 9.23111636494822
C 7.703062504578341 10.72757177528642 9.86420298549828
C 12.583234555900134 10.711993145435004 8.526038272361772
C 6.392371069155622 10.545254103488537 9.976606781690892
C 10.497052982053518 10.627383426857387 12.180406945840172
C 11.72774983595355 10.462312163074968 12.295988337106612
C 9.266818952429544 10.72336543219999 11.556252189073653
C 13.045480851693393 10.233230721806578 12.255229042214527
C 7.94334346091876 10.640308406362601 12.099844711940982
C 13.877982969609679 10.192329999135245 11.297361407453803
C 6.976940545860534 10.579756532643458 11.2580124515956
C 14.54835090079153 10.184473448478553 10.137364148062261
