15
Energy = -114.13510973 eV
C 5.796352345966482 4.8918741206290965 2.9941492622799077
C 6.649010682845558 6.7252459535676365 1.9009566762421974
C 5.970291317969063 5.513730009683229 1.8305950002004545
C 5.889590967362246 4.857876899379999 4.266661614220835
C 7.038916125945439 7.093284009202735 3.119088822457516
C 6.487426902067369 5.830045180026661 5.117938087178895
C 7.054807922845986 6.907269113925113 4.380324959285655
C 4.956601726753415 6.524820638709121 9.782408735097698
C 6.38227303984561 5.835608186272225 6.537845456622448
C 5.068078333766418 4.868077875302485 8.418543449421211
C 6.399645362019533 7.422587722585152 8.44931915302678
C 5.902983272246221 7.442364021376158 9.704381902412342
C 4.764728208842152 5.218219517800941 9.690593903284642
C 5.726219581954126 4.8612387539162665 7.3385288358033725
C 6.812621200412085 6.907304988464311 7.36821113330852
