15
Energy = -117.24916865 eV
C 8.396603675149025 9.762243683029148 6.691425841824741
C 8.898803874031152 8.021588563462869 6.792399360951219
C 9.720796886032186 9.210600728788492 6.811229764324353
C 10.947353059697628 9.589025811477514 7.218182772810622
C 7.731621511704408 8.65453000654537 7.337389494061101
C 11.718973335490091 9.85837916079762 8.183706373740232
C 6.8250539445578955 8.47170999058599 8.320002740534202
C 6.669055353065529 8.601304816631004 9.570311845757612
C 12.191969882932149 10.07020603017438 9.384141737210154
C 6.907477939867042 8.838723698600148 10.832075086657584
C 11.928284906167164 10.117397804059195 10.63335706164844
C 7.736704807076515 9.188965015101006 11.740629047643125
C 11.242906685893725 10.05532455439199 11.732860048729197
C 8.83111513540264 9.548203564041803 12.336715629670806
C 10.080811787549397 9.839329356930026 12.243105979053277
