15
Energy = -114.02622104 eV
C 4.982017592464191 6.6864691098744435 4.102056413271666
C 5.19333339934454 7.634880665163288 6.513038102014314
C 4.820165136732304 7.314193809591387 5.329391623786823
C 6.386601380106112 6.521505967011513 4.076443649213577
C 7.418496527864961 5.925521324750358 4.506265289928073
C 5.190003614154678 4.23600145641726 4.408483251516408
C 4.439703633665385 5.319006730390266 3.9489373499676557
C 2.9753192879881247 3.738808184766042 5.643941932446
C 3.769474172943779 4.199243630724731 4.52754151880506
C 7.048738841736085 5.196386404800616 5.698631533105317
C 4.060329486542976 3.4267705081927797 6.33714689345384
C 7.052086657114161 5.90737925933209 6.9222162623768
C 6.11239385574808 6.762531082689919 6.975140838669177
C 5.330873698406043 3.566297781347491 6.630859450837891
C 6.065173400638526 4.108251255525676 5.547744836234535
