16
Energy = -118.46150493 eV
C 5.120085838812075 6.334761456615298 6.391675186293898
C 4.260489816133792 7.122323354698351 6.938651855137404
C 5.073622120464776 7.4111189855249755 8.084610088266217
C 6.307612898108659 5.65578739485829 6.251041357660091
C 6.716927249901117 5.125828358357714 7.527085645391954
C 6.463138473451556 7.717388105890951 8.47127601746964
C 5.667029618188588 6.684412028514788 9.10155193840386
C 6.372906383953306 5.446348681789728 8.892665481163377
C 8.962013975503707 8.180810537431354 5.674467138534708
C 7.633583013857442 5.874376234252579 8.320043067281796
C 7.2757781184381365 8.219079527123462 5.213681614369379
C 7.690489824575916 7.250356049978545 7.916040723209157
C 8.742919986279455 7.844831719947007 4.334410392407317
C 8.123014365432955 7.3613323240273765 6.513696847190021
C 7.818575600306143 6.793123542360121 4.292420496787477
C 7.421574024556866 6.428998236743412 5.620462585984157
