16
Energy = -123.42250503 eV
C 6.742216362158748 5.322687555666831 7.650656520903424
C 4.112751016090305 10.43130025617375 8.013147651148365
C 5.285842474976363 9.907855179494415 7.975489333383483
C 8.094962505645679 12.489769166786134 8.159166904791737
C 8.005265505225823 11.21059419055984 8.068338750410165
C 7.823726170046621 9.868025066151116 7.973021895930582
C 8.870068847511423 8.933008925331151 7.907268638826566
C 9.758021377320457 8.060083640135469 7.846018551693609
C 6.4650794623122785 9.23646080101029 7.927734267185559
C 6.470142986500106 7.8386655119232325 7.828291292527257
C 7.526442666533881 4.339754984853246 7.581710202459294
C 8.80013800152863 3.995385202666437 7.558332388842917
C 9.973783815769531 4.458986620153908 7.59185191133794
C 6.3917888209949565 6.596844451803427 7.740428004619002
C 10.527418583503698 5.662869067534893 7.677250741794396
C 10.414433779625723 6.910240151256768 7.765175191418137
