16
Energy = -124.17695232 eV
C 6.7231971805592865 6.222720353252174 9.565734400733525
C 7.426052977040534 4.799129962613395 7.45739956420278
C 7.672238631634147 5.540761237916809 6.25812447435936
C 8.268156911473604 7.432699070319332 3.296666522016023
C 7.908199982031121 8.14115111256305 4.411798549845432
C 7.578701251651752 8.644983451755019 5.530181481712855
C 7.288023090094882 8.184492950905463 6.826692063324083
C 7.00767255627343 9.0377609797675 7.902753390276854
C 6.453497428903577 9.254407000797023 10.268823049563052
C 6.742891589620298 9.56146343088829 9.002999516494146
C 6.304318291061498 8.232629374423345 10.991522783308733
C 6.451355232634745 6.979686424259687 10.517186447262285
C 7.075282413451959 5.915663261228131 8.275160926020241
C 7.311243389062414 6.766817100644625 7.099453918170569
C 8.18100283572433 6.33024470007294 4.075435240228862
C 8.04673900505516 5.399508232003521 4.954676553832032
