16
Energy = -120.17356349 eV
C 8.904310600012952 5.7741387763284555 6.670364451494519
C 6.8702447669522515 7.2143367870930275 6.431265346408973
C 3.6319752063065955 8.4481070258189 6.485376037163232
C 2.207176480741146 8.370151965620261 6.272044711782543
C 6.549805550524904 4.260848865255149 5.2864732297442805
C 7.953248490504579 6.511634375909253 5.9901508916429105
C 5.211893803990485 4.194253310719101 4.771758740851419
C 7.380806085747839 7.550168081217681 7.6863558744590845
C 4.385393081157207 7.336607922022077 5.985936087204585
C 5.591898158733731 6.7402037005917235 5.861331751068395
C 8.870678843371797 4.369553412952023 6.274141330197228
C 2.977654589302561 7.256327645309514 5.7867568392201525
C 7.830304075138347 3.9687533947757867 5.6811000777331575
C 8.88127195099269 6.508626244465014 7.83638445164855
C 5.703033223129015 5.380121928392234 5.335354764270416
C 8.158655451713745 7.223071778532458 8.753811101736424
