16
Energy = -122.10913687 eV
C 7.613897480471823 8.5756845751914 6.72345553743738
C 7.491530305979195 9.922736723838298 6.515056025889082
C 7.337542152820511 11.070859338842352 5.965879006703008
C 7.156609381526472 12.182423883478133 5.297698721552587
C 7.5881397778580935 7.924514961180103 5.472574425777444
C 7.722864054603512 7.718641535795517 7.88809785814769
C 7.74849212577055 8.092193592171592 9.233577716661701
C 7.794033199045727 8.027304313971161 10.483121702013172
C 7.901318087044753 7.078979148328905 11.433788556886869
C 7.981318137702208 5.252451449386326 10.1024498540634
C 7.991528082469364 5.8220241147383645 11.354545687187587
C 7.909525280384647 5.496840221281613 8.892489531115194
C 7.798072899841974 6.232974321841559 7.674899802554614
C 7.7492430998829995 5.715743438081786 6.40557706541708
C 7.541953171545324 7.361414820451513 4.2134798894877425
C 7.649235164463464 6.498006706545477 5.319053691963129
