16
Energy = -120.32496224 eV
C 7.541472411849422 4.814308674532591 5.396429645857331
C 7.878830387883388 4.605943803299636 6.608508767885128
C 6.930467604804745 11.573280925081255 5.934868660656917
C 7.3491986711653245 9.366195154441646 7.205222021514858
C 8.369762749471253 9.8157202382414 9.70166269990544
C 7.547395824441134 7.004749351135873 7.132968694805053
C 7.5863236959650004 8.246558606892291 7.936143408203323
C 7.107157034515915 7.1128672446318975 5.800343417269812
C 7.141602804123723 10.460352202193668 6.579583454847344
C 7.9706978021649215 5.595132664357112 7.606827979953215
C 7.925714180036491 8.565957888194852 9.352460414671317
C 8.18526773080658 5.455978101417252 8.974444013886298
C 8.760532335146012 10.9794512369435 10.069593735617383
C 7.150688862754703 6.0417736704670295 5.104834078610089
C 8.251676854552699 6.405203548325222 9.830457085770583
C 7.879153164165522 7.539556456996621 10.34999281140689
