17
Energy = -131.59477085 eV
C 6.692692391862938 5.463035119090181 9.27873327306955
C 6.795026838101689 4.784399987335846 8.054703207194136
C 7.90985816061688 5.533183652194613 8.438476849365282
C 6.476928442305138 6.746342312488694 9.754847309649437
C 6.1099647651159525 4.6220898633608964 6.8587535031023155
C 7.406226382526307 7.628031656548717 9.185103402283586
C 8.396235612576545 6.851314338507809 8.374673304269857
C 7.132351900033251 8.9319215081198 8.679583736873644
C 6.373302240918235 7.655084715186402 4.934512335832083
C 9.077508442294704 7.470212556834464 7.329996762608004
C 5.917027225362062 5.394112836791097 5.8864127816432
C 5.959172522789829 6.489882974676303 5.130086133439615
C 7.041569210581691 9.625246583239013 7.658767288575946
C 9.366657628878551 8.254766082335793 6.398430592208652
C 7.087868993610713 8.786275441372705 5.174949109815911
C 7.305111640611875 9.717339546333264 6.294992035084819
C 8.36693180546775 8.989007075794285 5.728790416225278
