17
Energy = -126.55772101 eV
C 6.454480302524934 9.172816827373923 10.32584703898418
C 6.84853301890854 7.748179051906917 10.70021997389788
C 6.645097827826181 8.148842620412394 9.342797209988461
C 6.667703558386722 8.769931602893902 11.691049164935967
C 8.466307562855494 5.888670736380444 7.947168960771628
C 9.52734164566917 6.3884618174583 7.040035580065151
C 9.102134549163583 5.147597269675898 6.583298480617612
C 7.252326681368219 6.53852242856497 7.529842824503784
C 8.781093016270354 8.56293419961099 6.0704343320797065
C 6.6867138539666895 7.78838867051289 8.051254691254783
C 9.392098636049022 7.353648141189616 5.902317241028837
C 7.123670351996762 6.3936468222492335 6.094577918466207
C 8.529914176850525 6.148031990479125 5.639014142709655
C 6.541943269453528 8.670312995808244 6.816539082017978
C 5.442470164121811 8.321745184876043 5.900114121898927
C 7.775913127915438 9.226481729580668 6.436464285707014
C 6.2057569078805646 7.310298155770005 5.609994131439308
