17
Energy = -127.98601762 eV
C 11.216271551927068 6.044218726741554 8.320833114561774
C 10.255119065886102 5.3840216705803545 8.880011133349567
C 11.707885579721848 7.062575188435952 7.565103920048917
C 10.429241138422956 7.313788793292848 7.410057317965017
C 9.090912043295976 7.114909597919025 7.62883952236447
C 9.014077451896833 5.9529395559056635 8.532357292262706
C 7.603434110339644 5.8006769414311945 8.905222261228284
C 7.128289350703184 8.17536302321026 8.586470024035485
C 6.348090079612166 9.764447688250161 6.739128348774151
C 7.827245669388783 7.771346673788098 7.288852746862604
C 6.731766582244435 6.935613742518598 9.254057687564611
C 6.535018868118396 6.003095876577003 8.06484006811559
C 7.183825316807735 9.127421072552695 7.64049188700373
C 5.690495696060458 10.105043310356626 5.623692956958537
C 5.742760160018287 8.699821874374454 5.679886031067061
C 6.687683652367437 6.775282673446252 6.79899135676864
C 5.85569295320997 7.435905391113284 5.980168592519723
