17
Energy = -127.38984606 eV
C 7.449109582830678 7.066818176968038 7.839514819001531
C 8.359494391681306 5.981134534392771 7.577550430749068
C 4.099580764767986 6.949420587821305 5.9869138713984915
C 8.502044289399 6.5547861730799495 6.2544308080182125
C 5.89571540599547 8.315953604072769 4.983952239773272
C 6.900191166702639 8.361671176997104 5.749635484030942
C 4.678510616398256 5.6069716660576425 6.0112289198288185
C 5.086578904243672 6.157121409247182 7.46714006272325
C 6.851325802465053 5.629497340772656 4.7390032910617625
C 7.805577652770371 7.840052808678115 6.611036541038577
C 4.97173539300012 7.273230365659758 4.866342111235342
C 7.375736770150073 4.914523557871667 7.968739717265873
C 4.3686471681794705 7.381696864915227 7.337465316685989
C 5.494910301665318 5.861534069353858 4.821068305149923
C 6.384788776543703 6.054368478896015 8.010234861126571
C 7.229145438455648 3.6116913837437186 8.099820804214401
C 8.006391996861737 5.899012223582573 5.135406838808736
